#------------------------------------------------------------------------------
#$Date: 2019-12-02 13:46:09 +0200 (Mon, 02 Dec 2019) $
#$Revision: 244843 $
#$URL: file:///home/coder/svn-repositories/cod/cif/4/51/38/4513835.cif $
#------------------------------------------------------------------------------
#
# This file is available in the Crystallography Open Database (COD),
# http://www.crystallography.net/
#
# All data on this site have been placed in the public domain by the
# contributors.
#
data_4513835
loop_
_publ_author_name
'Sobczak, Szymon'
'Katrusiak, Andrzej'
_publ_section_title
;
 Singularities in Molecular Conformation
;
_journal_coden_ASTM              CGDEFU
_journal_issue                   11
_journal_name_full               'Crystal Growth & Design'
_journal_page_first              5530
_journal_page_last               5534
_journal_paper_doi               10.1021/acs.cgd.5b01156
_journal_volume                  15
_journal_year                    2015
_chemical_formula_moiety         'C6 H12 O'
_chemical_formula_sum            'C6 H12 O'
_chemical_formula_weight         100.16
_chemical_melting_point          220.65
_chemical_name_common            pinacolone
_chemical_name_systematic        3,3-Dimethyl-2-butanone
_space_group_crystal_system      monoclinic
_space_group_IT_number           11
_space_group_name_Hall           '-P 2yb'
_space_group_name_H-M_alt        'P 1 21/m 1'
_symmetry_space_group_name_Hall  '-P 2yb'
_symmetry_space_group_name_H-M   'P 1 21/m 1'
_atom_sites_solution_hydrogens   difmap
_atom_sites_solution_primary     direct
_atom_sites_solution_secondary   difmap
_audit_block_doi                 10.5517/cc13lkdn
_audit_update_record
;
2015-10-05 deposited with the CCDC.
2016-03-01 downloaded from the CCDC.
;
_cell_angle_alpha                90
_cell_angle_beta                 108.314(19)
_cell_angle_gamma                90
_cell_formula_units_Z            2
_cell_length_a                   5.7409(10)
_cell_length_b                   8.7209(16)
_cell_length_c                   7.0062(12)
_cell_measurement_reflns_used    2052
_cell_measurement_temperature    180
_cell_measurement_theta_max      28.1790
_cell_measurement_theta_min      3.7080
_cell_volume                     333.00(11)
_computing_cell_refinement
;
CrysAlisPro, Agilent Technologies,
Version 1.171.37.31 (release 14-01-2014 CrysAlis171 .NET)
(compiled Jan 14 2014,18:38:05)
;
_computing_data_collection
;
CrysAlisPro, Agilent Technologies,
Version 1.171.37.31 (release 14-01-2014 CrysAlis171 .NET)
(compiled Jan 14 2014,18:38:05)
;
_computing_data_reduction
;
CrysAlisPro, Agilent Technologies,
Version 1.171.37.31 (release 14-01-2014 CrysAlis171 .NET)
(compiled Jan 14 2014,18:38:05)
;
_computing_molecular_graphics    'Olex2 (Dolomanov et al., 2009)'
_computing_publication_material  'Olex2 (Dolomanov et al., 2009)'
_computing_structure_refinement  'ShelXL (Sheldrick, 2008)'
_computing_structure_solution    'ShelXS (Sheldrick, 2008)'
_diffrn_ambient_temperature      180
_diffrn_detector                 'CCD plate'
_diffrn_detector_area_resol_mean 16.1544
_diffrn_detector_type            Eos
_diffrn_measured_fraction_theta_full 0.996
_diffrn_measured_fraction_theta_max 0.942
_diffrn_measurement_device       'four-circle diffractometer'
_diffrn_measurement_device_type  'Xcalibur, Eos'
_diffrn_measurement_method       '\w scans'
_diffrn_orient_matrix_UB_11      -0.0880962000
_diffrn_orient_matrix_UB_12      0.0364560000
_diffrn_orient_matrix_UB_13      -0.0817057000
_diffrn_orient_matrix_UB_21      0.0918645000
_diffrn_orient_matrix_UB_22      0.0504125000
_diffrn_orient_matrix_UB_23      -0.0113431000
_diffrn_orient_matrix_UB_31      0.0268595000
_diffrn_orient_matrix_UB_32      -0.0524216000
_diffrn_orient_matrix_UB_33      -0.0675519000
_diffrn_radiation_monochromator  graphite
_diffrn_radiation_probe          x-ray
_diffrn_radiation_type           MoK\a
_diffrn_radiation_wavelength     0.71073
_diffrn_reflns_av_R_equivalents  0.0324
_diffrn_reflns_av_unetI/netI     0.0185
_diffrn_reflns_Laue_measured_fraction_full 0.996
_diffrn_reflns_Laue_measured_fraction_max 0.942
_diffrn_reflns_limit_h_max       7
_diffrn_reflns_limit_h_min       -7
_diffrn_reflns_limit_k_max       11
_diffrn_reflns_limit_k_min       -11
_diffrn_reflns_limit_l_max       9
_diffrn_reflns_limit_l_min       -9
_diffrn_reflns_number            6260
_diffrn_reflns_point_group_measured_fraction_full 0.996
_diffrn_reflns_point_group_measured_fraction_max 0.942
_diffrn_reflns_theta_full        26.000
_diffrn_reflns_theta_max         28.811
_diffrn_reflns_theta_min         3.063
_diffrn_source                   'Enhance (Mo) X-ray Source'
_exptl_absorpt_coefficient_mu    0.065
_exptl_absorpt_correction_T_max  1.00000
_exptl_absorpt_correction_T_min  0.57802
_exptl_absorpt_correction_type   multi-scan
_exptl_absorpt_process_details
;
CrysAlisPro, Agilent Technologies,
Version 1.171.37.31 (release 14-01-2014 CrysAlis171 .NET)
(compiled Jan 14 2014,18:38:05)
Empirical absorption correction using spherical harmonics,
 implemented in SCALE3 ABSPACK scaling algorithm.
;
_exptl_crystal_colour            'clear whiteish colourless'
_exptl_crystal_colour_lustre     clear
_exptl_crystal_colour_modifier   whiteish
_exptl_crystal_colour_primary    colourless
_exptl_crystal_density_diffrn    0.999
_exptl_crystal_density_method    'not measured'
_exptl_crystal_description       cylinder
_exptl_crystal_F_000             112
_exptl_crystal_preparation
'The low temperature experiment was performed using OxfordCryo system.'
_exptl_crystal_size_max          0.97
_exptl_crystal_size_mid          0.49
_exptl_crystal_size_min          0.49
_refine_diff_density_max         0.445
_refine_diff_density_min         -0.206
_refine_diff_density_rms         0.057
_refine_ls_extinction_coef       .
_refine_ls_extinction_method     none
_refine_ls_goodness_of_fit_ref   1.090
_refine_ls_hydrogen_treatment    refall
_refine_ls_matrix_type           full
_refine_ls_number_parameters     70
_refine_ls_number_reflns         872
_refine_ls_number_restraints     0
_refine_ls_restrained_S_all      1.090
_refine_ls_R_factor_all          0.0737
_refine_ls_R_factor_gt           0.0621
_refine_ls_shift/su_max          0.000
_refine_ls_shift/su_mean         0.000
_refine_ls_structure_factor_coef Fsqd
_refine_ls_weighting_details
'w=1/[\s^2^(Fo^2^)+(0.0988P)^2^+0.0683P] where P=(Fo^2^+2Fc^2^)/3'
_refine_ls_weighting_scheme      calc
_refine_ls_wR_factor_gt          0.1677
_refine_ls_wR_factor_ref         0.1805
_reflns_Friedel_coverage         0.000
_reflns_Friedel_fraction_full    .
_reflns_Friedel_fraction_max     .
_reflns_number_gt                709
_reflns_number_total             872
_reflns_threshold_expression     'I > 2\s(I)'
_cod_data_source_file            1030727-1030734.cif
_cod_data_source_block           pin_lt180
_cod_depositor_comments
;
 Updated bibliographic information.

 Antanas Vaitkus,
 2019-12-02
;
_cod_original_cell_volume        333.00(10)
_cod_database_code               4513835
_shelxl_version_number           2013-4
_chemical_oxdiff_formula         C6H12O1
_shelx_space_group_comment
;
The symmetry employed for this shelxl refinement is uniquely defined
by the following loop, which should always be used as a source of
symmetry information in preference to the above space-group names.
They are only intended as comments.
;
_reflns_odcompleteness_completeness 94.31
_reflns_odcompleteness_iscentric 1
_reflns_odcompleteness_theta     28.75
_shelx_res_file
;
TITL lt180 in P21/m #11
REM reset to P21/m #11
CELL 0.71073 5.740899 8.720898 7.00617 90 108.3135 90
ZERR 2 0.000964 0.001558 0.001179 0 0.0189 0
LATT 1
SYMM -X,0.5+Y,-Z
SFAC C H O
UNIT 12 24 2

L.S. 20
PLAN  1
TEMP 180
BOND
MORE -1
CONF
fmap 2 53
acta 52
OMIT -2 6 6
OMIT 5 1 2
REM <olex2.extras>
REM <HklSrc "%.\\lt180.hkl">
REM </olex2.extras>

WGHT    0.098800    0.068300
FVAR      32.87626
C     1    0.600175    0.250000    0.277949    10.50000    0.03136    0.03380 =
         0.03414    0.00000    0.00950    0.00000
C1    1    0.580069    0.250000    0.489896    10.50000    0.03922    0.03809 =
         0.04007    0.00000    0.01596    0.00000
C2    1    0.811337    0.250000    0.665011    10.50000    0.05249    0.10308 =
         0.03522    0.00000    0.01071    0.00000
H2A   2    0.799474    0.204791    0.786620    10.50000    0.07750
H2B   2    0.951746    0.250000    0.636166    10.50000    0.07711
H2C   2    0.808029    0.377430    0.682772    10.50000    0.06599
C3    1    0.345148    0.250000    0.121668    10.50000    0.03925    0.06472 =
         0.04739    0.00000    0.00517    0.00000
H3A   2    0.260449    0.341717    0.138809    11.00000    0.05976
H3B   2    0.361009    0.250000   -0.021053    10.50000    0.06752
O4    3    0.383464    0.250000    0.518736    10.50000    0.04752    0.10560 =
         0.05764    0.00000    0.02974    0.00000
C5    1    0.742231    0.393373    0.251811    11.00000    0.05196    0.03648 =
         0.04902    0.00354    0.02042   -0.00375
H5A   2    0.912777    0.393268    0.344537    11.00000    0.04868
H5B   2    0.745404    0.397072    0.109087    11.00000    0.06420
H5C   2    0.659982    0.488152    0.277627    11.00000    0.05194
HKLF 4

REM  lt180 in P21/m #11
REM R1 =  0.0621 for     709 Fo > 4sig(Fo)  and  0.0737 for all     872 data
REM     70 parameters refined using      0 restraints

END

WGHT      0.0993      0.0655

REM Highest difference peak  0.445,  deepest hole -0.206,  1-sigma level  0.057
Q1    1   0.5892  0.2500  0.3783  10.50000  0.05    0.44
;
_shelx_res_checksum              97640
_shelx_hkl_file
;
   0   0   1 494510. 2524.63   8
   0   0   1 508506. 2502.45  11
   0   0  -1 509594. 3168.49  12
   0   0   1 520204. 3158.64  12
   0   0  -1 495903. 3185.29  10
   0   0   2 154729. 1740.20   9
   0   0   2 158683. 2784.45   5
   0   0  -2 155651. 2534.00  10
   0   0   2 155622. 2472.63  12
   0   0  -2 156783. 2526.15  12
   0   0  -2 155651. 2161.17  11
   0   0  -2 152765. 1910.61  14
   0   0  -2 154738. 2763.68   5
   0   0   2 166733. 2001.72   8
   0   0   2 158329. 2512.59  10
   0   0   2 144724. 1641.01  14
   0   0  -3 37211.9 1520.75  10
   0   0   3 39785.5 1224.65   8
   0   0   3 40577.6 1533.03  10
   0   0   3 36865.1 1036.55   9
   0   0   3 36904.0 1646.77   5
   0   0  -3 39171.2 1402.80  11
   0   0  -3 40958.1 1327.60  14
   0   0   3 38495.3 1499.12  12
   0   0  -4 138789. 3398.84  10
   0   0  -4 135269. 2744.35  14
   0   0   4 138249. 2245.23   9
   0   0   4 137520. 3554.91   5
   0   0   4 141296. 3302.21  12
   0   0  -4 137971. 3205.96  11
   0   0   4 142807. 2701.68   8
   0   0  -5 142390. 3875.77  11
   0   0   5 135504. 2388.30   9
   0   0  -5 129984. 3810.82  10
   0   0  -5 132845. 3139.47  14
   0   0   5 136098. 3962.68   5
   0   0   5 132794. 3615.10  12
   0   0  -6 1003.43 340.160  11
   0   0  -6 1615.27 480.380  10
   0   0   6 1396.93 389.961  12
   0   0   6 1635.68 545.098   5
   0   0  -6 1814.75 419.159  14
   0   0  -7 2785.95 706.625  10
   0   0  -7 1682.47 519.919  14
   0   0   7 158.162 283.628  12
   0   0  -7 1390.30 675.863  11
   0   0   7 26.3983 251.975   5
   0   0  -8 16343.5 1821.53  10
   0   0  -8 18242.6 2108.57  11
   0   0   8 14860.5 1608.95  12
   0   0   8 16816.3 1876.53   5
   0   1  -1 458955. 3348.13   8
   0  -1  -1 473115. 3004.55   1
   0   1  -1 465653. 3315.26  12
   0   1   1 482073. 3333.03   5
   0   1   1 466328. 3440.77  11
   0  -1   1 459573. 3286.37   5
   0  -1  -1 468369. 3546.23  11
   0  -1  -1 475817. 3512.62   5
   0   1   1 453797. 3519.31  10
   0   1   1 467983. 2365.06   4
   0   1   1 475292. 3302.67  14
   0   1   1 463312. 3730.59  12
   0  -1   1 456575. 3352.99  12
   0  -1  -1 455274. 3605.31  10
   0  -1   1 459481. 2396.27  10
   0   1  -1 464976. 3413.50   5
   0   1   1 457139. 2880.77   1
   0  -1   1 460763. 3392.64   8
   0   1   2 268240. 2256.88   1
   0   1   2 260900. 2833.08  14
   0  -1   2 260599. 3194.70  12
   0  -1   2 257461. 3571.75   5
   0  -1  -2 266310. 3098.70  14
   0  -1   2 267364. 2923.10  10
   0  -1   2 274643. 2968.47   4
   0   1  -2 259729. 3313.85  12
   0  -1   2 270731. 3170.22   8
   0   1   2 272265. 3526.44  10
   0  -1  -2 255582. 3597.37  12
   0   1  -2 262884. 1894.39   2
   0   1  -2 265476. 3200.76   8
   0  -1  -2 257540. 3289.67  11
   0   1  -2 233447. 3488.53   5
   0  -1  -2 259857. 3608.38  10
   0   1   2 266103. 3068.09  11
   0   1   2 262898. 3060.71   9
   0   1  -2 258165. 2872.20  10
   0   1   2 252156. 3536.50   5
   0   1   2 257562. 3393.22  12
   0  -1  -2 246067. 3676.30   5
   0   1  -3 60864.0 1788.58  10
   0   1   3 60647.7 1962.31  12
   0  -1   3 56798.7 1516.94   4
   0  -1   3 62348.1 1797.40   8
   0  -1  -3 61789.0 1944.27  11
   0   1  -3 63161.1 1803.76   8
   0   1   3 58890.4 1627.28   9
   0   1   3 61138.4 2042.17   5
   0   1  -3 61411.4 1408.85  14
   0  -1  -3 61697.0 1765.40  14
   0   1   3 59896.1 1472.64  14
   0   1  -3 65886.2 1705.98  11
   0  -1   3 58263.6 2005.42   5
   0   1   3 56060.2 1038.88   1
   0  -1   3 61070.6 1856.47  12
   0  -1   3 63097.5 1802.85  10
   0  -1  -3 60484.0 2096.08  10
   0   1  -3 56883.4 910.252   2
   0   1   3 62003.6 1261.50   8
   0  -1  -4 1559.02 363.075  14
   0  -1  -4 1385.66 344.828  10
   0  -1   4 3988.49 1148.83   5
   0  -1   4 930.219 244.869   4
   0  -1   4 1179.26 142.032   1
   0   1   4 1474.63 237.084   8
   0   1   4 3519.88 1050.17   5
   0  -1  -4 1835.67 436.271  11
   0   1  -4 667.021 277.104  10
   0   1  -4 2099.07 479.540  11
   0   1  -4 1479.68 297.662  14
   0   1   4 735.161 185.859   9
   0   1   5 15384.5 1276.01  12
   0   1  -5 15657.3 1238.51  10
   0  -1  -5 16910.3 1399.90  11
   0  -1   5 15787.9 1263.18  12
   0  -1  -5 16324.0 1189.94  14
   0   1   5 17052.9 1375.80   5
   0   1  -5 16827.9 1284.17  11
   0   1   5 15060.0 882.740   8
   0  -1   5 14422.2 1309.69   5
   0  -1  -5 16463.0 1404.79  10
   0   1  -5 15805.8 1033.10  14
   0  -1   5 14393.8 827.096   4
   0  -1   6 13694.9 1428.61   5
   0   1  -6 13809.9 1121.34  14
   0  -1  -6 14156.2 1470.95  11
   0  -1   6 12752.6 1270.72  12
   0   1   6 12048.4 1332.90   5
   0  -1  -6 14955.6 1257.38  14
   0  -1  -6 15567.3 1511.77  10
   0   1  -6 13755.4 1309.72  10
   0   1  -6 13581.3 1387.07  11
   0   1   6 13586.1 1290.79  12
   0   1  -7 20947.1 1545.71  14
   0   1   7 24283.2 2012.97   5
   0   1   7 20431.9 1755.55  12
   0  -1   7 20051.5 1715.99  12
   0  -1   7 22283.5 1960.85   5
   0  -1  -7 23742.1 2144.93  11
   0  -1  -7 23894.3 2073.38  10
   0   1  -7 23191.9 1924.00  10
   0   1  -7 22266.0 1996.60  11
   0  -1  -7 22689.1 1711.42  14
   0   1  -8 5500.90 1128.34  11
   0  -1  -8 4360.28 966.052  10
   0  -1   8 5039.99 981.947  12
   0  -1   8 7608.18 1300.62   5
   0   1   8 4349.80 1078.05   5
   0   1   8 5493.17 948.341  12
   0   1  -8 5552.65 1045.41  10
   0  -1  -8 6381.69 1280.39  11
   0   2   1 345870. 2555.70   8
   0   2  -1 345574. 3630.94   8
   0  -2   1 343566. 3929.02   4
   0  -2   1 360127. 3807.66   8
   0   2  -1 358186. 2915.44   9
   0  -2   1 335902. 2698.36   5
   0   2   1 343380. 3727.47  11
   0   2  -1 349158. 3642.69  12
   0   2   1 342756. 3422.42  10
   0   2   1 349773. 2739.60   5
   0  -2  -1 360483. 3024.31   5
   0   2   1 331139. 3886.24   9
   0  -2  -1 352422. 2780.17   8
   0  -2  -1 343889. 3579.81  10
   0  -2  -1 347208. 3225.79   4
   0  -2   1 344940. 2711.92  13
   0   2   1 350587. 3439.73   1
   0   2  -1 348552. 2917.11   5
   0  -2  -1 356228. 3600.58   1
   0   2   2 136338. 2517.88  14
   0   2  -2 128420. 2561.64   5
   0   2  -2 132089. 2545.50   8
   0   2   2 131975. 1434.41   8
   0   2   2 131804. 2794.44  12
   0  -2  -2 131721. 2796.02  10
   0   2   2 129446. 2560.77   9
   0   2  -2 136362. 2546.53  12
   0  -2   2 131683. 2418.42   5
   0  -2   2 142441. 2670.76   4
   0  -2   2 132213. 2602.04  12
   0  -2   2 133625. 1833.29  10
   0  -2   2 137409. 2683.36   8
   0   2   2 135170. 2167.86   1
   0   2   2 134035. 2424.75   5
   0   2   2 133145. 2575.48  11
   0   2   2 131761. 2643.74  10
   0  -2  -2 136669. 2693.21   5
   0  -2  -2 129878. 1792.21   4
   0  -2  -2 134526. 2749.66  11
   0   2   3 58800.4 2035.79  12
   0   2   3 60116.6 1771.19  14
   0   2  -3 59612.1 1944.78   8
   0   2  -3 61117.9 1663.37  10
   0   2  -3 59827.8 1288.00   2
   0  -2   3 57598.0 1951.61   5
   0  -2  -3 54378.0 1999.58  11
   0  -2   3 55773.5 1827.90   4
   0  -2   3 57588.4 1439.57   1
   0  -2  -3 54772.3 2167.79  10
   0  -2   3 60203.1 1977.24  12
   0   2   3 60970.0 2009.71   5
   0  -2   3 59228.3 1608.66  10
   0   2  -4 11696.8 1026.49   8
   0   2   4 14166.1 1483.24   5
   0   2  -4 12486.3 774.090  14
   0  -2  -4 14001.7 1065.67  14
   0   2   4 11008.3 528.748   8
   0  -2  -4 13193.1 1193.69  11
   0  -2  -4 12458.4 1137.36  10
   0   2  -4 10745.3 512.213   2
   0  -2   4 11330.4 967.529   4
   0  -2   4 13372.3 1257.83   5
   0   2  -4 13071.6 943.946  10
   0  -2   4 13012.6 691.501   1
   0  -2  -5 80331.0 2787.59  14
   0  -2   5 69577.8 2874.13   5
   0   2  -5 78251.5 2663.59  10
   0   2   5 74207.7 2935.46   5
   0   2   5 69225.3 1542.04   8
   0   2   5 73061.3 2900.14  12
   0  -2  -5 80530.3 3147.27  11
   0  -2   5 75301.5 2295.85   4
   0   2  -5 75456.3 2190.83  14
   0   2  -5 76837.0 2606.43  11
   0  -2   5 79838.8 2864.75  12
   0  -2   5 67084.7 1471.93   1
   0  -2  -5 75166.2 3172.75  10
   0   2   6 20064.1 1632.98  12
   0  -2  -6 20208.4 1828.02  10
   0   2   6 20861.8 1737.79   5
   0  -2  -6 21834.3 1598.14  14
   0  -2   6 24891.1 1884.21   5
   0   2  -6 19541.1 1298.19  14
   0  -2  -6 22809.1 1914.08  11
   0  -2   6 19575.0 1588.55  12
   0   2  -6 22629.3 1680.91  11
   0   2  -6 24766.3 1724.35  10
   0  -2   7 817.584 452.297  12
   0   2  -7 636.762 343.143  11
   0   2  -7 1131.39 400.487  14
   0  -2   7 175.400 203.190   5
   0   2   7 424.146 299.490   5
   0  -2  -7 607.637 394.591  11
   0   2   7 889.303 415.489  12
   0  -2  -7 399.314 337.174  10
   0   2   8 3468.99 787.957  12
   0  -2   8 3061.77 855.233   5
   0  -2   8 2388.99 714.205  12
   0   2  -8 3166.13 825.970  11
   0   2   8 3560.21 852.848   5
   0  -2  -8 3263.24 971.821  10
   0  -2  -8 3263.13 922.427  11
   0  -3   0 311.243 121.297  10
   0   3   0 465.447 143.505   8
   0   3   0 264.582 94.8426  10
   0  -3   0 94.2255 93.1208   3
   0  -3   0 78.4853 163.066   4
   0  -3   0 668.211 213.538   1
   0   3   0 131.295 159.761   9
   0  -3   0 293.191 178.704   8
   0  -3   1 122962. 1727.89   6
   0  -3  -1 125042. 2418.31  10
   0  -3   1 129718. 2233.18  13
   0   3  -1 122628. 2288.48   9
   0  -3  -1 127682. 2637.31   1
   0  -3   1 130703. 2605.59   1
   0  -3   1 122684. 2591.47   8
   0  -3   1 124957. 1152.26  10
   0   3   1 123693. 1540.64   5
   0  -3   1 128908. 2820.10   4
   0   3  -1 123250. 1867.34  13
   0   3   1 127217. 2664.33   3
   0   3   1 127432. 2220.87  10
   0   3   1 125744. 2718.52   9
   0   3   1 122657. 1744.35   6
   0  -3  -1 123419. 2144.31   8
   0  -3   1 122085. 1529.32   5
   0   3  -1 123719. 2554.73   8
   0   3   1 127221. 2595.99  11
   0   3   1 126355. 2006.32   8
   0  -3  -1 128381. 2475.34   4
   0  -3  -2 68533.9 2223.67  10
   0  -3  -2 70195.1 1982.88   5
   0  -3  -2 70861.6 2258.10  11
   0   3  -2 67986.2 1850.61   5
   0  -3   2 73007.0 1581.00  13
   0   3  -2 70994.1 2143.55   8
   0  -3   2 68767.6 1712.83   5
   0  -3   2 74017.0 2265.44   4
   0   3  -2 71124.1 1431.03   9
   0  -3  -2 74004.1 2073.38   1
   0   3   2 71114.5 1747.98   5
   0  -3   2 70950.6 1143.89  10
   0  -3   2 69609.1 1945.34   1
   0   3   2 71286.8 1319.66   8
   0   3   2 70593.8 1214.79   7
   0  -3  -2 71622.5 1741.25   4
   0   3   3 15664.8 1180.80  12
   0  -3   3 14178.5 948.418   5
   0   3   3 15644.5 840.810   7
   0  -3   3 17183.9 1162.17  12
   0  -3   3 16721.1 759.256  10
   0  -3   3 16637.9 1117.69   4
   0  -3  -3 16807.9 1251.90  10
   0   3  -3 17065.1 1151.16   8
   0   3   3 14477.6 527.099   8
   0  -3  -3 15542.2 754.531   4
   0  -3  -3 17365.1 1246.88  11
   0   3   3 16581.8 1015.95   5
   0  -3   3 16444.2 966.881   1
   0   3  -4-4.06701 95.9400   2
   0   3  -4-478.833 287.774   8
   0  -3   4 173.959 300.677   5
   0  -3   4 245.460 370.255   4
   0   3   4 28.5149 37.9523   8
   0   3   4-174.032 168.000   5
   0  -3  -4-13.2278 288.365  10
   0   3   4 36.3514 51.4359   8
   0  -3   4-56.2196 100.793  10
   0  -3  -4 353.049 284.322  11
   0  -3   4-172.949 153.704   1
   0   3   5 3587.40 627.103   5
   0  -3   5 3150.16 627.900  12
   0  -3  -5 3225.60 732.364  11
   0  -3  -5 3235.36 707.226  10
   0  -3   5 2872.98 584.787   5
   0   3  -5 2781.82 504.099  11
   0   3  -5 2499.01 311.849   2
   0   3  -5 4188.42 524.993  14
   0   3   5 3782.13 665.204  12
   0   3  -5 4157.24 721.860   8
   0  -3   5 3959.72 617.103   4
   0  -3  -6 6766.63 1083.91  10
   0   3  -6 6931.22 755.903  14
   0  -3  -6 6527.41 1065.59  11
   0  -3   6 6477.15 971.252  12
   0  -3   6 6683.02 835.295   4
   0   3   6 5175.75 948.862  12
   0   3   6 7329.73 1004.78   5
   0  -3   6 6582.23 977.467   5
   0   3  -6 5329.54 765.495  11
   0  -3   7 804.205 461.788  12
   0   3  -7 3029.61 606.929  14
   0   3  -7 1382.25 579.200  11
   0  -3  -7 5245.70 1136.31  11
   0   3   7 2897.40 811.499   5
   0   3   7 711.364 447.057  12
   0  -3  -7 4758.67 1002.35  10
   0  -3   7 1974.51 678.091   5
   0  -3   8 2544.13 854.785  12
   0   3   8 2989.42 789.749  12
   0  -3  -8 1792.79 651.677  10
   0   3   8 1982.34 674.050   5
   0  -3  -8 2476.35 818.922  11
   0   3  -8 3357.47 845.484  11
   0  -3   8 2580.49 816.516   5
   0  -4   0 379878. 4859.39   8
   0   4   0 370930. 4561.74   8
   0  -4   0 372343. 3721.44  10
   0   4   1 137964. 1784.52   6
   0   4   1 143956. 1573.63   5
   0  -4  -1 144079. 2737.15   8
   0   4   1 143636. 2575.52  10
   0  -4   1 140405. 1737.13   6
   0   4  -1 142111. 3089.30   8
   0   4   1 146182. 3110.72   3
   0   4  -1 151048. 2973.06   9
   0  -4   1 144043. 1640.89  10
   0   4   1 147681. 2601.32   8
   0  -4  -1 141334. 2837.15  10
   0  -4   1 145494. 3404.80   4
   0  -4   1 140914. 1534.42   5
   0  -4  -1 144833. 3149.06   4
   0   4  -1 145189. 2408.78  13
   0   4   2 136585. 2221.79   8
   0   4  -2 133079. 3262.20   8
   0  -4   2 133055. 3530.00   4
   0  -4   2 132805. 2586.56   6
   0   4   2 130660. 2296.25   5
   0   4   2 137525. 3414.58   3
   0  -4  -2 132758. 3290.54  10
   0   4  -2 139785. 2538.60   9
   0   4   2 124783. 2490.31   6
   0  -4   2 125473. 1380.95  10
   0  -4  -2 133256. 2867.32   4
   0  -4  -2 135078. 2482.34   8
   0  -4   2 132091. 2289.50   5
   0   4   3 19618.5 1409.73  12
   0   4  -3 17770.0 1289.48   8
   0   4   3 18819.5 1087.87   5
   0  -4   3 17520.8 673.410  10
   0   4  -3 18705.8 723.519   9
   0   4   3 17599.6 693.055   8
   0  -4   3 16543.4 1295.70   4
   0  -4  -3 18703.9 1462.25  11
   0   4   3 17683.5 757.723   7
   0  -4  -3 17473.1 1008.93   4
   0  -4   3 17497.9 1051.40   5
   0  -4  -3 18143.5 1369.55  10
   0  -4   4 5402.46 1022.86   4
   0   4   4-167.264 153.738   7
   0  -4  -4 277.645 269.730  10
   0  -4   4 207.978 118.254  10
   0   4  -4 340.088 237.483   8
   0  -4   4 4428.41 934.409   5
   0   4   4 4261.94 984.789  12
   0   4  -4-30.9075 139.918   2
   0   4   4 70.5509 249.242   5
   0  -4  -4 806.547 453.252  11
   0  -4   5 45658.7 2311.50   4
   0   4   5 44307.9 2226.50   5
   0   4  -5 48107.6 1613.37   2
   0  -4   5 43179.9 2209.07   5
   0   4  -5 43517.0 2383.23   8
   0   4   5 43254.2 2369.90  12
   0  -4  -5 45159.6 2634.38  11
   0  -4   5 44394.8 2399.99  12
   0  -4  -5 41924.4 2571.42  10
   0   4  -6 24220.9 1428.12  14
   0  -4   6 24223.6 1836.82   5
   0   4  -6 25503.0 1691.03  11
   0   4   6 23447.5 1875.31  12
   0   4   6 24798.8 1846.54   5
   0  -4   6 26348.8 1800.97   4
   0  -4  -6 25955.5 2197.32  11
   0  -4   6 25877.5 1995.99  12
   0  -4  -6 24776.9 2154.56  10
   0   4  -7-90.6949 162.180  14
   0  -4  -7-27.3706 244.689  10
   0  -4   7 596.477 456.262   5
   0  -4   7-128.472 301.170  12
   0   4  -7 483.932 331.897  11
   0   4   7-285.062 188.938  12
   0   4   7-108.699 226.544   5
   0  -4  -7 493.750 341.887  11
   0   4  -8-137.628 290.874  11
   0  -4   8 380.226 347.724   5
   0   4   8 225.853 356.338   5
   0   4   8 6.72232 255.334  12
   0  -5   0-333.722 344.846   4
   0   5   0-165.169 142.418   8
   0  -5   0-42.3316 99.0090  10
   0  -5  -1 2257.92 408.829  10
   0  -5   1 2112.73 173.688   6
   0   5   1 3171.37 437.621   8
   0  -5   1 1946.37 153.573   5
   0   5   1 2646.19 501.395   3
   0   5  -1 2958.02 394.108  13
   0  -5   1 3860.10 330.420  10
   0   5   1 1900.28 192.660   6
   0   5  -1 2964.98 524.479   8
   0  -5  -1 3309.39 532.875   4
   0  -5   1 3156.68 619.508   4
   0   5   1 2491.84 184.625   5
   0   5   2 10653.5 1045.93   3
   0  -5   2 12161.1 672.336   5
   0  -5   2 9470.54 358.566  10
   0  -5  -2 11437.7 851.128   8
   0   5   2 11438.6 764.607   8
   0  -5  -2 12220.7 987.349   4
   0  -5  -2 11867.0 1045.51  10
   0  -5   2 10550.3 715.397   6
   0   5  -2 12895.7 1098.05   8
   0   5   2 10819.6 640.605   5
   0  -5   2 11165.6 1145.99   4
   0   5   2 10464.7 725.587   6
   0   5  -3 589.074 171.755   9
   0  -5   3 467.469 220.270   5
   0  -5  -3 894.085 389.983  10
   0   5   3 335.904 197.229   3
   0   5  -3 376.266 225.341   8
   0   5   3 446.538 149.625   8
   0   5   3 372.507 159.716   5
   0  -5   3 603.576 376.638   4
   0  -5  -3 711.700 279.076   4
   0  -5  -4 999.357 296.605   4
   0   5  -4 1296.59 544.087   8
   0  -5  -4 954.517 491.199  10
   0  -5   4 344.363 304.213   5
   0   5  -5 437.166 264.494   8
   0   5   5 79.3663 178.552   5
   0   5   5 257.701 250.496  12
   0  -5   5 336.171 307.056   5
   0   5  -5 873.600 258.580   2
   0  -5   5 341.621 227.008   4
   0  -5  -5 73.4885 290.208  11
   0  -5  -5 443.599 334.843  10
   0   5  -6 6049.14 1035.36   8
   0   5   6 5011.90 949.018  12
   0  -5   6 5164.92 892.647   4
   0  -5   6 6088.94 913.111   5
   0  -5  -6 6420.98 1144.85  11
   0  -5  -6 5482.06 1074.12  10
   0   5   6 7161.36 979.415   5
   0   5  -7 1752.41 518.916  11
   0  -5   7 1710.89 536.901   5
   0   5   7 2136.05 596.337   5
   0  -5  -7 3342.53 867.019  10
   0  -5  -7 3460.70 940.013  11
   0   5  -7 2761.81 570.495  14
   0   5   7 1938.22 595.032  12
   0  -6   0 460870. 7415.05   4
   0   6   0 438022. 6061.44  13
   0   6   0 437493. 6172.52   8
   0  -6   0 455615. 5218.63  10
   0  -6  -1 30600.3 1808.29   4
   0   6   1 32764.0 1726.87   3
   0  -6   1 31600.5 1105.56  10
   0   6   1 31313.6 1515.95   8
   0   6  -1 30060.4 1732.88   8
   0  -6   1 31411.2 1994.59   4
   0  -6  -1 31031.7 1603.30  10
   0   6  -1 31082.5 1397.34  13
   0   6   2 1600.45 417.412   3
   0  -6   2 1599.22 555.154   4
   0   6   2 885.711 265.488   8
   0  -6   2 1279.40 227.859   6
   0  -6  -2 1274.96 341.075  10
   0   6   2 1469.32 264.631   6
   0  -6  -2 1775.39 490.277   4
   0  -6   2 1401.26 217.107   5
   0   6  -2 1027.00 371.776   8
   0   6   2 1653.05 229.327   5
   0   6   3 4550.45 798.260   3
   0   6   3 4159.22 463.746   8
   0  -6   3 4628.73 517.420   5
   0   6   3 4680.05 513.600   5
   0  -6   3 4006.91 747.604   4
   0  -6  -3 4063.62 655.518   4
   0   6  -3 4455.37 787.960   8
   0  -6  -3 4430.46 769.188  10
   0  -6   4 19702.6 1830.34   4
   0   6  -4 22360.0 1876.66   8
   0   6   4 19639.2 1287.85   5
   0   6   4 19779.3 1719.93   3
   0  -6  -4 22598.8 1425.89   4
   0  -6   4 21223.7 1300.43   5
   0  -6  -4 19992.3 1825.89  10
   0   6   4 21865.4 1881.77  12
   0   6   5 25801.0 1679.65   5
   0   6  -5 26662.0 1466.06   2
   0  -6  -5 25866.0 2184.24  10
   0  -6   5 23558.7 2023.52   4
   0   6  -5 26511.9 2063.37   8
   0   6   5 24473.7 1964.39  12
   0  -6   5 24537.9 1622.11   5
   0  -6  -6-62.4423 368.093  10
   0   6   6 163.730 239.044  12
   0  -6   6 415.614 388.033   4
   0   6  -6-275.856 244.452   8
   0  -6   6 134.764 245.697   5
   0   6   6-137.676 244.690   5
   0   6  -7 109.817 185.047  14
   0   6   7 121.464 249.493  12
   0   6   7 336.173 343.258   5
   0  -6   7 343.592 314.257   5
   0   6  -7 120.383 251.101  11
   0  -7   0-83.0455 303.111   4
   0  -7   0 100.430 211.753  10
   0   7   0 324.303 273.896  13
   0  -7   0-45.9295 106.532   7
   0   7   0-37.2346 208.426   8
   0  -7  -1 57296.6 2346.24  10
   0   7   1 55095.1 2249.54   8
   0  -7   1 54335.9 2898.91   4
   0   7  -1 58051.2 2095.77  13
   0   7  -1 54446.7 2488.71   8
   0  -7  -1 53677.2 2695.63   4
   0  -7   1 56387.2 1636.28  10
   0  -7   2 2371.64 659.030   4
   0   7   2 2546.27 433.225   8
   0   7  -2 2072.96 547.545   8
   0  -7  -2 2505.79 651.490   4
   0   7   2 2268.00 565.287   3
   0  -7  -2 2899.35 626.917  10
   0  -7   3 21280.3 1942.60   4
   0  -7  -3 21165.0 1739.64  10
   0   7   3 20044.1 1137.58   8
   0  -7  -3 18736.2 1515.51   4
   0   7   3 23082.6 1795.66   3
   0   7  -3 20319.8 1743.45   8
   0   7   4 2744.98 1032.89   3
   0   7   4 2601.37 1158.41  12
   0   7  -4 1157.66 564.805   8
   0  -7  -4 914.429 739.508  10
   0  -7   4 3839.65 991.379   4
   0   7  -5 12474.2 1525.83   8
   0   7   5 10235.1 1359.99  12
   0  -7  -5 10690.1 1454.00  10
   0  -7   5 10667.5 1424.81   4
   0   7  -5 11419.8 1098.59   2
   0   7   5 11065.3 1448.22   3
   0  -7  -6 3308.14 847.219  10
   0  -7   6 2094.81 697.933   4
   0   7   6 2109.03 643.047   3
   0   7   6 2743.12 823.481  12
   0   7  -6 3313.12 809.520   8
   0   7  -7 6417.11 853.843  14
   0   7  -7 7026.00 997.785  11
   0  -8   0 144608. 4955.90   4
   0  -8   0 136649. 3389.10  10
   0   8   0 135746. 4033.38   8
   0   8  -1 6681.28 752.983  13
   0  -8   1 6189.80 1073.58   4
   0  -8  -1 6304.23 1008.80   4
   0  -8  -1 6269.19 821.160  10
   0   8   1 6300.59 817.916   8
   0   8  -1 6047.98 904.198   8
   0  -8  -2 3645.16 719.583  10
   0   8   2 2964.20 642.640   3
   0   8  -2 2853.11 750.034   8
   0  -8   2 2871.67 743.999   4
   0   8   2 3290.91 592.816   8
   0  -8  -2 2976.32 708.139   4
   0   8   3 1721.38 530.856   3
   0  -8  -3 603.984 379.034  10
   0  -8   3 968.292 490.700   4
   0  -8  -3 767.377 391.038   4
   0   8  -3 1340.80 494.302   8
   0   8   4 10195.5 1463.47  12
   0  -8   4 11325.6 1565.71   4
   0  -8  -4 11163.5 1494.18  10
   0   8  -4 13195.4 1563.52   8
   0   8   4 14241.5 1625.10   3
   0  -8   5 8641.93 1447.61   4
   0   8   5 9156.80 1339.57  12
   0   8  -5 10167.9 1446.16   8
   0   8   5 10035.4 1393.16   3
   0   8  -5 9698.47 1015.51   2
   0  -8  -5 8087.41 1345.73  10
   0   8   6-282.432 292.373  12
   0  -8   6-256.898 296.333   4
   0   9   0 363.049 333.027  13
   0  -9   0 374.888 325.333   4
   0   9   0 127.348 315.916   8
   0   9   1 909.973 327.543  13
   0   9  -1 1237.24 366.987  13
   0  -9  -1 977.760 389.143  10
   0  -9  -1 804.989 384.593   4
   0   9   1 266.051 217.029   8
   0  -9   1 2092.88 663.760   4
   0   9  -1 1264.91 533.352   8
   0  -9  -2 960.809 469.544   4
   0  -9  -2 152.518 265.853  10
   0   9  -2 322.645 288.396   8
   0  -9   2 131.692 351.312   4
   0  -9  -3-158.744 403.817   4
   0   9  -3 295.097 287.182   8
   0  -9  -3 433.709 365.942  10
   0  -9   3 323.398 398.753   4
   0   9   3 59.4103 206.732   3
   0   9  -4 143.343 344.460   8
   0   9   4 24.1848 525.716   3
   0  -9  -4 1153.26 628.630  10
   0   9   4 522.667 473.732  12
   0  -9   4 145.558 804.666   4
   0   9   5 183.220 423.750  12
   0  -9   5 497.375 510.728   4
   0  -9  -5 330.857 455.099  10
   0  10   0 1716.34 522.496   8
   0  10   0 1747.23 522.821  13
   0 -10   0 648.379 399.310   4
   0  10  -1 783.378 441.784   8
   0 -10  -1 1414.99 596.319   4
   0  10  -1 1517.73 384.409  13
   0 -10   1 559.755 282.573   4
   0  10   1 1221.17 479.836  13
   0  10   1 1599.62 489.472   8
   0 -10   2 3312.88 905.909   4
   0 -10  -2 4803.33 1048.78   4
   0  10  -2 5117.29 1026.46   8
   0  10  -3 1057.90 581.782   8
   0 -10   3 43.3401 322.557   4
   0 -10  -3 227.688 386.946   4
   0 -10  -3-178.220 318.470  10
   0 -10  -4 528.110 608.721  10
   0 -11   0-255.410 420.936   4
   0  11   0 610.851 380.516  13
   0  11   0 32.1487 211.937   8
   0 -11  -1-727.692 534.572   4
   0  11   1 805.567 572.783  13
   0  11  -1 447.101 323.264   8
   0 -11  -2-673.847 548.932   4
  -1   0   9 273.671 337.877  12
  -1   0   8 13479.4 1458.56  12
   1   0  -8 17934.8 1718.82  14
  -1   0   8 14844.4 1681.77   5
   1   0  -8 16031.5 1854.45  11
  -1   0   7 4417.36 746.574  12
   1   0  -7 4593.00 795.623  14
   1   0  -7 6024.74 995.425  10
  -1   0   7 4333.86 878.089   5
   1   0  -7 4378.84 901.231  11
  -1   0   6 523.736 371.371  12
   1   0  -6 1112.25 380.741  14
  -1   0   6 984.998 484.321   5
   1   0  -6 995.543 385.728  10
   1   0  -6 560.901 345.735  11
   1   0  -5 26846.7 1669.65  11
  -1   0   5 35046.6 2129.68   5
  -1   0   5 29765.5 899.037   2
   1   0  -5 30963.9 1831.21  10
   1   0  -5 28023.6 1551.55  14
  -1   0   5 26051.0 1002.17   9
  -1   0   5 34963.9 1686.71  12
   1   0  -4 85939.4 2019.99   9
  -1   0   4 90778.6 1560.46   2
  -1   0   4 88332.2 1754.33   9
  -1   0   4 86349.0 2289.25  12
   1   0  -4 91227.4 2801.13  10
   1   0  -4 89330.2 2492.30  11
   1   0  -4 85978.5 2416.19  14
  -1   0   4 83077.7 2926.70   5
  -1   0   3 917396. 5102.65   9
   1   0  -3 899876. 6339.39  12
  -1   0   3 918279. 5663.97  11
   1   0  -3 896669. 5784.60   9
   1   0  -3 900771. 6646.64  11
  -1   0   3 891708. 6014.16  12
   1   0  -3 915087. 8352.86   6
   1   0  -2 33215.3 1333.87   6
  -1   0   2 35489.2 967.358  11
  -1   0   2 36360.3 871.789  12
  -1   0   2 35713.8 973.678  14
   1   0  -2 35525.5 1081.64  14
  -1   0   2 39050.7 1348.28  10
   1   0  -2 35921.0 1063.31  11
  -1   0   2 35099.9 889.547   9
   1   0  -2 36006.4 925.785  12
  -1   0   2 37941.3 1354.29   6
   1   0  -2 36784.2 1010.62   9
   1   0  -1 9311.54 427.078   9
   1   0  -1 8857.18 587.568   7
  -1   0   1 9049.42 393.227   9
   1   0  -1 9165.40 573.059   6
   1   0  -1 10073.6 464.585  14
  -1   0   1 8162.51 408.967  11
  -1   0   1 11416.2 610.502   7
  -1   0   1 10765.7 594.406   6
  -1   0   1 9468.74 411.520  14
  -1   0   0 798030. 4824.79   7
   1   0   0 804422. 4268.61   6
   1   0   0 795991. 4866.17   7
  -1   0   0 811478. 4267.18   5
  -1   0  -1 483220. 4058.96   5
   1   0   1 482353. 4597.87   7
   1   0   1 456811. 4076.16  12
  -1   0  -1 477410. 4272.47  12
  -1   0  -1 460299. 3449.27  10
  -1   0  -1 474809. 4586.37   7
   1   0   1 467653. 3928.03   5
   1   0   1 462639. 3585.27   8
  -1   0  -1 471562. 3576.39   8
  -1   0  -2 172695. 2162.90   4
   1   0   2 188608. 3449.28   7
  -1   0  -2 184024. 2347.32   8
  -1   0  -2 185838. 3335.37  12
   1   0   2 189099. 3254.39  12
  -1   0  -2 181381. 3135.18   5
  -1   0  -2 168353. 1267.42   2
  -1   0  -2 184737. 1708.57  14
  -1   0  -2 185485. 2911.72  10
   1   0   2 179965. 3091.74   5
   1   0   2 192528. 2632.78  10
   1   0   2 182216. 2472.12   8
   1   0   3 170.421 102.223   8
   1   0   3 878.886 382.476   5
  -1   0  -3 687.606 202.043   8
  -1   0  -3 550.717 229.535  10
  -1   0  -3 316.974 77.8431   4
  -1   0  -3 649.690 221.157  14
   1   0   4 89025.0 2961.72   5
  -1   0  -4 92632.7 2956.85  10
  -1   0  -4 92387.7 2089.43  14
   1   0   4 89328.5 2936.63  12
  -1   0  -4 92611.8 2732.92  11
   1   0   4 89828.6 2200.86   8
  -1   0  -4 90270.6 2200.36   8
   1   0   5 222973. 5123.76  12
  -1   0  -5 241696. 5291.73  11
  -1   0  -5 233281. 3914.53  14
  -1   0  -5 236827. 5362.51  10
   1   0   5 235785. 5354.95   5
   1   0   6 1910.98 549.047  12
  -1   0  -6 2611.28 636.853  10
  -1   0  -6 1825.18 554.442  11
   1   0   6 2513.98 662.519   5
   1   0   7 5119.94 905.358  12
  -1   0  -7 4723.82 915.461  10
  -1   0  -7 4814.96 993.918  11
   1   0   7 5718.82 1095.51   5
  -1   0  -8-227.522 518.357  10
  -1  -1   9-177.905 431.755  12
  -1   1   9 109.971 211.682  12
   1   1  -8 1459.89 556.082  14
  -1  -1   8 383.941 318.254  12
   1  -1  -8 2581.53 842.039  10
  -1  -1   8 426.941 374.321   5
  -1   1   8-167.117 388.971  12
   1   1  -8 849.615 469.658  11
   1  -1  -8 591.103 521.948  11
  -1   1   8 521.056 440.717   5
   1  -1  -8 1952.36 639.880  14
   1  -1  -7-136.558 215.879  10
   1  -1  -7 86.8191 179.862  11
  -1   1   7 566.770 426.693   5
  -1   1   7 129.954 184.518  12
   1   1  -7 192.688 208.101  14
  -1  -1   7 253.728 353.400   5
   1   1  -7 182.013 218.752  11
  -1  -1   7 80.3018 250.354  12
   1  -1  -7 208.730 195.001  14
  -1  -1   6 77.7225 202.408  12
   1  -1  -6 39.2278 266.495  10
   1   1  -6 79.1693 182.261  11
   1  -1  -6 299.849 291.797  14
   1  -1  -6-179.025 279.644  11
   1   1  -6 345.939 185.646  14
  -1   1   6 48.8077 225.881  12
  -1   1   6-564.143 400.122   5
  -1  -1   6 59.9797 101.598   4
  -1  -1   6 89.1063 217.880   5
  -1  -1   5 8469.11 1429.07   5
   1  -1  -5 748.608 455.434  11
  -1   1   5 6575.99 1396.76   5
   1   1  -5 299.498 366.308  11
   1  -1  -5 154.334 343.772  14
  -1  -1   5 14951.4 1214.10  12
  -1   1   5 7266.02 955.166  12
   1   1  -5 499.797 277.778  14
   1  -1  -5 70.3231 226.193  10
   1  -1  -4 2906.29 502.533  10
  -1  -1   4 3000.66 441.927  12
   1  -1  -4 2831.86 500.162  14
   1   1  -4 2360.58 382.426  14
   1   1  -4 2324.70 267.855   9
  -1   1   4 2261.75 372.385   9
  -1  -1   4 2547.96 529.005   5
  -1  -1   4 2583.82 276.726   2
  -1   1   4 2326.70 503.265   5
   1  -1  -4 1940.59 430.060   9
  -1   1   4 3013.30 423.802  12
   1   1  -4 2793.58 428.330  11
   1  -1  -4 1956.37 393.798  11
   1   1  -3 320954. 3508.47  11
  -1   1   3 314546. 3777.84   9
  -1   1   3 327293. 4911.09   5
  -1  -1   3 311203. 4128.45   8
   1   1  -3 310663. 3594.80  14
   1   1  -3 321643. 3863.57  12
  -1  -1   3 327346. 4540.02  10
  -1   1   3 322047. 3749.52  12
  -1  -1   3 320456. 4812.74   5
   1   1  -3 326977. 2843.28   9
   1  -1  -3 310933. 4348.58  14
  -1  -1   3 323787. 2906.98   2
   1  -1  -3 316889. 4466.30  11
   1  -1  -3 309812. 3993.91  12
   1  -1  -3 305943. 4830.39  10
   1  -1  -3 314382. 4110.28   9
  -1  -1   3 312870. 3823.32  12
   1  -1  -2 565558. 5187.85  11
   1   1  -2 588121. 5501.20   6
   1   1  -2 601028. 3155.32   9
   1  -1  -2 596620. 5534.07   6
  -1  -1   2 618476. 3806.52   2
   1   1  -2 596792. 4124.51  12
   1  -1  -2 573809. 5141.95  14
  -1  -1   2 605541. 5428.02   6
   1  -1  -2 602130. 5020.97   9
  -1   1   2 585952. 3879.48  12
   1   1  -2 614345. 4051.48   2
  -1   1   2 612145. 4927.88  14
  -1   1   2 588952. 5421.19   6
   1   1  -2 594417. 3438.16  11
   1  -1  -2 639949. 5788.62  10
  -1   1   2 624696. 5664.35  10
  -1   1   2 602269. 5023.29  11
  -1  -1   2 602410. 4353.48  12
  -1   1   2 600755. 4745.37   9
   1   1  -2 610430. 4117.30  14
   1  -1  -1 731714. 4560.83   7
  -1  -1   1 729410. 4030.29   2
   1  -1  -1 744517. 4738.98   6
  -1   1   1 735788. 4694.12   9
  -1   1   1 691389. 5105.62  10
   1   1  -1 714838. 4085.74   2
  -1   1   1 755853. 4955.72  14
   1  -1  -1 725362. 5038.98  14
  -1   1   1 731810. 4689.92   7
   1  -1  -1 713957. 4891.50   9
  -1   1   1 698979. 4671.66   6
  -1  -1   1 755864. 5269.06   7
   1   1  -1 741785. 4766.73   6
   1  -1   0 256586. 2203.52  12
  -1   1   0 254495. 2844.94   7
  -1   1   0 251596. 2947.89   4
   1  -1   0 256602. 2853.90   7
  -1   1   0 242061. 2945.32   8
  -1  -1   0 251101. 2384.77   5
   1  -1   0 260147. 2195.66  13
  -1  -1   0 253289. 2789.83   7
  -1  -1   0 249132. 1716.07  11
  -1   1   0 253760. 2179.12  12
  -1  -1   0 260475. 2282.82   2
   1   1   0 257599. 2242.10   2
   1   1   0 259373. 2455.78   6
  -1   1   0 253633. 2319.73   9
  -1   1   0 253477. 2363.94   5
   1   1   0 252665. 2833.64   7
   1  -1   0 255415. 2450.42   6
   1  -1   0 248296. 2445.28   9
   1  -1   1 28784.2 1061.73   4
   1  -1   1 28295.5 717.877   9
  -1   1  -1 31275.7 1035.50   5
  -1  -1  -1 29732.6 1096.86   7
  -1   1  -1 28555.5 1061.35   4
  -1   1  -1 29726.4 1071.69   8
   1   1   1 30131.4 715.658   2
   1  -1   1 27814.3 1069.85   8
  -1  -1  -1 28524.6 875.520  11
   1   1   1 28211.9 983.091   5
  -1   1  -1 30701.9 1069.04  12
   1   1   1 31748.8 1114.87   7
  -1  -1  -1 28585.3 1220.00  12
  -1   1  -1 29559.4 727.686  10
   1  -1   1 29244.3 1034.05  12
  -1  -1  -1 30671.5 1046.32   5
   1  -1   1 28469.1 1196.15   7
   1  -1   1 29901.3 986.277   5
  -1  -1  -1 27091.9 988.844  10
   1   1   1 29981.5 1168.22  12
  -1   1  -2 327400. 3736.94   4
  -1   1  -2 342947. 3581.77  10
   1   1   2 335890. 4483.50   7
  -1  -1  -2 313909. 2212.49   8
   1  -1   2 334452. 4073.20   8
   1  -1   2 337941. 2374.33   9
   1  -1   2 343839. 4263.42  12
   1  -1   2 325962. 3699.22   4
   1   1   2 340692. 4591.51  12
   1   1   2 341448. 2207.01   2
  -1  -1  -2 334425. 4313.15   5
  -1   1  -2 342166. 3915.75   8
  -1  -1  -2 341609. 3901.74  11
  -1   1  -2 341972. 4320.45   5
   1   1   2 341722. 4164.55   5
   1  -1   2 329027. 4104.22   5
  -1  -1  -2 331576. 4237.46  10
  -1   1  -2 347802. 2931.32   1
   1  -1   2 332914. 3121.44  10
   1   1   2 336643. 2546.86  14
  -1  -1  -3 65925.2 2080.89  11
   1   1   3 71483.2 2556.81  12
  -1   1  -3 60353.1 1810.48   8
  -1   1  -3 61982.9 1243.92  14
   1  -1   3 61379.8 1679.44   4
  -1   1  -3 64818.2 1965.58  10
  -1  -1  -3 65729.3 2264.94  10
   1  -1   3 62207.8 2161.20   5
   1  -1   3 61589.3 1931.93   8
   1   1   3 74659.4 1335.90  14
   1   1   3 60095.3 2130.91   5
   1   1   3 62088.7 1252.96   8
  -1  -1  -3 49680.5 881.046   1
  -1  -1  -3 61592.1 1188.86   8
   1  -1   3 65717.7 1686.28  10
  -1   1  -3 65031.7 1669.12   4
   1   1   4 64061.4 1496.66   8
  -1   1  -4 65583.0 2344.36  10
  -1   1  -4 67084.5 2267.63  11
   1   1   4 68326.0 2598.54  12
  -1  -1  -4 68079.3 2542.10  11
  -1   1  -4 60999.4 1570.39  14
  -1  -1  -4 66059.6 2652.39  10
  -1  -1  -4 67922.4 1905.28  14
   1  -1   4 65758.2 2445.96  12
   1   1   4 68384.1 2571.86   5
  -1   1  -4 69308.6 2207.58   8
   1  -1   4 69755.3 2593.43   5
   1   1   4 62234.7 1332.92  14
  -1  -1  -5 1715.70 530.366  10
  -1  -1  -5 1501.20 475.602  11
   1   1   5 1606.96 483.753  12
   1  -1   5 703.537 254.086  12
  -1   1  -5 1614.51 446.124  10
  -1  -1  -5 976.971 276.749  14
   1   1   5 1448.57 438.870   5
   1  -1   5 1142.11 154.583   9
  -1   1  -5 1938.12 430.704   8
  -1   1  -5 785.739 223.877  14
  -1   1  -5 1246.71 394.092  11
   1  -1   5 1331.73 428.098   5
   1  -1   6 7008.42 1050.25   5
  -1   1  -6 6754.78 960.889  10
  -1   1  -6 6660.21 972.664  11
   1   1   6 6146.98 984.787  12
   1  -1   6 6564.21 971.232  12
   1   1   6 8593.51 1147.13   5
  -1  -1  -6 7792.13 1125.14  10
  -1  -1  -6 7709.33 1148.29  11
  -1  -1  -7 1735.64 666.228  11
   1  -1   7 2012.56 648.738   5
  -1   1  -7 2403.36 678.813  10
  -1   1  -7 1376.70 539.755  11
   1  -1   7 1195.15 431.863  12
  -1  -1  -7 2269.15 662.102  10
   1   1   7 2123.94 631.433   5
   1   1   7 1334.56 482.523  12
  -1  -1  -8 53.3627 275.671  10
  -1   2   9 2335.91 687.023  12
   1   2  -9 3541.32 967.216  11
  -1  -2   9 3247.19 883.140  12
  -1   2   8 11082.2 1456.90   5
   1  -2  -8 11732.2 1726.75  10
   1  -2  -8 12532.1 1514.26  14
  -1   2   8 10398.9 1267.94  12
   1   2  -8 11524.7 1363.88  14
   1   2  -8 12151.2 1563.53  11
  -1  -2   8 8427.28 1216.79  12
  -1  -2   8 11056.6 1456.10   5
   1  -2  -8 12463.7 1806.07  11
  -1   2   7 849.475 394.563  12
   1   2  -7 578.423 326.999  11
   1  -2  -7 990.811 475.436  11
   1  -2  -7 864.151 416.745  10
   1  -2  -7 695.521 327.652  14
  -1  -2   7 945.715 465.553   5
  -1  -2   7 979.409 384.935  12
  -1   2   7 809.194 528.643   5
   1   2  -7 644.372 275.988  14
  -1   2   6 36.7586 237.417   5
  -1  -2   6 339.332 134.135   4
  -1   2   6 32.3579 232.600  12
  -1  -2   6 27.2558 255.555   5
   1  -2  -6 515.193 294.418  11
   1   2  -6 514.330 264.575  11
   1   2  -6 377.397 289.651  14
  -1  -2   6-6.11194 169.305  12
   1  -2  -6 329.025 313.726  14
   1  -2  -6 109.020 262.655  10
  -1   2   5 5041.32 692.202   1
   1   2  -5 2859.61 536.320  14
   1  -2  -5 2507.16 694.765  11
  -1  -2   5 30339.7 2038.38   5
   1  -2  -5 1585.62 548.600  14
   1  -2  -5 2218.82 630.226  10
   1   2  -5 2644.25 488.650  11
  -1   2   5 30271.6 2097.64   5
  -1   2   5 839.335 261.739   4
   1   2  -4 19893.2 1045.98  11
   1  -2  -4 18469.6 1409.34  10
   1  -2  -4 20025.7 1358.39  14
   1   2  -4 16738.5 885.935   2
  -1   2   4 18008.3 828.062   4
   1  -2  -4 18384.4 1325.14  11
  -1  -2   4 20033.2 1197.30  12
   1   2  -4 17895.8 1017.49  14
  -1  -2   4 17320.8 1337.49   5
  -1   2   4 19853.0 1401.28   5
  -1   2   4 18068.5 1135.08  12
   1   2  -4 14966.1 507.163   9
   1   2  -3 142969. 1494.77   9
  -1   2   3 142849. 2419.35   4
   1   2  -3 150938. 2413.02   2
   1  -2  -3 140022. 3235.73  14
   1  -2  -3 145009. 3471.29  10
  -1   2   3 145944. 3321.74   5
  -1  -2   3 142276. 3210.01   5
  -1   2   3 133521. 2730.05  12
   1  -2  -3 147258. 3356.28  11
   1   2  -3 154034. 2254.97  11
  -1  -2   3 152476. 2957.66  10
  -1  -2   3 140452. 2909.48  12
   1  -2  -3 128846. 3181.49   9
  -1   2   2 52254.4 1622.60   6
   1  -2  -2 54580.9 1767.01   9
  -1   2   2 54822.8 1748.32  14
  -1  -2   2 53193.9 1664.03   8
   1   2  -2 54281.2 1532.80  12
   1  -2  -2 53697.2 1805.93  14
  -1   2   2 56309.7 1751.97  11
  -1   2   2 54465.4 1535.26   4
   1   2  -2 53715.1 1669.95   6
   1  -2  -2 53397.8 1687.09   6
   1  -2  -2 54944.0 1786.88  10
  -1  -2   2 52134.6 1614.30   6
  -1   2   2 53738.5 1697.01   9
  -1   2   2 56228.5 1804.03  10
  -1   2   2 51657.7 1313.66   7
   1   2  -2 59201.4 1391.83   2
  -1   2   1 803842. 4356.73   7
   1  -2  -1 830239. 6197.30   4
  -1   2   1 789082. 5538.71   3
  -1   2   1 776973. 6269.21  14
   1  -2  -1 782074. 5019.34   6
  -1   2   1 821658. 5551.47  10
   1  -2  -1 753602. 5868.46  10
   1  -2  -1 801155. 4509.38   7
   1   2  -1 785103. 3290.32  13
  -1   2   1 830795. 6208.82   4
  -1   2   1 802254. 5945.86   9
  -1   2   1 829953. 6043.19   8
   1   2  -1 772552. 4978.44   2
   1  -2  -1 804461. 6235.40   9
  -1  -2   1 814965. 5639.98   8
  -1  -2   1 796498. 5993.28   7
  -1  -2   1 850119. 5076.22   6
  -1   2   1 787032. 4908.29   6
   1   2  -1 804020. 5006.99   6
  -1   2   0 511606. 4135.01  12
  -1   2   0 513701. 3769.99  13
  -1   2   0 512844. 4993.66   4
   1   2   0 537402. 3543.43   6
  -1   2   0 482461. 3314.22   5
  -1   2   0 507800. 4893.60   8
  -1  -2   0 524703. 3390.79   5
  -1  -2   0 515800. 4099.47   7
   1   2   0 522672. 3405.32  11
   1   2   0 536778. 3793.91   3
   1  -2   0 524408. 4204.19  13
   1  -2   0 515600. 3487.01   6
  -1  -2   0 514996. 3773.63   8
  -1   2   0 510909. 4223.64   7
   1   2   0 532496. 3882.86   2
   1   2   0 509497. 4279.19   7
   1  -2   0 506324. 5075.84   8
   1  -2   0 497077. 5005.42   4
   1  -2   0 516544. 4326.90   7
  -1   2   0 520046. 4299.32   9
   1  -2   0 513949. 4476.64   9
  -1   2  -1 3617.70 305.633   9
  -1   2  -1 3835.54 354.195   5
   1  -2   1 2980.11 375.485  12
  -1  -2  -1 3321.10 366.268  11
  -1   2  -1 3849.32 462.758   8
  -1   2  -1 4020.81 424.671   1
  -1  -2  -1 3570.55 370.018   5
   1   2   1 4131.91 372.885  11
   1   2   1 3564.21 358.052   7
   1   2   1 2886.33 322.588   5
  -1   2  -1 3300.33 368.542  12
   1  -2   1 2856.91 442.952   7
   1  -2   1 3084.56 440.823   4
  -1  -2  -1 3049.05 386.944  10
   1  -2   1 3300.80 427.959   8
  -1   2  -1 3832.74 460.837   4
  -1   2  -1 2672.73 195.527  10
   1  -2   1 3674.97 353.241   5
  -1  -2  -1 3594.13 244.512   8
  -1  -2  -1 3431.15 353.837   7
   1  -2   1 4062.29 366.208   9
   1  -2   2 139936. 2867.63  12
  -1   2  -2 142799. 2341.68   1
   1  -2   2 132636. 2613.67   5
   1   2   2 140092. 2646.81   5
  -1  -2  -2 138863. 2796.10   5
  -1   2  -2 140146. 2799.32   5
   1   2   2 136543. 2718.59   7
   1  -2   2 134149. 2812.42   4
  -1  -2  -2 139240. 3006.47  10
   1   2   2 140900. 3237.13  12
  -1   2  -2 135847. 1980.18  10
  -1   2  -2 143879. 2846.14   4
  -1  -2  -2 137992. 2807.18  11
   1   2   2 140998. 2266.03  14
  -1   2  -2 143164. 2977.79   8
   1   2   2 137332. 1902.92   2
   1  -2   2 135650. 1878.57   9
   1   2   3 53394.3 1989.93   5
   1  -2   3 57253.8 1392.10  10
  -1  -2  -3 56967.4 1424.53   1
   1  -2   3 55276.5 2050.38   5
  -1  -2  -3 56896.1 2233.48  10
  -1   2  -3 56180.6 1667.31  10
   1   2   3 53504.2 1090.82   2
  -1  -2  -3 55490.9 2076.24  11
   1  -2   3 52715.6 1878.82   4
  -1   2  -3 56997.2 2000.71   8
   1  -2   3 55292.2 1085.03   9
  -1   2  -3 57791.0 1898.87   4
   1   2   3 55653.8 1496.85  14
   1   2   4 56850.4 964.373   2
   1  -2   4 58348.5 929.304   9
   1   2   4 67182.0 1671.85  14
   1  -2   4 67599.3 2186.64   4
  -1   2  -4 55771.7 1039.35   2
  -1  -2  -4 71759.2 2735.45  11
  -1   2  -4 73240.7 2459.57   8
   1  -2   4 74120.0 2666.09   5
   1   2   4 70160.0 2777.29  12
  -1   2  -4 67179.2 1627.36  14
  -1   2  -4 70884.9 2226.63  10
   1  -2   4 70438.5 2604.90  12
  -1  -2  -4 69946.8 2849.24  10
   1   2   4 73968.5 2661.43   5
   1   2   5 84548.7 3285.20  12
  -1  -2  -5 86743.9 3464.11  11
  -1   2  -5 89979.8 2981.13   8
   1   2   5 88847.9 3246.03   5
   1  -2   5 79708.6 2416.02   4
   1  -2   5 87762.8 3257.07   5
  -1  -2  -5 87938.4 3608.47  10
   1  -2   5 83560.4 3144.20  12
  -1   2  -5 81666.4 2735.59  10
  -1   2  -5 81064.2 2114.23  14
   1   2   6 1083.84 449.929  12
   1   2   6 2285.35 648.118   5
  -1   2  -6 1188.31 389.403  11
  -1  -2  -6 2579.53 744.334  11
  -1   2  -6 1783.94 548.133   8
   1  -2   6 1255.54 495.417  12
   1  -2   6 1999.16 535.203   5
  -1   2  -6 2381.86 583.567  10
  -1  -2  -6 2542.46 749.051  10
   1  -2   7-638.160 398.091   5
   1   2   7 65.4100 214.368  12
   1   2   7-96.0968 294.735   5
   1  -2   7-147.059 187.728  12
  -1  -2  -7 286.512 413.217  11
  -1   2  -7-485.450 412.538  11
  -1  -2  -7 457.434 324.602  10
  -1  -2  -8 1095.22 609.691  10
  -1   3   8 7602.99 1278.33   5
  -1   3   8 7730.57 1160.28  12
  -1  -3   8 8590.63 1266.64   5
   1   3  -8 8314.38 1143.83  14
  -1  -3   8 6625.16 1145.13  12
   1  -3  -8 8239.57 1409.70  11
   1  -3  -8 8314.31 1440.12  10
   1   3  -8 10095.1 1418.17  11
   1  -3  -7 85.5777 399.793  10
  -1  -3   7 41.7184 250.322  12
   1  -3  -7-265.403 371.343  11
  -1  -3   7 334.595 292.157   5
   1   3  -7 457.879 325.453  14
   1   3  -7 196.678 284.292  11
  -1   3   7-1.35378 222.376  12
  -1   3   7 545.675 391.916   5
  -1  -3   6 30536.1 1966.91  12
   1  -3  -6 33545.2 2320.14  11
  -1   3   6 29901.7 1919.16  12
   1   3  -6 27690.6 1621.16  14
   1   3  -6 31773.2 1824.62  11
  -1   3   6 27467.1 2031.86   5
  -1  -3   6 30633.4 1763.60   4
   1  -3  -6 29822.6 2283.04  10
  -1  -3   6 29722.6 2055.42   5
   1  -3  -5 4276.06 866.625  11
  -1   3   5 22460.4 1543.55  12
  -1  -3   5 24907.7 1710.01  12
  -1  -3   5 21433.2 1678.75   5
   1  -3  -5 3371.28 778.698  10
  -1   3   5 16864.0 1655.98   5
   1   3  -5 4600.97 615.409  11
  -1   3   5 7250.37 836.446   1
   1   3  -4 51532.4 828.233   9
  -1   3   4 55279.3 2041.88   1
  -1  -3   4 53918.3 2307.44   5
   1   3  -4 58260.9 1728.32   2
  -1   3   4 53230.2 2070.81  12
  -1   3   4 57097.8 2374.19   5
   1  -3  -4 51581.8 2441.90  10
   1  -3  -4 56456.3 2470.43  11
  -1   3   4 53346.2 1611.94   4
  -1   3   3 75520.1 2034.87   8
  -1   3   3 85708.9 2516.81   5
  -1  -3   3 79927.4 2384.52   5
   1   3  -3 79972.0 2000.32   2
   1  -3  -3 76793.6 2672.23  10
  -1   3   3 73340.8 1782.59   7
  -1  -3   3 86483.3 2183.36  10
  -1   3   3 80956.3 2415.89   1
  -1   3   3 82377.9 2070.66   4
   1  -3  -3 75467.3 2799.96   9
  -1   3   3 74861.6 2356.68  12
   1   3  -2 11634.9 731.126   2
  -1   3   2 9216.06 829.029   3
  -1   3   2 10334.5 849.361   1
   1  -3  -2 9884.45 777.951   4
   1  -3  -2 9353.93 798.397  10
  -1  -3   2 10881.5 562.992  13
   1   3  -2 10225.3 760.804   6
  -1   3   2 10351.5 733.950   8
  -1   3   2 10585.9 535.469   7
   1  -3  -2 10082.1 880.321   9
  -1   3   2 10420.4 742.760   6
  -1   3   2 10700.9 775.044   4
   1   3  -2 11090.8 873.281   8
   1  -3  -2 9920.10 745.867   6
  -1  -3   2 11099.1 733.356   6
  -1   3   1 327835. 4403.06   9
  -1   3   1 333489. 4451.95   4
   1  -3  -1 326596. 3252.55   6
  -1   3   1 317282. 4635.79   1
  -1   3   1 326043. 4204.35   8
  -1  -3   1 326610. 4077.02   7
   1  -3  -1 331189. 4485.13   8
  -1   3   1 322125. 2727.49   7
  -1  -3   1 313991. 4002.43   8
   1  -3  -1 320999. 2751.48   7
  -1   3   1 324978. 3816.72  10
  -1  -3   1 331637. 3005.72   6
   1  -3  -1 326214. 3897.33  10
   1   3  -1 316124. 4139.24   8
   1   3  -1 312210. 2946.86  13
  -1   3   1 317955. 4010.32   3
   1  -3  -1 330706. 4591.32   4
   1  -3  -1 303933. 4637.35   9
   1  -3  -1 325092. 4266.31   3
  -1   3   1 322571. 3041.35   6
   1   3  -1 323607. 3191.01   6
   1  -3   0 192483. 3217.27   9
   1   3   0 202687. 2840.31   3
  -1   3   0 191909. 2811.21  13
  -1   3   0 195458. 3495.51   1
  -1   3   0 196870. 3523.49   4
  -1  -3   0 201827. 2802.41   8
  -1   3   0 192290. 3386.92   8
   1  -3   0 193886. 3553.72   8
   1  -3   0 195679. 2984.89   3
   1  -3   0 193965. 2162.82   6
   1  -3   0 185620. 3532.04   4
  -1  -3   0 204711. 2144.33   5
  -1  -3   0 212877. 2793.43  10
   1  -3   0 197929. 2814.65   7
  -1  -3   0 198977. 2989.28   3
   1   3   0 202185. 2699.80  11
   1   3   0 195733. 2775.50   7
  -1   3   0 191873. 2129.62  10
   1   3   0 202111. 2207.12   6
  -1  -3   0 192904. 2651.53   7
  -1   3   0 195512. 3122.58   9
  -1   3   0 200984. 2078.27   5
   1  -3   1 15777.8 1140.06   4
  -1   3  -1 18097.1 862.427   9
   1   3   1 16785.2 985.782   3
  -1   3  -1 18169.7 1106.16   8
  -1  -3  -1 18291.7 696.601   8
   1  -3   1 17164.9 787.205   5
  -1  -3  -1 16753.2 767.545   7
   1   3   1 17963.4 807.528   7
  -1   3  -1 17914.0 1047.55   1
   1   3   1 17163.8 788.910   5
   1  -3   1 16366.6 1008.77   7
   1   3   1 18275.0 914.654  11
  -1  -3  -1 17480.0 973.784  10
  -1   3  -1 18168.4 816.002   5
  -1  -3  -1 18961.6 1029.05  11
   1  -3   1 15508.5 911.359   9
  -1  -3  -1 17289.6 813.863   5
   1   3   2 273.985 182.146  12
   1  -3   2 257.782 113.032   9
   1  -3   2 247.401 204.201   4
  -1   3  -2 352.314 116.423   9
   1  -3   2-157.461 161.084  12
  -1  -3  -2 416.069 222.489  11
  -1   3  -2 224.104 131.247   5
   1  -3   2 302.112 188.232   5
  -1  -3  -2 338.001 174.520  10
  -1   3  -2 349.523 71.8171  10
   1   3   2 232.223 102.550   5
   1   3   2 376.171 141.115   7
  -1   3  -2 184.645 99.9945   1
  -1  -3  -3 24152.0 1155.34   1
   1  -3   3 20212.8 1372.40   4
  -1   3  -3 23297.9 1408.42   8
  -1  -3  -3 22045.2 849.017   4
   1  -3   3 38310.3 1834.34  12
   1   3   3 39209.6 2045.87  12
   1  -3   3 24068.9 1297.34   5
   1   3   3 25320.3 1361.38   5
  -1  -3  -3 23612.1 1530.56  10
  -1   3  -3 24190.5 911.660  10
   1   3   3 22242.0 1199.73   7
   1  -3   3 21808.8 778.579   9
  -1  -3  -3 23007.7 1439.10  11
  -1  -3  -4 147.362 204.316  11
   1  -3   4 161.056 195.358   4
   1  -3   4 19.2831 202.880   5
   1   3   4 208.258 292.571  12
   1  -3   4 431.907 178.704  12
  -1   3  -4 63.5227 171.556  10
   1   3   4 44.8294 82.8321   2
   1   3   4-151.275 199.611   5
  -1   3  -4 67.1882 213.090   8
  -1  -3  -4 732.884 393.935  10
   1  -3   4 162.400 89.5323  10
  -1   3  -5 574.510 290.763   8
  -1  -3  -5 960.822 465.122  10
   1  -3   5 475.532 241.983   4
  -1  -3  -5 682.774 437.139  11
   1   3   5 523.581 334.030   5
   1  -3   5 329.369 271.987   5
  -1   3  -5 408.822 194.569  10
  -1   3  -5 422.721 165.178  14
   1  -3   5 381.497 287.920  12
   1   3   5 422.829 301.072  12
  -1  -3  -6 3110.09 957.642  10
  -1   3  -6 1778.71 521.001  11
  -1  -3  -6 3275.05 861.482  11
   1  -3   6 2511.42 688.253  12
   1   3   6 2560.68 725.306   5
   1  -3   6 2404.97 698.956   5
   1   3   6 1231.31 483.418  12
  -1   3  -6 3444.44 768.648   8
  -1  -3  -7 764.268 404.082  10
   1   3   7 700.954 382.915  12
  -1   3  -7 654.659 330.717  11
   1   3   7 979.973 426.450   5
   1  -3   7 954.743 473.377  12
   1  -3   7 897.679 338.385   5
  -1  -3  -7 935.189 567.654  11
  -1  -4   8 7813.73 1201.98   5
   1   4  -8 7388.00 1148.83  11
   1   4  -8 8292.57 1132.62  14
  -1   4   8 7774.40 1220.64   5
  -1   4   8 6022.71 977.885  12
   1  -4  -8 9606.84 1589.71  11
   1  -4  -8 7601.60 1468.96  10
  -1   4   7 5410.75 914.762  12
   1   4  -7 5918.48 839.919  14
   1  -4  -7 6579.88 1216.73  10
   1  -4  -7 5917.80 1105.83  11
   1   4  -7 6967.74 965.293  11
  -1   4   7 6758.15 1070.56   5
  -1  -4   7 5649.35 951.529   5
   1  -4  -6-414.749 354.953  10
   1   4  -6 334.132 269.435  11
  -1  -4   6 23.8947 190.744   4
  -1   4   6 101.363 170.547  12
   1   4  -6 77.0243 147.461  14
  -1   4   6 80.3214 198.988   5
   1  -4  -6 55.8982 193.705  11
  -1  -4   6 238.299 323.379   5
  -1  -4   5 49804.3 2604.38   4
  -1   4   5 17688.8 1037.83   8
   1  -4  -5 17877.0 1636.94  11
  -1  -4   5 51645.3 2664.47   5
  -1   4   5 36621.8 2501.77   5
   1   4  -5 19236.7 1252.99   2
  -1   4   5 43284.2 2264.70  12
   1  -4  -5 18601.9 1808.82  10
  -1   4   5 28917.8 1947.96   1
   1   4  -4 10230.0 582.029   9
  -1   4   4 10879.9 858.070   4
  -1   4   4 13017.7 1093.51   5
  -1   4   4 10460.8 1057.39  12
  -1   4   4 9590.82 725.071   7
   1   4  -4 11379.8 842.970   2
  -1  -4   4 10306.1 999.259   5
  -1   4   4 11320.5 806.739   8
   1  -4  -4 11853.6 1222.19  10
  -1   4   4 11516.8 992.917   1
   1  -4  -3 8976.62 945.831  10
  -1  -4   3 8182.55 594.323  13
  -1  -4   3 8514.46 790.998   5
   1  -4  -3 8262.32 775.397   4
  -1   4   3 7870.00 511.337   7
   1   4  -3 8541.33 955.047   8
  -1   4   3 8576.77 705.916   8
  -1   4   3 8000.21 818.845   1
  -1   4   3 8726.36 825.441   5
   1   4  -3 8052.23 698.378   2
  -1   4   2 2565.43 194.626   7
  -1   4   2 2768.51 483.159   3
  -1   4   2 3159.58 492.671   1
   1   4  -2 3194.77 546.427   8
   1  -4  -2 2640.11 545.092   9
  -1   4   2 3293.40 443.643   8
   1  -4  -2 3148.58 530.672   4
  -1  -4   2 3335.36 378.193   6
   1  -4  -2 2909.47 491.340  10
  -1   4   2 2525.46 365.871   6
   1   4  -1 447543. 3675.37   6
  -1   4   1 454988. 6057.43   1
   1  -4  -1 454093. 3727.94   6
  -1   4   1 418085. 5189.25   3
   1   4  -1 448719. 5483.39   8
   1   4  -1 438561. 4182.34  13
   1  -4  -1 446531. 3272.61   7
  -1  -4   1 441840. 5178.51   7
   1  -4  -1 467896. 6205.10   4
  -1   4   1 448374. 5444.40   8
   1  -4  -1 431311. 4967.31  10
  -1   4   1 445958. 4686.00  10
  -1  -4   1 439136. 3273.39   6
   1  -4  -1 478361. 6261.32   9
  -1   4   1 437361. 3394.37   6
   1   4   0 281701. 3823.34  11
   1  -4   0 268634. 4825.30   4
  -1  -4   0 279234. 3861.73   8
  -1  -4   0 264728. 3314.88   7
  -1   4   0 275010. 2699.33  10
   1  -4   0 267784. 3491.11   7
  -1   4   0 271430. 4437.07   8
  -1   4   0 267899. 4556.57   1
  -1   4   0 276816. 2364.13   5
  -1   4   0 266503. 3870.65  13
   1   4   0 279894. 3891.34   8
   1  -4   0 266988. 2513.98   6
  -1  -4   0 280448. 2487.84   5
  -1  -4   0 277887. 3622.35  10
   1   4   0 282702. 2613.78   6
   1  -4   0 260103. 4380.59   9
  -1   4  -1 7496.86 648.609   9
   1   4   1 7060.33 715.025   3
  -1   4  -1 6608.23 490.945   5
  -1  -4  -1 6857.48 518.620   5
  -1  -4  -1 7584.20 550.400   8
  -1  -4  -1 7191.52 698.893  10
   1  -4   1 8285.14 877.131   4
   1   4   1 6447.55 482.295   5
  -1  -4  -1 7965.19 506.673   7
   1   4   1 7291.71 527.400   7
  -1   4  -1 7332.70 740.988   1
   1  -4   1 7071.94 502.072   5
  -1   4  -1 7831.97 801.253   8
   1  -4   1 5468.62 644.371   9
  -1   4  -2 40418.9 1308.75   9
  -1   4  -2 38525.9 1870.39   8
  -1  -4  -2 38531.1 1009.69   8
   1   4   2 39349.2 1384.09   5
   1  -4   2 36139.3 1359.83   5
   1  -4   2 36144.0 1955.13   4
   1  -4   2 32541.9 1401.75   9
  -1   4  -2 36163.0 1528.28   5
   1   4   2 36200.1 1245.26   7
  -1  -4  -2 39054.2 1836.11  10
  -1  -4  -2 38207.4 1824.73  11
  -1   4  -3 44857.5 1036.15   9
   1  -4   3 55661.2 2374.49  12
  -1  -4  -3 51363.7 2335.75  11
  -1  -4  -3 47874.3 1576.48   4
   1  -4   3 47641.6 2336.66   4
  -1   4  -3 49321.6 2251.21   8
   1   4   3 46150.1 1805.31   5
   1   4   3 50313.1 2476.66  12
   1   4   3 45197.0 1596.21   7
  -1  -4  -3 48406.5 2340.60  10
   1  -4   3 45426.5 1813.61   5
  -1   4  -4 35507.8 2019.94   8
  -1  -4  -4 27878.7 970.366   4
   1  -4   4 32107.3 1925.82   4
   1  -4   4 35292.9 2069.56  12
  -1  -4  -4 36021.0 2161.73  11
   1   4   4 34350.2 1785.26   5
   1   4   4 29865.8 2048.99  12
   1  -4   4 33338.4 1749.42   5
  -1  -4  -4 35667.8 2241.48  10
   1  -4   5 25335.0 1731.22   5
   1   4   5 24579.3 1991.43  12
  -1   4  -5 27924.8 1935.98   8
   1   4   5 26763.2 1753.01   5
   1  -4   5 25056.6 1891.76  12
  -1  -4  -5 24853.3 2005.10  11
  -1  -4  -5 26675.0 2148.17  10
   1  -4   5 24588.0 1761.42   4
   1  -4   6 2113.53 669.290  12
   1   4   6 1184.81 498.344  12
  -1   4  -6 2211.05 632.590   8
  -1  -4  -6 2674.50 847.551  11
  -1  -4  -6 2279.06 727.076  10
  -1   4  -6 2061.00 533.561  11
   1   4   6 1544.29 527.120   5
   1  -4   6 1220.22 516.997   5
   1   4   7 705.776 333.181  12
   1  -4   7 1492.98 614.401  12
   1  -4   7 1387.53 516.013   5
  -1  -4  -7 2110.12 710.619  11
   1   4   7 2297.87 625.535   5
  -1   4  -7 2073.94 644.853  11
  -1  -4  -7 876.765 513.776  10
   1   5  -8 972.401 354.691  14
  -1  -5   8 674.141 378.508   5
   1   5  -8 1338.24 548.486  11
  -1   5   8 910.667 395.368   5
  -1   5   8 791.978 556.209  12
   1  -5  -7 821.240 501.773  10
   1   5  -7 636.771 318.578  14
  -1   5   7-90.1537 283.280  12
  -1  -5   7 449.845 364.058   5
  -1   5   7 326.319 329.594   5
   1   5  -7 360.192 348.001  11
  -1   5   6 9080.36 1124.22   5
  -1  -5   6 6775.52 970.632   5
   1   5  -6 10036.5 998.740  14
  -1  -5   6 8681.67 1165.35   4
  -1   5   6 8453.17 1142.76  12
   1  -5  -6 8341.77 1341.35  10
   1   5  -6 9455.39 963.817  11
  -1   5   5 3087.75 657.396   1
   1   5  -5 323.765 394.462   2
  -1  -5   5 6111.78 1102.44   5
  -1   5   5 4689.85 885.889   5
  -1   5   5 6499.60 973.716  12
   1  -5  -5 840.763 528.139  10
  -1  -5   5 4443.85 967.765   4
  -1  -5   4 3689.25 750.646   4
  -1   5   4 2576.71 310.890   7
  -1   5   4 3983.41 500.729   8
  -1   5   4 2756.05 665.104  12
   1   5  -4 3622.37 690.347   8
  -1  -5   4 2927.85 421.488  10
  -1   5   4 3489.56 592.561   1
  -1   5   4 3952.23 644.572   5
  -1  -5   4 3893.99 624.713   5
   1  -5  -4 3027.48 669.166  10
   1   5  -4 3900.76 578.249   2
  -1  -5   3 28892.9 1412.82   5
  -1   5   3 28626.6 1395.10   8
   1  -5  -3 27957.7 1647.31   4
  -1   5   3 30375.8 1451.39   5
   1  -5  -3 28813.5 1824.12  10
  -1   5   3 31340.2 1777.04   1
  -1   5   3 31182.1 1917.30   3
   1   5  -3 30057.8 1472.18   2
   1   5  -3 31345.7 1873.92   8
  -1  -5   2 5279.22 502.156   5
  -1   5   2 5120.97 709.584   3
   1   5  -2 5281.08 733.463   8
   1  -5  -2 5601.04 732.170   4
  -1   5   2 5487.88 642.436   8
  -1   5   2 5437.78 511.000   5
   1  -5  -2 5950.98 746.390  10
  -1   5   2 5247.33 705.496   1
  -1  -5   2 5985.22 510.639   6
  -1   5   2 6091.24 536.234   6
   1  -5  -1 102414. 1687.65   6
  -1  -5   1 99115.4 2560.70   7
   1  -5  -1 92835.7 1495.56   7
  -1   5   1 96485.2 2249.25  10
   1  -5  -1 98377.9 3168.38   4
  -1   5   1 96593.4 2744.86   8
  -1   5   1 95267.9 3029.00   1
   1   5  -1 91302.7 2231.71  13
   1   5  -1 98447.2 1643.68   6
   1   5  -1 97055.3 2794.64   8
   1  -5  -1 96127.5 2471.50  10
  -1   5   1 86171.2 1344.98   6
  -1  -5   1 97252.3 2057.36  10
   1  -5  -1 110646. 3417.47   9
   1   5   0 107.968 168.936   8
   1   5   0 182.211 89.3704   6
   1  -5   0 68.2279 62.6835   6
  -1   5   0-2.05639 174.152   8
   1  -5   0-131.058 128.758   7
   1  -5   0 72.2082 99.6499  10
   1  -5   0 162.714 281.948   9
  -1   5   0 52.0733 68.6902  10
  -1  -5   0 240.266 185.102  10
  -1   5   0-44.5453 211.590   1
   1  -5   0-34.9558 227.483   4
  -1  -5   0-51.4389 56.2222   5
  -1  -5   0 29.9495 119.099   7
  -1   5   0 4.10278 43.1999   5
  -1   5   0 162.066 156.278  13
  -1  -5  -1 7628.78 545.142   5
  -1  -5  -1 7823.99 768.789  10
   1  -5   1 8193.41 951.681   4
   1   5   1 8415.60 698.102   8
  -1   5  -1 7363.80 855.078   8
  -1  -5  -1 7569.81 669.515   8
  -1   5  -1 7071.80 523.929   5
   1  -5   1 7607.88 537.353   5
   1  -5   1 5197.43 822.488   9
   1   5   1 7578.36 527.807   5
  -1  -5  -1 7288.57 480.245   7
   1   5   1 8146.46 820.769   3
   1   5   2 6190.94 556.520   5
  -1  -5  -2 6528.92 817.970  10
  -1   5  -2 7100.10 874.667   8
  -1  -5  -2 6822.25 750.401   4
  -1  -5  -2 5211.99 603.217   5
   1  -5   2 6147.60 574.220   5
   1   5   2 5392.51 468.083   7
  -1   5  -2 4482.26 586.198   5
  -1  -5  -2 6388.26 521.098   8
   1   5   2 6668.92 808.591   3
   1  -5   2 6671.82 879.381   4
  -1  -5  -3 5128.04 644.157   4
  -1   5  -3 4649.95 418.637   9
  -1  -5  -3 5512.87 871.914  10
   1   5   3 8302.10 1335.02  12
   1  -5   3 4906.42 632.237   5
   1   5   3 5371.00 584.794   5
  -1  -5  -3 5109.99 813.402  11
  -1   5  -3 4535.49 785.380   8
   1   5   3 4363.57 469.968   7
   1  -5   3 7764.87 1145.19   4
   1  -5   4 5421.25 960.482   4
   1   5   4 7265.18 801.015   5
  -1  -5  -4 7019.26 1053.51  11
   1  -5   4 5608.21 751.156   5
  -1  -5  -4 6263.54 977.117  10
  -1   5  -4 5216.43 855.227   8
   1   5   4 5464.52 898.040  12
   1  -5   5 619.233 332.069   5
   1  -5   5 637.093 417.126   4
  -1  -5  -5 964.389 374.277  10
  -1   5  -5 562.765 499.349   8
  -1  -5  -5 459.437 438.373  11
   1   5   5 874.395 531.049  12
   1   5   5 443.873 246.710   5
   1   5   6 252.912 191.012   5
   1   5   6 214.757 306.044  12
  -1   5  -6 424.284 361.453   8
  -1  -5  -6 15.4416 229.842  10
   1  -5   6 121.860 200.837   5
  -1  -5  -6 627.212 521.317  11
   1   5   7 249.215 347.041  12
   1  -5   7-391.959 196.603   5
  -1   5  -7 77.4505 246.997   8
   1   5   7-4.14451 279.892   5
  -1   5  -7 49.8581 246.247  11
   1   6  -8 4072.38 796.483  14
  -1   6   8 5543.64 1101.87   5
  -1  -6   8 2842.71 900.047   5
  -1   6   7 696.896 465.358  12
   1   6  -7 952.809 374.203  11
   1   6  -7 742.491 327.962  14
  -1   6   7 364.616 336.171   5
  -1  -6   7 314.572 244.470   5
   1  -6  -7 332.529 343.589  10
  -1   6   6 312.740 226.061   5
  -1   6   6 584.295 355.738  12
  -1  -6   6 274.574 226.761   4
  -1  -6   6 169.369 156.298   5
   1  -6  -6 453.967 444.029  10
  -1  -6   5 1620.36 606.035   4
  -1  -6   5 2159.45 560.595   5
   1   6  -5 559.855 258.705   2
  -1   6   5 2004.61 640.125  12
  -1   6   5 2029.00 628.705   5
  -1   6   5 2319.95 759.704   3
   1  -6  -5 120.819 234.432  10
  -1  -6   4 9698.21 1214.00   4
  -1  -6   4 7499.51 782.095   5
   1  -6  -4 8495.29 969.369   4
  -1   6   4 8487.19 776.567   8
  -1   6   4 8315.05 1146.76   3
  -1   6   4 9243.10 897.556   5
   1   6  -4 8866.48 1115.06   8
  -1   6   4 8460.79 1092.48  12
   1  -6  -4 7489.52 1060.67  10
   1   6  -4 8233.47 840.475   2
  -1   6   3 58308.1 2627.99   1
  -1   6   3 59418.7 2131.71   8
   1   6  -3 61149.0 2790.46   8
  -1  -6   3 55922.9 1825.87   5
   1  -6  -3 56820.6 2577.24   4
  -1   6   3 60060.7 1922.59   5
   1  -6  -3 57755.3 2665.65  10
  -1   6   3 63240.6 2922.12   3
  -1  -6   3 62927.1 3049.91   4
  -1  -6   2 1608.81 230.355   6
  -1   6   2 1767.46 278.952   6
  -1   6   2 1304.14 366.943   3
  -1  -6   2 1144.88 210.431   5
   1  -6  -2 1517.69 447.993   4
  -1   6   2 1566.62 473.755   1
  -1  -6   2 1429.38 516.350   4
  -1   6   2 1388.75 242.838   5
   1   6  -2 1184.29 402.313   8
   1  -6  -2 2146.93 473.885  10
  -1   6   2 1775.40 377.147   8
  -1  -6   2 1481.53 243.798  10
  -1  -6   1 63.2702 44.7624   5
  -1   6   1 100.623 224.977  13
  -1   6   1 160.388 171.240   8
   1  -6  -1 795.884 384.806  10
   1   6  -1 471.342 317.753   8
   1   6  -1 51.7910 161.138  13
   1  -6  -1 435.938 600.660   4
  -1   6   1 70.3501 45.8726   5
  -1  -6   1-66.7369 118.160   7
  -1  -6   1 2.12914 27.9690   5
  -1   6   1 352.691 309.242   1
  -1   6   1 15.8462 44.0620   5
  -1  -6   1-288.389 273.474   4
  -1  -6   1 327.728 178.534  10
  -1   6   0 60337.9 2453.92   8
  -1  -6   0 63052.7 2716.81   4
  -1   6   0 59808.3 2172.22  13
  -1  -6   0 59313.6 2069.29  10
   1   6   0 60615.7 2240.12   8
   1  -6   0 53968.8 1763.73   7
   1  -6   0 58526.9 1639.95  10
   1  -6   0 55741.2 2729.74   4
  -1   6   0 60283.6 1357.08  10
  -1  -6   0 53652.1 1653.95   7
   1  -6   1 42729.8 2419.67   4
   1   6   1 41854.9 1725.75   8
  -1   6  -1 42251.5 2189.99   8
  -1   6  -1 37812.7 1161.42   5
  -1  -6  -1 38068.2 1202.15   5
   1  -6   1 39243.4 1076.94   6
  -1  -6  -1 39974.9 1113.66   7
   1   6   1 41767.5 1094.94   6
  -1  -6  -1 42286.8 1983.04  10
  -1  -6  -1 42596.4 2160.14   4
   1   6   1 43362.9 1996.08   3
   1  -6   2 9214.73 679.717   5
  -1  -6  -2 9124.75 982.072   4
   1   6   2 8683.74 628.220   5
   1  -6   2 9656.72 1214.26   4
  -1   6  -2 10152.5 1092.89   8
  -1  -6  -2 8240.72 695.212   8
  -1  -6  -2 8411.58 767.329   5
   1   6   2 9073.26 995.481   3
  -1  -6  -2 10371.5 1099.13  10
  -1  -6  -3 916.834 1111.67  10
   1  -6   3 731.391 609.005   5
  -1  -6  -3 255.892 204.673   4
   1   6   3 2365.92 1233.45   3
   1   6   3 395.617 207.204   5
  -1   6  -3 616.617 393.707   8
   1  -6   4 11292.9 1431.00   4
  -1   6  -4 12584.9 1435.97   8
   1   6   4 13229.9 1067.58   5
   1  -6   4 13027.0 1087.14   5
   1   6   4 12130.1 1409.96  12
  -1  -6  -4 12173.8 1429.86  10
  -1   6  -5 49491.5 2935.84   8
   1  -6   5 44277.9 2790.67   4
   1   6   5 44091.1 2200.02   5
  -1  -6  -5 42838.9 3010.51  10
  -1  -6  -5 46042.2 2903.43  11
   1   6   5 38797.9 2738.41  12
   1  -6   5 41823.3 2206.94   5
  -1  -6  -6 516.519 437.726  10
   1   6   6 264.864 305.465  12
  -1   6  -6 563.489 393.459   8
  -1  -6  -6 392.389 361.638  11
   1   6   6 505.447 283.737   5
   1  -6   6 242.476 230.997   5
   1  -6   7 507.408 334.692   5
  -1   6  -7 927.468 525.254   8
   1   6   7 800.861 472.666   5
  -1   7   7-4.60561 296.488  12
   1   7  -7 328.689 252.321  14
  -1   7   6 63.2509 247.484   3
   1  -7  -6-871.240 601.746  10
  -1  -7   6-337.352 472.632   4
  -1   7   6-140.234 223.339  12
   1  -7  -5 1892.82 661.055  10
  -1   7   5 4209.37 992.252   3
  -1  -7   5 2624.70 853.726   4
   1   7  -5 1590.85 540.202   2
  -1   7   5 2495.00 700.729  12
  -1   7   4 9655.75 1279.30  12
  -1  -7   4 11208.3 1381.51   4
   1   7  -4 10313.2 1307.40   8
   1  -7  -4 10872.1 1166.79   4
   1   7  -4 10578.8 1051.41   2
   1  -7  -4 9370.00 1286.25  10
  -1   7   4 11713.5 1426.67   3
  -1   7   3 7725.49 1055.36   3
   1   7  -3 8508.38 1096.27   8
  -1   7   3 7918.35 843.820   8
   1  -7  -3 8991.35 1124.13   4
   1  -7  -3 7952.81 1053.39  10
  -1  -7   3 8329.65 1172.19   4
  -1   7   2 37416.4 2133.92   3
  -1  -7   2 35685.3 2354.28   4
   1   7  -2 37197.2 2193.71   8
   1  -7  -2 35090.6 2213.00   4
  -1   7   2 36794.1 1887.99   8
   1  -7  -2 34691.8 1982.61  10
  -1  -7   2 37400.6 1356.34  10
  -1  -7   1 28953.1 2106.00   4
   1  -7  -1 30639.2 2125.37   4
   1   7  -1 29392.6 1835.30   8
  -1   7   1 29211.0 1782.17   8
  -1   7   1 28371.6 1793.47  13
  -1  -7   1 29530.9 1545.13   7
   1   7  -1 25834.8 1415.77  13
  -1  -7   1 27226.8 1350.02  10
   1  -7  -1 25829.2 1511.01  10
  -1  -7   0 41491.7 2383.09   4
  -1   7   0 39889.0 1904.22  13
  -1  -7   0 39445.2 1824.87  10
   1  -7   0 41791.8 2534.19   4
   1   7   0 38595.8 1974.38   8
  -1   7   0 41225.3 2201.95   8
  -1  -7   0 35276.5 1362.18   7
   1  -7   0 38899.8 1425.40  10
  -1   7  -1 1258.57 402.622   8
  -1  -7  -1 1493.95 455.098   4
   1  -7   1 710.541 450.956   4
   1   7   1 999.295 365.268   3
   1   7   1 1692.46 430.556   8
  -1  -7  -1 1135.63 329.621  10
  -1  -7  -2 30550.8 1974.65   4
   1  -7   2 28712.0 2331.55   4
  -1   7  -2 29762.6 2077.46   8
  -1  -7  -2 29063.3 1962.71  10
   1   7   2 29933.3 1918.39   3
   1   7   3 1777.79 682.003   3
  -1  -7  -3 850.099 400.892   4
   1  -7   3 968.352 535.078   4
  -1  -7  -3 775.237 452.329  10
  -1   7  -3 457.246 430.903   8
   1  -7   4 23801.5 2209.37   4
  -1   7  -4 27720.8 2191.47   8
   1   7   4 23173.7 2141.40  12
  -1  -7  -4 26307.0 2264.62  10
   1   7   4 26084.5 2110.70   3
  -1   7  -5 661.868 481.770   8
   1   7   5-725.659 516.297  12
   1   7   5 273.790 360.020   3
   1  -7   5 331.766 363.236   4
  -1  -7  -5-209.317 260.072  10
  -1   7  -6 5324.48 1063.71   8
   1   7   6 5050.16 1062.89  12
  -1  -8   6 343.330 365.337   4
   1  -8  -6-336.381 330.857  10
  -1   8   6 398.817 315.463  12
  -1   8   5 1942.76 711.479   3
  -1  -8   5 676.627 562.771   4
   1   8  -5 684.538 333.011   2
  -1   8   5 595.145 445.024  12
   1  -8  -5 155.212 376.911  10
  -1  -8   4 3035.04 806.380   4
  -1   8   4 3460.67 784.040   3
   1   8  -4 3603.67 824.531   8
   1  -8  -4 3125.59 706.713  10
   1   8  -4 3766.68 684.913   2
   1  -8  -4 2940.62 718.490   4
  -1  -8   3 23098.6 2035.67   4
   1   8  -3 21844.5 1915.86   8
  -1   8   3 22482.4 1539.98   8
   1  -8  -3 20624.1 1862.86   4
   1  -8  -3 21129.4 1779.85  10
  -1   8   3 22532.8 1882.70   3
  -1  -8   2 321.230 392.699   4
  -1   8   2-29.6530 154.582   8
   1  -8  -2 112.994 243.345  10
   1  -8  -2-84.9452 263.987   4
  -1  -8   2 92.1066 223.813   7
   1   8  -2 56.7958 300.999   8
  -1   8   1 859.405 395.777  13
   1   8  -1 903.076 382.064   8
  -1   8   1 438.357 229.192   8
   1  -8  -1 778.272 497.325   4
  -1  -8   1 1059.73 456.265   4
   1   8  -1 289.136 168.952  13
  -1  -8   1 1111.63 360.789   7
   1  -8  -1 884.962 321.082  10
  -1  -8   1 889.167 266.611  10
  -1  -8   0 19726.0 1778.54   4
  -1   8   0 17652.9 1361.39  13
   1   8   0 19948.7 1545.28   8
   1  -8   0 18666.8 1840.65   4
  -1   8   0 18112.9 1565.31   8
   1   8   0 20702.9 1547.85  13
  -1  -8   0 18871.6 1380.00  10
  -1  -8  -1 18221.0 1708.20   4
  -1  -8  -1 17995.8 1499.51  10
   1  -8   1 20476.5 1962.33   4
  -1   8  -1 17420.8 1614.57   8
   1   8   1 17917.3 1388.29   8
   1  -8   2 1512.89 577.717   4
  -1   8  -2 2222.63 584.080   8
  -1  -8  -2 2678.22 716.010   4
  -1  -8  -2 2407.71 604.567  10
   1   8   2 2141.43 564.839   3
   1   8   3 4043.04 943.709   3
  -1   8  -3 1908.51 701.699   8
  -1  -8  -3 1344.75 469.694   4
  -1  -8  -3 1867.39 1047.86  10
   1  -8   3 2791.63 876.295   4
   1   8   4 4119.84 986.585  12
  -1  -8  -4 3675.15 857.250  10
   1  -8   4 4528.54 1073.92   4
   1   8   4 4170.73 906.599   3
  -1   8  -4 4534.43 964.929   8
  -1  -8  -5 17653.3 2121.96  10
  -1   8  -5 20003.3 2069.64   8
   1  -8   5 14930.1 1991.03   4
   1   8   5 15982.2 1893.29  12
   1   8   5 14266.3 1747.33   3
   1  -8   6-44.3840 362.126   4
  -1   9   6 2085.04 675.835  12
   1  -9  -5 104.842 286.064  10
  -1   9   5 1227.07 768.861  12
   1   9  -5 648.613 362.614   2
  -1  -9   5 457.483 682.528   4
   1   9  -4 207.232 215.752   2
  -1  -9   4 478.935 472.371   4
   1   9  -4 69.7379 291.268   8
  -1   9   4 328.458 251.666   3
   1  -9  -4 273.272 500.382  10
   1  -9  -3 1381.69 484.549   4
  -1  -9   3 1803.36 698.457   4
  -1   9   3 633.439 380.126   3
   1   9  -3 1135.64 488.588   8
   1  -9  -3 1160.08 529.566  10
  -1  -9   2 471.783 379.677   4
   1  -9  -2 606.048 243.951   4
   1   9  -2-105.449 238.438   8
  -1   9   2-366.162 256.064  13
  -1   9   2-46.6459 259.896   8
   1   9  -1 10797.9 1037.06  13
  -1  -9   1 12621.3 1596.72   4
   1   9  -1 11928.6 1375.33   8
  -1   9   1 11064.9 1243.17   8
  -1   9   1 10824.0 1292.41  13
   1  -9  -1 10901.9 1463.11   4
   1   9   0 245.963 224.095   8
  -1   9   0 131.625 253.202   8
  -1  -9   0-301.107 321.517   4
  -1   9   0 511.399 257.111  13
   1  -9   0 48.9422 234.020   4
   1   9   0-350.429 282.249  13
  -1  -9  -1 453.711 276.025   4
  -1   9  -1 421.380 321.996   8
   1   9   1 267.789 149.149   8
   1  -9   1 583.166 461.905   4
  -1  -9  -1 634.367 401.369  10
  -1   9  -2-210.247 358.173   8
  -1  -9  -2-175.506 325.315   4
   1  -9   2-20.3548 246.393   4
  -1  -9  -2 142.293 253.844  10
   1   9   3 165.167 278.793   3
  -1   9  -3 181.087 247.118   8
  -1  -9  -3-322.607 217.304  10
   1  -9   3-213.886 392.526   4
   1   9   4 2192.66 662.806   3
   1   9   4 1699.11 641.130  12
  -1   9  -4 1186.95 582.942   8
   1  -9   4 1169.66 546.265   4
  -1  -9  -4 2341.81 809.629  10
   1  10  -4 709.885 305.299   2
   1 -10  -4-338.364 438.291  10
   1 -10  -3 255.936 241.706   4
   1  10  -3 42.0130 311.489   8
  -1 -10   3-109.300 293.811   4
  -1 -10   2 589.078 375.405   4
   1  10  -2-125.441 324.500   8
   1 -10  -2 99.6558 276.384   4
  -1  10   2-504.209 336.439  13
  -1  10   1 11309.9 1310.16  13
  -1 -10   1 15005.6 1868.30   4
   1  10  -1 12981.1 1516.08   8
  -1  10   1 13608.1 1481.68   8
   1 -10  -1 13327.6 1762.42   4
   1  10  -1 11475.4 1130.23  13
  -1 -10   0 4490.68 978.101   4
   1  10   0 6326.33 951.687   8
  -1  10   0 4859.59 779.118  13
   1 -10   0 5355.75 1139.45   4
  -1  10   0 5721.12 997.311   8
   1  10   0 5352.50 871.586  13
  -1 -10  -1 1310.85 569.217   4
  -1  10  -1 113.230 260.812   8
   1 -10   1 754.185 544.827   4
   1  10   1 306.872 286.770  13
  -1  10  -2 970.318 447.012   8
  -1 -10  -2 218.835 244.812   4
   1 -10   2 1547.78 759.637   4
  -1 -10  -2 1157.58 470.035  10
   1  10   3 2771.76 677.250   3
  -1 -10  -3 1258.77 512.819  10
   1 -11  -3 1037.99 601.603   4
   1  11  -2 2223.40 666.110   8
   1 -11  -2 1856.50 683.890   4
   1  11  -1 3118.90 770.286   8
  -1  11   1 3511.47 820.535   8
   1  11  -1 2710.83 599.485  13
   1 -11  -1 4696.91 1178.91   4
   1  11   0 831.464 308.546  13
  -1  11   0 819.138 360.713   8
  -1  11   0 1637.36 534.723  13
  -1 -11   0 2087.43 667.040   4
   1  11   1 2.16050 264.425  13
  -1  11  -1-520.400 398.057   8
  -1 -11  -1-177.665 342.247   4
  -1 -11  -2 726.565 311.774   4
   2   0  -9 45.2100 221.557  14
   2   0  -9-111.869 448.398  11
  -2   0   8 4701.55 1009.82   5
  -2   0   8 3472.68 664.003  12
   2   0  -8 4145.57 856.875  14
   2   0  -8 4095.18 893.359  11
  -2   0   7 4662.25 706.255  12
  -2   0   7 4227.82 920.077   5
   2   0  -7 4285.32 834.205  11
   2   0  -7 4506.44 832.187  14
   2   0  -6 1711.51 505.008   9
   2   0  -6 2507.82 699.583  14
   2   0  -6 3547.64 757.569  11
   2   0  -5 41225.8 1708.17   9
  -2   0   5 37922.2 1564.58  12
   2   0  -5 40412.0 1933.11  11
  -2   0   5 36282.0 2157.94   5
   2   0  -5 36950.0 1901.03  14
   2   0  -4 727.155 204.212   9
   2   0  -4 697.087 364.757   6
   2   0  -4 844.049 294.285  14
  -2   0   4 835.496 216.487  12
   2   0  -4 851.214 280.464  11
   2   0  -4 488.532 174.092  12
   2   0  -3 94071.9 2766.92   6
   2   0  -3 96566.0 2209.42   9
   2   0  -3 98315.5 2219.38  11
  -2   0   3 92112.5 2673.45   7
   2   0  -3 94726.2 1632.75  12
  -2   0   3 99820.4 1974.17  11
   2   0  -3 93312.0 2424.92  14
  -2   0   3 93441.0 1592.08  12
  -2   0   3 98364.0 1899.18   9
   2   0  -2 23475.9 1314.67   7
   2   0  -2 22843.3 965.009   9
  -2   0   2 21111.2 851.033   9
   2   0  -2 22241.1 1031.02  14
  -2   0   2 23516.2 1210.40   6
  -2   0   2 23992.9 1312.69   7
  -2   0   2 20727.7 848.225  11
  -2   0   2 21148.0 846.539  14
   2   0  -2 18389.8 1237.24   6
   2   0  -1 9484.20 700.466   6
  -2   0   1 9011.25 797.944   7
   2   0  -1 9960.31 392.452  12
  -2   0   1 11499.4 530.207  14
   2   0  -1 10059.8 578.410  14
   2   0  -1 10305.6 432.580  13
   2   0  -1 10153.3 611.221   9
   2   0  -1 9672.69 790.445   7
  -2   0   1 10899.8 724.009   6
  -2   0   0 351700. 2191.87  14
   2   0   0 348093. 2769.42  14
  -2   0   0 346978. 4577.18   7
   2   0   0 344598. 3428.81  12
   2   0   0 348917. 4664.97   7
  -2   0   0 359057. 3773.82  12
   2   0   0 349108. 4199.16   6
  -2   0   0 351428. 4013.07   5
   2   0   1 272482. 3808.78  12
  -2   0  -1 277221. 4525.81   7
  -2   0  -1 268871. 3780.03   8
   2   0   1 274677. 3894.02   5
  -2   0  -1 281471. 4096.44  12
  -2   0  -2 516917. 3783.96   2
  -2   0  -2 530456. 5253.48   8
  -2   0  -2 509153. 5280.81   4
   2   0   2 501047. 5989.53   5
  -2   0  -2 515352. 6858.58   7
   2   0   2 519444. 6182.14  12
  -2   0  -2 514733. 5382.90  10
   2   0   3 5212.98 707.458   5
  -2   0  -3 4654.81 517.657   4
   2   0   3 5144.59 722.916  12
  -2   0  -3 3919.12 281.025   2
  -2   0  -3 5182.88 616.297  11
  -2   0  -3 5025.81 523.388   8
  -2   0  -3 5098.89 604.945  10
   2   0   4 997.917 382.209  12
  -2   0  -4 1880.28 336.173   8
  -2   0  -4 1746.36 435.963  11
   2   0   4 1047.27 367.815   5
  -2   0  -4 1586.65 453.504  10
   2   0   5 10361.7 1239.37   5
   2   0   5 9682.73 1178.98  12
  -2   0  -5 12211.4 1251.30  11
  -2   0  -5 12022.3 1288.16  10
   2   0   6 6750.94 1074.93  12
  -2   0  -6 8260.31 1173.84  11
  -2   0  -6 7711.92 1118.99  10
   2   0   6 7280.37 1159.02   5
   2   0   7 3974.61 977.682   5
  -2   0  -7 4494.31 985.886  11
  -2   0  -7 3556.92 825.232  10
   2   0   7 2011.07 689.923  12
   2  -1  -9 4057.24 1062.01  11
   2   1  -9 2112.52 666.106  11
   2   1  -9 3286.37 859.971  14
   2  -1  -9 3086.70 855.808  14
   2  -1  -8 543.520 370.162  14
   2  -1  -8 994.087 464.345  11
   2   1  -8 729.577 404.999  14
  -2   1   8 546.444 335.960  12
  -2   1   8 777.724 560.749   5
  -2  -1   8 215.751 294.775   5
   2   1  -8 571.488 316.022  11
  -2  -1   8 845.672 371.830  12
   2   1  -7 3892.97 769.314  14
  -2  -1   7 2536.32 702.548   5
   2  -1  -7 2388.26 578.422  14
  -2  -1   7 2000.87 529.009  12
  -2   1   7 3174.75 584.348  12
  -2   1   7 4033.58 914.227   5
   2   1  -7 3278.84 723.093  11
   2  -1  -7 2400.59 652.361  11
   2  -1  -6 16125.9 1460.46  14
  -2   1   6 16064.4 1151.33  12
  -2   1   6 17336.8 1653.80   5
  -2  -1   6 16604.3 1609.75   5
   2   1  -6 14998.5 1368.14  14
   2  -1  -6 16783.4 1493.46  11
   2   1  -6 17171.4 1389.04  11
  -2  -1   6 13694.1 1190.96  12
   2   1  -6 16071.9 980.252   9
   2  -1  -6 14311.1 1311.57   9
   2  -1  -5 21810.5 1376.64   9
   2   1  -5 19790.0 1075.04   9
   2  -1  -5 19963.8 1464.48  14
  -2   1   5 20215.5 1610.08   5
  -2  -1   5 19111.3 1576.98   5
   2   1  -5 19095.1 1266.89  11
   2   1  -5 19383.9 1336.81  14
  -2   1   5 22705.3 1195.28  12
   2  -1  -5 21042.1 1495.64  11
  -2  -1   5 18488.6 1172.17  12
   2   1  -4 12476.4 1159.13   6
   2   1  -4 11496.9 747.477   9
   2   1  -4 12008.6 819.090  12
   2  -1  -4 12218.3 1025.45  11
  -2  -1   4 11178.7 821.602  12
  -2   1   4 9137.79 929.455   7
  -2   1   4 12380.3 726.109  12
   2   1  -4 10680.6 873.257  14
   2  -1  -4 11370.6 812.733  12
   2  -1  -4 13658.4 1152.55  14
   2  -1  -4 14204.5 1106.57   9
   2   1  -4 11438.7 827.753  11
   2  -1  -4 14910.8 1348.16   6
   2  -1  -3 4054.91 532.585   9
  -2  -1   3 4661.44 316.894  11
   2   1  -3 3792.59 442.531  14
   2   1  -3 4288.55 606.988   6
   2  -1  -3 3890.30 594.137   6
  -2  -1   3 4579.54 649.489   7
   2   1  -3 5003.59 420.390  12
  -2   1   3 4777.56 326.260  12
  -2   1   3 3313.80 539.249   7
   2   1  -3 4653.25 426.955  11
  -2   1   3 4434.29 484.576  11
   2   1  -3 4057.47 394.206   9
   2  -1  -3 4769.99 590.292  14
   2  -1  -2 117.520 136.222   9
  -2  -1   2 167.870 175.950   6
  -2   1   2 95.4767 118.634   6
  -2   1   2 48.8069 86.0372   9
   2   1  -2 117.769 114.898   9
   2   1  -2-120.751 135.673   6
   2  -1  -2 247.548 132.609   6
   2   1  -2 349.700 143.770  14
   2  -1  -2-83.3910 123.984  14
  -2   1   2 255.567 211.589   7
  -2  -1   2 96.0299 52.1594  11
  -2  -1   2-4.24482 185.348   7
   2  -1  -2-32.8420 121.633   7
  -2  -1   2 259.865 120.651   2
   2  -1  -1 37179.6 1159.97  13
  -2   1   1 40873.1 1235.45   9
   2   1  -1 39613.6 1003.29  14
   2  -1  -1 37236.8 1306.29  14
  -2   1   1 40638.1 1251.63  14
  -2  -1   1 41526.2 1250.01   2
  -2   1   1 41774.3 1007.70  13
  -2   1   1 39698.7 742.673  12
  -2   1   1 38032.2 1489.87   7
  -2  -1   1 38084.2 1549.87   7
   2   1  -1 40806.5 1649.77   7
   2  -1  -1 39464.0 1512.35   7
  -2  -1   1 41954.3 1386.72   6
  -2   1   1 38452.1 1369.06   6
   2   1  -1 40817.8 1459.62   6
   2  -1  -1 41481.6 1451.08   6
   2  -1  -1 38110.4 1317.12   9
   2  -1   0 119927. 2167.95   9
  -2   1   0 127125. 1978.32  14
  -2  -1   0 123958. 2348.43   5
  -2   1   0 122129. 2768.22   8
   2   1   0 126751. 1399.12  14
   2   1   0 126692. 2451.28  12
   2  -1   0 118323. 2772.21   7
  -2  -1   0 130128. 2120.76   2
  -2  -1   0 122264. 2714.78   7
  -2   1   0 128406. 2094.48  12
  -2   1   0 122884. 2343.49   5
  -2   1   0 122166. 2761.44   7
   2   1   0 125590. 2806.75   7
   2   1   0 128830. 2510.31   6
   2  -1   0 125008. 2515.86   6
   2  -1   0 124972. 1956.42  12
  -2   1  -1 8817.29 754.241   8
  -2   1  -1 10070.7 813.693   4
  -2  -1  -1 9418.23 558.668  11
   2   1   1 9329.77 759.183  12
  -2   1  -1 10051.4 766.778  12
  -2   1  -1 9492.96 454.603  14
  -2   1  -1 8690.23 802.896   7
  -2  -1  -1 10500.2 874.624   7
   2  -1   1 8853.24 669.724  12
  -2  -1  -1 10895.3 605.415   2
   2  -1   1 9613.72 589.312   9
   2  -1   1 9034.57 732.337   5
   2   1   1 9424.85 730.127   5
   2  -1   2 149888. 2285.38   9
  -2   1  -2 142660. 3022.32   4
  -2   1  -2 147145. 3125.51   8
  -2  -1  -2 147796. 2448.89   8
  -2  -1  -2 142547. 3528.45   7
   2  -1   2 139526. 3292.00  12
   2   1   2 145698. 3165.21   5
   2  -1   2 147725. 3172.82   5
   2   1   2 153826. 3589.25  12
  -2  -1  -2 144491. 2124.22   2
  -2  -1  -2 144624. 2702.72  11
  -2  -1  -2 146322. 3097.99  10
  -2   1  -2 139865. 2597.79  10
   2  -1   3 10440.0 593.496   9
  -2   1  -3 9460.87 797.672   4
  -2   1  -3 9684.19 836.789   8
  -2  -1  -3 9906.09 668.784   4
  -2   1  -3 9327.92 408.541  14
   2   1   3 9948.35 908.191   5
   2  -1   3 10681.9 943.496   5
   2  -1   3 9105.80 895.927  12
  -2  -1  -3 10605.1 634.015   8
  -2  -1  -3 11274.9 910.750  11
  -2   1  -3 9591.00 838.331  10
  -2  -1  -3 9957.45 966.775  10
   2   1   3 10488.3 1069.87  12
   2  -1   4 39901.8 1207.12   9
  -2   1  -4 41779.0 1127.84  14
  -2  -1  -4 41656.8 1295.37   8
  -2   1  -4 41870.1 1794.19   8
   2   1   4 41055.4 2053.49   5
   2  -1   4 40446.8 2050.71   5
   2   1   4 39203.1 2203.56  12
  -2   1  -4 43315.0 1911.35  11
  -2  -1  -4 42932.7 2105.29  11
   2  -1   4 39731.7 2120.75  12
  -2   1  -4 41962.0 2018.67  10
  -2  -1  -4 40637.9 2206.02  10
  -2  -1  -5 1931.02 713.979  10
   2   1   5 1525.72 537.755  12
   2   1   5 2070.17 587.662   5
  -2   1  -5 2399.07 487.866   8
   2  -1   5 1464.86 467.493  12
  -2  -1  -5 2432.60 643.194  11
  -2   1  -5 2274.23 517.552  11
   2  -1   5 2068.63 563.775   5
  -2   1  -5 1753.58 617.741  10
  -2   1  -6 1403.98 416.074  10
   2  -1   6 2296.80 629.274  12
   2  -1   6 2510.51 667.800   5
   2   1   6 2635.16 685.202   5
  -2  -1  -6 2319.46 614.336  11
   2   1   6 1777.03 623.181  12
  -2   1  -6 2810.56 686.218  11
  -2  -1  -6 2959.95 809.875  10
  -2  -1  -7 4956.35 1057.24  10
   2  -1   7 7083.66 1183.74  12
  -2  -1  -7 7801.26 1342.31  11
  -2   1  -7 6213.65 1118.91  11
   2  -1   7 4607.30 1067.76   5
   2   1   7 6289.16 1152.60  12
   2   1   7 5530.21 1127.75   5
   2  -2  -9 666.450 384.798  14
   2   2  -9-18.2638 367.466  14
   2   2  -9 173.073 331.251  11
   2  -2  -8 849.041 381.375  14
  -2  -2   8 459.544 311.862  12
  -2   2   8-227.523 282.049   5
  -2  -2   8 264.007 362.992   5
   2  -2  -8-408.413 334.873  11
   2   2  -8 429.625 323.530  11
   2   2  -8 408.989 333.199  14
   2   2  -7 8847.42 1178.03  14
  -2  -2   7 9722.73 1309.36   5
  -2   2   7 10242.9 1353.82   5
  -2  -2   7 8270.84 1031.40  12
   2  -2  -7 8399.54 1197.68  14
   2   2  -7 9123.69 1116.55  11
   2  -2  -7 8986.51 1257.04  11
  -2   2   7 8137.15 956.155  12
  -2   2   6 19365.0 2032.11   5
   2   2  -6 12044.7 1172.42  14
   2  -2  -6 9991.57 1243.16   9
  -2   2   6 13872.3 1214.63  12
   2  -2  -6 12602.3 1359.38  11
   2   2  -6 10750.5 1105.02  11
  -2  -2   6 21069.6 2024.18   5
  -2  -2   6 20632.6 1497.73  12
   2  -2  -6 9974.36 1236.48  14
   2   2  -5 6640.15 544.504   9
  -2   2   5 6141.06 649.875  12
   2   2  -5 5963.98 730.700  14
   2  -2  -5 6157.98 929.751  14
  -2  -2   5 4981.91 791.905   5
  -2   2   5 5632.77 895.018   5
  -2   2   5 4685.85 736.658   7
   2  -2  -5 5757.06 854.391  11
   2   2  -5 5761.98 630.902  11
   2  -2  -5 5799.43 779.954   9
   2  -2  -4 61732.0 2391.77   9
   2   2  -4 56025.8 1478.80   9
   2   2  -4 54770.8 2499.03   6
   2  -2  -4 52996.5 2492.73   6
   2  -2  -4 53916.8 2345.47  14
   2   2  -4 57709.1 1967.66  14
  -2   2   4 58754.6 1706.01  12
  -2   2   4 51608.6 2058.51   7
   2   2  -4 57034.8 1702.01  11
   2  -2  -3 32959.3 1631.61   9
   2   2  -3 30826.5 1615.17   6
   2  -2  -3 30944.1 1629.10   6
   2   2  -3 31069.7 1042.26   9
  -2   2   3 31961.7 1489.09   7
   2   2  -3 33411.0 1293.80  14
   2   2  -3 31808.5 1326.88   2
   2  -2  -3 31298.8 1612.42  14
  -2   2   3 30131.4 1007.57  12
   2   2  -3 32641.3 1242.44  12
  -2  -2   3 30367.0 1704.93   7
   2   2  -3 32096.3 955.590  11
   2  -2  -2 180041. 3522.73   9
   2  -2  -2 170555. 3530.22  14
  -2   2   2 195640. 3457.17   6
  -2   2   2 191389. 3369.98   7
   2  -2  -2 178291. 3190.22   7
  -2  -2   2 181919. 3795.91   7
  -2  -2   2 184836. 3402.22   6
   2  -2  -2 167982. 3441.69   6
   2   2  -2 172416. 2930.19   2
  -2   2   2 179738. 3066.18   3
   2   2  -2 182027. 3521.30   6
   2  -2  -1 1013.85 214.264   3
  -2  -2   1 1034.16 219.084   6
  -2   2   1 1116.57 312.049   8
   2  -2  -1 832.383 201.111   9
   2   2  -1 872.933 249.734   6
   2  -2  -1 652.943 206.241   6
  -2  -2   1 963.351 147.075   3
  -2   2   1 967.466 240.881   6
   2  -2  -1 1068.66 277.244   7
  -2   2   1 1165.08 186.666  12
  -2   2   1 1195.43 280.000  14
  -2   2   1 1042.77 232.657  13
  -2   2   1 420.830 147.495   7
   2   2  -1 757.939 253.400   7
   2   2  -1 1448.59 247.466   2
  -2  -2   1 1282.85 324.870   7
  -2  -2   0 10114.0 655.177   2
   2  -2   0 8786.17 694.268   9
  -2   2   0 9343.75 776.363   7
   2   2   0 9993.18 632.095   2
  -2   2   0 8910.21 683.724  14
  -2   2   0 10598.2 898.066   8
   2  -2   0 9048.92 616.931  12
  -2   2   0 10364.8 627.480  12
   2  -2   0 8662.60 786.848   7
  -2  -2   0 9929.18 766.297   7
   2  -2   0 9113.92 689.617   6
  -2  -2   0 8943.79 650.897   5
  -2   2   0 7607.65 665.276   5
   2   2   0 9444.20 779.883   7
  -2   2   0 9667.48 647.285   9
  -2  -2   0 9552.03 508.586  11
   2   2   0 9270.18 523.979   3
   2   2   0 9400.06 702.010   6
   2  -2   1 86614.0 1995.20   9
   2   2   1 84788.0 1839.35   2
  -2   2  -1 85757.5 2530.96   8
  -2  -2  -1 89373.6 2476.37   7
   2  -2   1 86886.2 2170.15  12
  -2   2  -1 86523.6 2661.04   7
   2   2   1 90436.3 2671.01  12
   2   2   1 85603.0 2191.15   5
   2  -2   1 83617.7 2179.33   5
  -2  -2  -1 88423.7 1932.50  11
  -2  -2  -1 91517.0 2277.61  10
   2   2   2 103932. 1948.11   2
  -2  -2  -2 108999. 2876.97  10
   2  -2   2 110210. 2202.31   9
   2   2   2 102310. 2736.96   5
  -2   2  -2 105764. 2058.49  10
  -2   2  -2 105639. 2915.47   8
   2   2   2 127149. 3436.79  12
  -2  -2  -2 110266. 1840.84   8
   2  -2   2 102420. 2717.79   5
   2   2   2 104905. 1687.25  14
  -2  -2  -2 106460. 2979.53   7
   2  -2   2 126747. 2992.14  12
  -2  -2  -2 106749. 2569.28  11
   2  -2   3 78.9756 104.463   9
  -2  -2  -3 40.8388 38.6036   8
  -2   2  -3 104.416 106.272  10
  -2   2  -3-248.831 176.790   8
   2   2   3 154.312 72.6572  14
  -2   2  -3-53.7336 95.4912   1
   2  -2   3 260.388 309.283  12
   2   2   3 515.312 247.031  12
  -2  -2  -3 13.1163 265.117  11
   2   2   3-166.948 209.035   5
   2  -2   3-324.041 265.265   5
  -2  -2  -3 688.873 255.289  10
   2  -2   4 11302.1 668.630   9
  -2   2  -4 11477.7 1034.83   8
  -2  -2  -4 10633.8 1195.25  10
   2   2   4 11903.3 1094.06   5
   2  -2   4 10897.9 1085.20   5
   2  -2   4 10905.6 1123.14  12
   2   2   4 10002.3 1148.59  12
  -2   2  -4 10583.7 564.072  14
  -2  -2  -4 13160.6 1236.34  11
  -2   2  -4 10663.4 945.040  10
  -2   2  -5 9732.59 1017.26   8
   2  -2   5 7516.63 1049.90   5
   2   2   5 7562.64 1049.47   5
   2  -2   5 6574.65 971.210  12
  -2  -2  -5 8072.78 1089.22  11
  -2   2  -5 9118.21 999.258  11
  -2   2  -5 8308.22 952.885  10
  -2  -2  -5 9193.04 1214.61  10
   2   2   5 7352.13 1067.44  12
   2   2   6 306.322 314.086  12
  -2  -2  -6 193.769 204.749  11
  -2   2  -6 287.389 302.868  11
   2   2   6 98.8206 211.301   5
   2  -2   6-41.4588 234.786   5
  -2  -2  -6 43.3297 268.730  10
   2  -2   6 519.800 262.085  12
   2  -2   7 2169.51 691.160  12
   2   2   7 3691.40 880.977  12
  -2  -2  -7 3856.18 979.833  11
  -2   2  -7 2714.64 779.151  11
   2   2   7 1857.41 742.949   5
   2  -2   7 2812.07 748.639   5
  -2  -2  -7 3093.67 903.992  10
   2   3  -9 11423.3 1541.80  14
   2   3  -8 292.913 353.595  14
  -2   3   8 98.3329 280.015   5
  -2  -3   8-53.8591 280.463   5
   2  -3  -8 395.189 427.341  11
   2   3  -8 601.206 351.154  11
  -2   3   7 4471.04 931.791   5
   2  -3  -7 5669.53 1025.73  14
  -2   3   7 5081.10 771.814  12
  -2  -3   7 5102.02 934.978   5
   2   3  -7 5202.02 831.640  11
   2  -3  -7 4989.01 926.459  11
   2  -3  -7 4236.51 899.171  10
  -2   3   7 3624.08 733.037   7
   2   3  -7 4466.00 805.958  14
  -2   3   6 1246.92 428.863   5
  -2  -3   6 1258.28 529.461   5
  -2   3   6 1017.36 349.838  12
   2  -3  -6 848.187 411.641  10
   2   3  -6 1444.66 453.773  14
   2  -3  -6 1080.35 403.726  14
   2  -3  -6 610.761 414.892  11
   2   3  -6 1167.72 330.515  11
  -2   3   6 181.079 217.300   7
   2   3  -5 13320.8 703.522   9
  -2   3   5 12627.2 1075.04   7
   2   3  -5 11550.1 1017.26  14
  -2   3   5 13758.1 1324.18   5
  -2  -3   5 12403.0 1265.63   5
   2  -3  -5 14205.0 1412.43  14
  -2   3   5 13029.8 1035.63  12
   2   3  -5 13841.1 967.282  11
   2  -3  -5 13570.8 1489.55  10
   2  -3  -5 9558.06 1295.75   9
   2  -3  -4 2062.71 506.676   9
   2   3  -4 2029.94 267.590   9
   2   3  -4 2173.92 554.136   6
   2  -3  -4 2216.95 513.879   6
   2  -3  -4 2958.14 616.277  14
   2   3  -4 1956.45 308.435  11
   2  -3  -4 2275.21 654.200  10
  -2   3   4 1534.45 393.838   7
   2   3  -4 2467.69 416.952   2
  -2   3   4 1431.56 335.405  12
   2  -3  -3 154543. 3882.66   9
   2   3  -3 149403. 3583.93   6
   2  -3  -3 152827. 3663.57   6
  -2   3   3 145003. 2792.93  12
   2   3  -3 167001. 3209.18   2
  -2   3   3 155382. 3135.05   7
   2   3  -3 159469. 1894.40  11
  -2  -3   3 140676. 3844.49   7
   2  -3  -2 11543.9 1025.77   9
  -2   3   2 12025.6 987.576   8
   2   3  -2 10765.4 779.483   2
  -2   3   2 11495.3 786.203   7
   2  -3  -2 10836.9 770.301   7
  -2  -3   2 10218.1 976.969   7
  -2   3   2 10666.0 845.577   3
   2   3  -2 10925.6 891.094   6
   2  -3  -2 11085.3 898.616   6
   2  -3  -1 200198. 3895.28   9
  -2   3   1 192703. 3265.51   7
   2  -3  -1 199699. 3252.53   6
  -2   3   1 196102. 3964.65   8
   2   3  -1 202389. 1713.31  11
   2   3  -1 215025. 3450.96   6
  -2   3   1 202286. 3264.63  13
  -2   3   1 206959. 3112.12   6
   2  -3  -1 190883. 3309.67   7
   2   3  -1 215843. 3375.32   2
  -2  -3   1 195392. 3705.31   7
  -2   3   1 193389. 3211.93  10
   2  -3  -1 195775. 3385.70   3
  -2  -3   1 198173. 2973.47   6
  -2  -3   1 207794. 2832.22   3
   2  -3   0 30665.3 1447.14   9
   2   3   0 33753.9 1286.92   2
   2   3   0 32264.9 1149.19   3
  -2   3   0 28949.7 1570.16   8
   2   3   0 29653.0 1436.86   7
  -2  -3   0 29231.6 1177.24   5
   2  -3   0 29845.1 1651.97   4
  -2   3   0 31104.2 1455.98   7
  -2   3   0 31290.5 1245.63  12
  -2  -3   0 32067.2 1089.69  11
   2   3   0 31033.1 888.786  11
  -2  -3   0 30968.7 1398.55   7
  -2   3   0 30282.0 1179.81   5
   2   3   0 31784.2 1269.12   6
   2  -3   0 31530.7 1272.06   6
   2  -3   1 86321.4 2300.43   9
  -2   3  -1 88158.6 2771.34   8
   2  -3   1 82482.2 2762.96   4
  -2  -3  -1 92159.2 2260.37  11
   2   3   1 90112.5 2971.75  12
   2  -3   1 86683.7 2291.89   5
   2   3   1 86471.6 1784.84  11
   2  -3   1 90090.6 2425.60  12
  -2  -3  -1 85736.7 2397.29   7
   2   3   1 89843.7 2079.90   2
   2   3   1 85668.8 2214.08   5
  -2  -3  -1 90791.3 2472.85  10
  -2   3  -2 34506.9 1595.04   1
  -2  -3  -2 30627.0 873.402   8
  -2   3  -2 35745.0 1824.10   8
   2  -3   2 34256.5 1796.80   4
  -2  -3  -2 37227.4 1719.39   7
   2  -3   2 43884.0 1923.29  12
   2   3   2 35878.7 1269.80   2
   2   3   2 34513.8 1560.30   5
   2  -3   2 32495.9 1569.34   5
   2   3   2 42197.1 2166.49  12
  -2   3  -2 33906.6 1053.39  10
  -2  -3  -2 35528.6 1644.98  11
  -2  -3  -2 34545.6 1762.30  10
   2  -3   2 33695.2 1367.15   9
   2  -3   3 11016.6 741.431   9
   2  -3   3 11043.4 996.253   5
  -2   3  -3 10556.5 1091.80   8
   2  -3   3 9647.11 1063.53   4
   2   3   3 9956.15 678.501  14
   2   3   3 9999.91 1090.36  12
   2  -3   3 11765.4 1059.69  12
  -2  -3  -3 12250.9 1099.95  11
   2   3   3 11689.4 994.911   5
   2   3   3 11376.1 693.391   2
  -2   3  -3 10190.1 819.169   1
  -2   3  -3 10391.6 722.355  10
  -2  -3  -3 11916.0 1187.27  10
  -2   3  -4 24012.9 1622.99   8
   2  -3   4 21918.7 1668.68  12
   2   3   4 21988.0 899.726   2
   2  -3   4 22324.9 1571.94   4
   2   3   4 22416.3 1753.74  12
   2   3   4 23175.3 1589.12   5
   2  -3   4 23212.0 1552.24   5
  -2  -3  -4 24113.5 1716.06  11
  -2   3  -4 23725.8 1290.21  10
  -2  -3  -4 21638.3 1753.38  10
  -2   3  -5 8183.50 1084.50   8
   2  -3   5 6856.02 1023.17  12
   2  -3   5 7041.60 1100.78   5
  -2  -3  -5 9928.14 1260.90  11
  -2  -3  -5 9110.78 1344.65  10
   2   3   5 5110.33 848.606   5
   2   3   5 6132.78 997.767  12
  -2   3  -6 1705.31 508.478   8
   2  -3   6 931.275 513.364  12
   2   3   6 1860.79 638.637  12
  -2  -3  -6 1908.27 649.732  11
  -2   3  -6 1453.73 461.212  11
   2   3   6 1667.99 538.011   5
   2  -3   6 1500.64 439.024   5
  -2  -3  -6 1675.23 566.959  10
   2   3   7 361.806 382.135   5
   2  -3   7 95.6055 256.034   5
  -2  -3  -7 168.966 247.313  10
   2   4  -8 2219.19 607.274  14
  -2   4   8 2364.82 689.456   5
  -2  -4   8 1752.15 635.053   5
   2  -4  -8 3958.71 1013.66  10
   2   4  -7 4833.79 816.148  14
  -2   4   7 4849.95 846.790  12
  -2  -4   7 5152.32 933.187   5
   2   4  -7 6483.68 899.237  11
   2  -4  -7 4713.50 1032.55  10
  -2   4   7 5999.56 1070.86   5
  -2   4   6 28443.2 1860.51   1
  -2   4   6 27865.3 2156.72   5
  -2  -4   6 24783.8 1969.77   5
  -2   4   6 21348.6 1462.06   7
  -2   4   6 23317.7 1631.93  12
   2   4  -6 25253.4 1496.19  11
   2  -4  -6 24260.5 2114.20  10
   2   4  -5 2628.87 288.444   9
   2  -4  -5 1734.87 658.596   9
   2   4  -5 2546.29 513.274  14
   2  -4  -5 2718.21 732.412  10
  -2   4   5 2199.11 467.874  12
  -2   4   5 2642.55 618.705   5
  -2  -4   5 2695.49 640.003   5
   2   4  -5 2706.39 387.232  11
  -2   4   5 2382.93 466.293   7
   2   4  -5 3243.18 558.845   2
  -2   4   5 2589.67 555.148   1
   2   4  -4 83058.6 3046.65   6
   2  -4  -4 80911.1 3026.86   6
  -2  -4   4 81418.4 1718.72  13
  -2   4   4 69845.6 2536.30   8
   2   4  -4 83715.0 2559.28   2
  -2   4   4 74344.6 2436.21  12
  -2   4   4 77859.2 2301.76   7
   2   4  -4 82698.7 1811.45  11
   2  -4  -4 84760.1 3430.56  10
   2  -4  -4 71940.0 3345.32   9
   2   4  -3 31901.6 1660.42   6
   2  -4  -3 31692.0 1685.62   6
  -2   4   3 29877.0 1622.53   8
  -2  -4   3 27689.7 1811.72   7
  -2   4   3 30860.4 1276.54   7
   2   4  -3 36128.1 1574.10   2
   2  -4  -3 35079.0 1952.98  10
  -2   4   3 31471.5 1803.21   3
   2  -4  -3 33209.4 1967.34   9
   2  -4  -2 230825. 3962.89   6
  -2   4   2 234790. 3695.50   6
  -2  -4   2 222997. 4542.96   7
  -2   4   2 234901. 4588.25   8
  -2   4   2 232076. 3295.37   7
   2  -4  -2 221287. 3308.15   7
   2   4  -2 227036. 3983.37   6
   2   4  -2 220262. 3740.44   2
  -2   4   2 212040. 4027.48   3
   2  -4  -2 230503. 4937.19   9
   2  -4  -1 12253.4 1087.06   9
   2   4  -1 14903.6 945.813   2
  -2   4   1 13258.7 1094.21   8
   2  -4  -1 12771.4 1164.17   4
  -2  -4   1 12250.2 952.438   7
  -2   4   1 13756.9 869.362   7
  -2   4   1 13648.9 955.759  13
   2  -4  -1 11719.1 818.476   7
   2   4  -1 14051.3 673.564  11
  -2   4   1 12820.1 857.569  10
  -2   4   1 13262.0 777.476   6
  -2  -4   1 13379.1 853.334   3
   2   4  -1 14771.1 917.415   6
   2  -4  -1 13049.7 850.368   6
   2  -4   0 71111.7 2476.88   9
   2   4   0 77825.5 2007.82   3
  -2   4   0 73768.7 2654.75   1
  -2   4   0 68755.5 2567.58   8
   2  -4   0 67778.4 2735.05   4
  -2   4   0 71699.7 1829.24   5
  -2  -4   0 73146.1 2169.42   7
  -2  -4   0 77708.0 1907.34   5
   2   4   0 79181.4 2204.41   2
   2   4   0 75823.3 1728.81  11
  -2   4   0 73916.3 1703.53  10
  -2  -4   0 81442.6 2303.40  10
   2   4   0 79405.9 2023.16   6
   2   4   0 72762.3 2301.24   7
   2  -4   0 72100.9 1968.23   6
   2   4   1 36658.0 1643.43   3
   2  -4   1 36957.1 1688.00   9
  -2   4  -1 38495.4 1899.79   1
  -2  -4  -1 36197.4 1285.77   8
   2  -4   1 34069.3 1940.75   4
   2   4   1 38769.6 1551.32   5
   2   4   1 36080.9 1601.96   7
  -2   4  -1 37203.1 1932.55   8
  -2  -4  -1 35148.4 1510.08   7
   2  -4   1 39632.0 1592.96   5
  -2  -4  -1 38433.3 1655.22  11
   2   4   1 39673.5 1562.54   2
  -2   4  -1 36964.6 961.486  10
  -2  -4  -1 39516.1 1775.21  10
   2  -4   2 12467.6 916.918   9
   2   4   2 13791.8 897.355   2
  -2  -4  -2 13459.2 1117.74  11
  -2  -4  -2 12569.1 1152.04  10
  -2  -4  -2 12234.2 596.411   8
  -2   4  -2 12772.0 1190.46   8
   2  -4   2 13232.1 1240.84   4
  -2  -4  -2 13488.2 1011.47   7
   2  -4   2 12366.2 943.839   5
   2   4   2 12303.0 933.720   5
  -2   4  -2 11042.8 500.113  10
  -2   4  -2 11282.7 1009.35   1
   2  -4   3 296.430 246.337  12
   2   4   3-197.603 261.183  12
   2  -4   3 106.094 120.902   9
   2   4   3-149.432 136.900   2
  -2   4  -3-2.82624 240.139   8
  -2   4  -3 126.994 137.312   1
   2  -4   3-83.6098 247.252   4
  -2  -4  -3 308.863 255.994  11
   2   4   3 206.830 233.001   5
  -2   4  -3-46.3723 95.0659  10
   2  -4   3-192.226 211.227   5
  -2  -4  -3-129.482 180.704  10
  -2   4  -4 19915.6 1629.47   8
   2   4   4 18980.4 1411.71   5
   2  -4   4 17423.3 1547.56   4
   2   4   4 19169.5 970.862   2
   2  -4   4 17999.9 1586.29  12
   2   4   4 16542.6 1586.06  12
   2  -4   4 19022.2 1451.77   5
  -2  -4  -4 19828.5 1630.55  11
  -2  -4  -4 18098.3 1707.03  10
   2  -4   5 5399.30 964.455  12
   2  -4   5 5543.04 933.350   4
  -2   4  -5 5633.74 933.615   8
   2   4   5 5024.05 845.900   5
   2   4   5 5614.36 1006.84  12
   2  -4   5 5862.01 926.421   5
  -2  -4  -5 5372.38 950.873  11
  -2  -4  -5 6891.42 1188.11  10
  -2   4  -6 439.583 311.904   8
   2   4   6 797.746 490.076  12
   2  -4   6 926.591 447.246   5
   2  -4   6 1682.53 602.464  12
  -2  -4  -6 127.820 373.983  11
   2   4   6 516.522 268.083   5
  -2  -4  -6 807.005 574.604  10
   2   5  -8 556.009 228.897  14
  -2   5   8 409.968 428.989   5
  -2  -5   8 548.062 427.867   5
   2   5  -7-20.8136 152.632  14
  -2  -5   7 115.383 254.180   4
  -2   5   7 124.627 220.018   5
  -2  -5   7-6.11324 193.525   5
   2  -5  -7 525.581 448.905  10
   2  -5  -6 1134.67 463.042  10
  -2   5   6 375.905 233.535  12
  -2   5   6 186.200 244.851   1
  -2   5   6 639.739 376.004   5
  -2  -5   6 326.736 300.412   5
   2   5  -6 982.525 368.757  14
   2   5  -6 828.828 263.143  11
   2   5  -6 795.639 318.032   2
  -2  -5   5 1835.85 497.055   5
  -2   5   5 2235.63 467.410   8
   2   5  -5 2362.70 498.520   2
  -2   5   5 2465.69 584.234   5
   2   5  -5 2311.77 366.081  11
   2  -5  -5 1487.81 464.829  10
  -2   5   5 1474.56 475.368   1
  -2   5   5 1490.05 449.684  12
  -2   5   4 10202.7 722.380   7
  -2   5   4 9782.68 1162.04   1
  -2   5   4 9718.67 965.561   8
  -2   5   4 10712.0 1098.85   5
  -2  -5   4 8840.26 980.387   5
   2   5  -4 11330.9 977.830   2
  -2   5   4 8567.95 945.392  12
   2  -5  -4 11484.7 1257.08  10
  -2   5   4 10626.0 1178.21   3
   2  -5  -4 12314.5 1391.50   9
   2   5  -3 14859.3 1131.48   6
  -2   5   3 15461.8 1400.62   1
  -2   5   3 14669.7 1193.47   8
  -2   5   3 13870.2 732.240   7
   2   5  -3 16053.4 1132.95   2
  -2  -5   3 13168.9 1320.42   7
   2  -5  -3 14481.7 1364.44  10
   2  -5  -3 15235.3 1160.16   6
  -2   5   3 14351.2 1326.08   3
   2  -5  -3 14649.2 1438.46   9
   2   5  -2 4390.23 544.234   6
   2  -5  -2 4308.62 563.628   6
   2  -5  -2 4760.49 813.990   9
  -2   5   2 3786.94 621.790   3
  -2   5   2 5226.79 726.402   8
  -2   5   2 4765.03 450.109   7
   2   5  -2 4184.70 356.758  13
   2  -5  -2 4632.57 467.523   7
   2   5  -2 4982.56 641.927   2
   2  -5  -2 4438.96 764.320   4
  -2   5   2 5318.04 830.518   1
  -2  -5   2 4289.61 686.065   7
  -2  -5   2 4416.64 482.433   6
  -2   5   2 5191.88 557.219   6
   2  -5  -1 24068.2 1647.26   9
   2   5  -1 23224.4 1136.73   6
  -2   5   1 23275.5 1619.20   1
  -2   5   1 22175.8 1507.99   8
   2  -5  -1 20966.9 1639.71   4
  -2   5   1 23479.9 1351.67  13
   2  -5  -1 22450.0 1148.69   7
  -2  -5   1 22867.4 1001.18   5
  -2   5   1 22549.9 1009.30   5
   2   5  -1 24241.9 1082.36  11
   2   5  -1 26623.5 1418.74   2
  -2   5   1 22788.2 1186.46  10
   2  -5  -1 21052.6 1059.74   6
  -2  -5   1 23173.2 1387.49   7
  -2   5   0 1352.75 360.950  13
  -2   5   0 704.923 301.338   1
   2  -5   0 988.489 318.800   9
   2   5   0 783.679 223.447   6
   2  -5   0 569.624 198.719   6
  -2   5   0 580.833 278.909   8
   2  -5   0 670.520 332.183   4
  -2  -5   0 819.674 258.679   7
   2   5   0 386.541 204.712   2
  -2  -5   0 777.857 231.531   5
  -2   5   0 484.308 193.443   5
  -2   5   0 887.795 198.725  10
  -2  -5   0 1212.66 346.587  10
   2  -5   1 2308.60 388.376   6
   2  -5   1 1772.31 464.423   9
   2   5   1 2508.81 511.940   3
   2   5   1 2280.19 454.520   2
  -2   5  -1 2590.79 562.028   1
  -2  -5  -1 2049.01 360.852   8
  -2   5  -1 2345.48 533.335   8
   2  -5   1 3120.85 644.165   4
  -2  -5  -1 1887.29 334.862   7
   2   5   1 2307.31 425.814   7
  -2   5  -1 1263.77 140.268  10
   2   5   1 2582.31 395.307   6
  -2  -5  -1 2217.43 465.491  10
   2  -5   2 13640.7 1083.55   9
   2  -5   2 14819.6 1046.68   5
  -2  -5  -2 14638.9 1032.65   7
  -2   5  -2 16816.3 1444.64   8
  -2  -5  -2 15297.4 768.001   8
   2  -5   2 16505.1 1516.58   4
   2   5   2 18078.2 1139.74   2
   2   5   2 18445.1 1630.09  12
   2   5   2 16526.9 1058.44   5
  -2  -5  -2 16146.4 1318.25  11
  -2   5  -2 15586.1 1274.66   1
   2   5   2 15361.2 1269.99   3
  -2  -5  -2 15795.1 1359.31  10
   2  -5   3 270.847 165.053   9
   2   5   3 530.986 225.614   2
   2   5   3 200.840 175.813   5
   2  -5   3 74.4145 298.116   4
  -2   5  -3 501.569 320.454   8
   2   5   3 371.661 258.147  12
  -2  -5  -3 355.999 276.398  11
  -2  -5  -3 191.499 223.643  10
   2  -5   3 375.111 242.183   5
  -2  -5  -4 18952.9 1709.59  11
  -2   5  -4 16993.4 1590.34   8
   2  -5   4 14346.5 1579.70   4
   2  -5   4 16074.9 1327.03   5
   2   5   4 12782.7 1610.16  12
   2   5   4 17272.4 1046.43   2
  -2  -5  -4 18920.7 1861.69  10
   2   5   4 16736.6 1357.09   5
  -2   5  -5 303.739 407.722   8
  -2  -5  -5 230.326 373.560  10
   2  -5   5 290.016 357.352  12
   2   5   5 203.245 317.990  12
   2  -5   5 74.2939 346.791   4
  -2  -5  -5 1177.92 524.569  11
   2   5   5-240.248 364.132   5
   2  -5   5 32.1568 258.395   5
  -2   5  -6 477.712 295.777   8
   2  -5   6 438.289 396.826  12
   2   5   6 559.015 391.496  12
  -2  -5  -6 254.792 297.162  11
   2   5   6 566.681 309.612   5
   2  -5   6 144.602 287.521   5
  -2  -5  -6 1362.94 661.357  10
  -2   6   8 426.070 368.438   5
  -2  -6   8 223.808 226.580   5
  -2  -6   7 147.525 258.983   4
   2   6  -7 110.621 223.106  14
  -2   6   7 292.621 285.864   5
  -2  -6   7 547.268 340.754   5
  -2  -6   6 4355.11 1249.56   4
  -2   6   6 3442.00 831.362  12
  -2   6   6 6105.64 1136.48   5
  -2  -6   6 10206.0 1305.42   5
  -2   6   6 7621.88 1370.37   3
  -2   6   6 5696.23 1002.59   1
   2   6  -6 337.510 631.778   2
  -2   6   5 5520.56 975.163   3
  -2   6   5 4039.32 786.978   1
  -2   6   5 2835.88 651.439  12
   2   6  -5 5439.19 765.309   2
  -2   6   5 5204.82 803.779   5
  -2  -6   5 3876.19 697.280   5
   2  -6  -5 4508.49 934.855  10
  -2   6   4 334.804 291.823   3
   2   6  -4 67.0422 225.610   2
  -2   6   4 314.515 236.335   5
  -2   6   4-30.8482 223.919   1
  -2   6   4-257.509 181.177   8
  -2  -6   4 83.8127 200.650   5
   2  -6  -4 347.653 226.936  10
  -2   6   3 11955.2 1250.21   1
  -2   6   3 11416.7 1107.45   8
   2  -6  -3 11339.3 1229.38   4
   2   6  -3 12681.0 1074.33   2
   2  -6  -3 12145.5 1329.40  10
  -2  -6   3 9535.61 1159.84   7
  -2   6   3 12641.4 1282.35   3
   2  -6  -3 10903.2 1396.46   9
  -2  -6   2-29.0965 88.0372   6
   2  -6  -2-457.442 356.218   9
  -2   6   2-43.3286 221.838  13
  -2   6   2 156.093 200.312   8
   2   6  -2 107.890 151.849   6
   2  -6  -2-166.714 140.320   6
  -2   6   2-62.4845 203.709   3
   2   6  -2-33.7960 183.391   2
   2   6  -2-83.6936 112.847  13
  -2   6   2-179.229 307.128   1
   2  -6  -2 60.6519 255.845   4
   2  -6  -2 157.502 99.5174   7
  -2  -6   2 154.582 204.923   7
  -2   6   1 738.740 322.407   1
   2  -6  -1 1284.57 371.473   9
   2  -6  -1 915.834 409.347   4
   2   6  -1 309.800 185.634   6
   2  -6  -1 503.476 164.514   6
  -2   6   1 690.808 313.752  13
  -2   6   1 450.638 257.831   8
  -2  -6   1 329.896 89.4205   5
   2   6  -1 388.975 241.733   2
   2  -6  -1 562.927 209.556   7
  -2  -6   1 351.414 228.588   7
  -2   6   1 463.290 157.588   5
  -2  -6   1 499.801 249.392  10
  -2   6   0 2914.87 506.544  13
  -2   6   0 3298.62 633.130   1
   2  -6   0 3620.02 695.233   9
  -2   6   0 3252.66 686.469   8
   2  -6   0 3379.43 417.434   6
   2   6   0 4169.06 474.632   6
   2  -6   0 4160.49 866.131   4
  -2  -6   0 3319.65 395.963   5
  -2   6   0 3615.78 383.494   5
   2   6   0 3866.86 607.223   2
  -2  -6   0 3703.15 514.333   7
  -2   6   0 4370.53 392.595  10
  -2  -6   0 3446.02 566.362  10
  -2   6  -1 15430.8 1413.36   8
   2  -6   1 15009.3 1575.63   4
  -2  -6  -1 14538.1 974.482   7
  -2   6  -1 16224.1 1373.99   1
   2   6   1 15710.8 1173.84   2
  -2  -6  -1 16289.8 1347.19  10
   2   6   1 14736.5 913.164   6
   2  -6   1 14684.2 963.428   6
   2   6   1 16273.3 1230.69   3
   2  -6   1 14523.8 1266.73   9
  -2   6  -2 44830.4 2566.82   8
   2  -6   2 43159.4 2662.36   4
  -2  -6  -2 48337.0 2586.15  10
  -2  -6  -2 44485.2 1762.94   7
   2   6   2 44943.8 1787.21   5
   2  -6   2 44443.6 1968.01   5
   2   6   2 47021.4 2031.37   2
   2   6   2 45552.6 2323.64   3
   2  -6   2 43574.1 2106.45   9
   2   6   3 199.886 182.730   3
   2   6   3 558.184 216.102   2
  -2  -6  -3 286.970 150.027   4
  -2   6  -3 411.233 327.409   8
   2  -6   3 368.467 299.415   4
  -2  -6  -3 811.217 467.234  10
   2   6   3 979.088 490.723  12
   2   6   3 361.513 221.594   5
   2  -6   3 618.694 181.964   5
   2   6   4 585.327 336.221   5
  -2   6  -4 109.084 287.640   8
   2  -6   4 149.642 309.567   4
   2   6   4 86.2529 333.347  12
  -2  -6  -4 293.690 284.300  11
  -2  -6  -4 501.252 430.099  10
   2  -6   4 380.824 302.995   5
  -2   6  -5 4064.23 870.904   8
   2   6   5 4274.98 937.537  12
  -2  -6  -5 2856.46 829.114  10
   2  -6   5 4379.91 945.261   4
  -2  -6  -5 4568.46 975.941  11
   2   6   5 3957.21 744.574   5
   2  -6   5 3621.61 694.062   5
  -2   6  -6 3656.73 921.621   8
   2   6   6 1890.23 577.655   5
   2  -6   6 2396.85 645.213   5
  -2  -6  -6 2893.08 839.757  11
   2   7  -7 3655.97 726.346  14
  -2  -7   7 2974.16 803.957   4
   2   7  -6 304.570 282.720   2
  -2   7   6 341.941 287.609   3
  -2  -7   6-173.645 264.552   4
   2  -7  -6 207.622 255.440  10
  -2  -7   5 2540.88 732.321   4
  -2   7   5 2499.98 726.853   3
   2   7  -5 2750.63 550.056   2
  -2   7   5 2507.86 624.380  12
  -2   7   5 2723.57 652.955   1
   2  -7  -5 3291.15 797.386  10
  -2   7   4 6899.22 889.286   8
   2   7  -4 9065.34 982.517   2
  -2  -7   4 6536.78 1076.53   7
   2  -7  -4 7920.44 1144.37  10
  -2   7   4 8220.73 1140.30   1
  -2   7   4 9257.67 1213.45   3
  -2   7   3 5675.47 840.704   8
   2   7  -3 8180.51 965.104   2
   2  -7  -3 5132.59 929.180   4
   2  -7  -3 6939.21 998.591  10
  -2  -7   3 5433.25 899.911   7
  -2   7   3 5427.46 913.182   1
  -2   7   3 7251.62 998.300   3
  -2   7   2 36.5576 202.790   8
   2   7  -2 112.216 173.865   2
   2   7  -2 108.228 95.4372  13
   2  -7  -2 496.612 470.679   4
  -2  -7   2-81.0228 179.129   7
  -2   7   2 114.783 226.221  13
  -2   7   2 263.865 266.100   1
  -2  -7   2 180.783 176.224  10
   2  -7  -2 59.1151 352.245   9
   2  -7  -1 2349.59 674.277   9
   2  -7  -1 2792.40 698.039   4
  -2   7   1 2544.58 559.319   8
   2   7  -1 2887.49 475.658  13
  -2   7   1 2246.12 491.708  13
   2   7  -1 2943.03 562.686   2
  -2  -7   1 2294.94 496.475   7
  -2   7   1 2670.72 637.141   1
  -2  -7   1 2654.25 511.809  10
   2  -7   0 80.2439 290.046   9
  -2   7   0 10.5279 208.119   8
  -2   7   0 347.354 264.495  13
   2   7   0 114.382 278.360   2
   2  -7   0-42.5616 238.997   4
  -2  -7   0-14.3162 113.134   7
  -2   7   0 89.9365 192.822   1
  -2  -7   0 77.0416 163.492  10
   2   7   1 17697.0 1358.84   3
  -2   7  -1 16568.7 1597.87   8
   2  -7   1 15641.7 1747.24   4
   2   7   1 17204.9 1325.42   2
  -2  -7  -1 17948.5 1555.21  10
   2  -7   1 17332.3 1535.40   9
  -2  -7  -2 6151.22 962.720   4
   2   7   2 5317.82 816.389   3
  -2   7  -2 4421.64 878.270   8
   2  -7   2 5432.67 1065.67   4
   2   7   2 5214.99 746.094   2
  -2  -7  -2 4644.14 887.864  10
   2   7   3 4644.13 850.602   3
  -2   7  -3 5817.59 998.634   8
  -2  -7  -3 4396.88 741.837   4
   2  -7   3 3899.53 951.052   4
   2   7   3 4015.46 888.684  12
   2   7   3 5045.01 715.529   2
  -2  -7  -3 4057.12 887.041  10
  -2   7  -4 11392.9 1452.90   8
   2  -7   4 9076.84 1460.08   4
   2   7   4 9916.95 1512.80  12
  -2  -7  -4 10074.4 1497.88  10
   2   7   4 8832.79 1256.89   3
   2   7   5 2221.94 756.898   3
  -2  -7  -5 3907.23 1001.35  10
   2   7   5 3735.95 973.578  12
   2  -7   5 1704.89 616.784   4
   2   8  -6 547.932 369.973   2
   2  -8  -6-146.289 257.498  10
  -2   8   5 739.509 445.870   3
   2   8  -5 1718.38 528.314   2
  -2  -8   5 571.851 408.219   4
  -2   8   5 552.166 375.397  12
   2  -8  -5 126.443 259.709  10
  -2   8   4-203.417 200.691   3
   2   8  -4 28.0682 256.028   2
  -2  -8   4 353.505 416.305   4
  -2   8   4 185.679 215.834   1
  -2  -8   4 208.453 301.257   7
   2  -8  -4 127.880 317.356  10
  -2  -8   3 4390.29 872.442   4
   2   8  -3 4149.64 731.642   2
  -2   8   3 4643.33 878.672   3
  -2   8   3 3850.13 692.658   8
  -2   8   3 3839.67 805.659   1
   2  -8  -3 2688.77 723.379   4
   2  -8  -3 4718.16 858.262  10
  -2  -8   3 3990.54 818.372   7
  -2   8   2-117.581 287.833  13
  -2   8   2 70.9454 276.293   8
   2   8  -2 100.195 233.130   2
   2   8  -2-13.6692 111.945  13
  -2   8   2 305.126 333.157   1
   2  -8  -2 182.912 234.640   4
  -2  -8   2-208.089 260.974   7
  -2  -8   2 106.471 174.415  10
  -2  -8   1 228.088 355.203   4
  -2   8   1 377.591 332.311   1
   2   8  -1 817.066 292.062  13
  -2   8   1-0.83750 171.950  13
   2   8  -1 216.491 246.618   2
   2  -8  -1 307.621 294.251   4
  -2   8   1 265.977 295.210   8
  -2  -8   1 302.473 200.263   7
  -2  -8   1 103.098 220.860  10
  -2  -8   0 1869.33 563.857   4
  -2   8   0 1424.32 473.658   8
  -2   8   0 1387.75 427.785  13
   2   8   0 1244.14 432.240   2
   2  -8   0 1767.02 657.937   4
  -2  -8   0 1513.57 416.729  10
  -2  -8  -1 7981.62 1090.63  10
  -2  -8  -1 6789.91 1092.77   4
  -2   8  -1 6971.24 1063.45   8
   2  -8   1 6028.28 1180.69   4
   2   8   1 7280.28 906.234   2
   2   8   2 16295.8 1505.29   3
  -2  -8  -2 17372.9 1699.45   4
  -2   8  -2 15959.6 1710.72   8
   2  -8   2 14315.3 1823.94   4
   2   8   2 18516.2 1462.96   2
  -2  -8  -2 17037.8 1754.18  10
  -2   8  -3 740.685 460.978   8
   2   8   3 975.225 421.404   3
   2   8   3 1120.33 357.494   2
   2  -8   3 502.501 283.286   4
   2   8   3 1256.08 598.964  12
  -2  -8  -3 1867.95 686.306  10
   2   8   4 274.902 391.050   3
  -2   8  -4-171.091 387.310   8
   2  -8   4 560.461 495.121   4
   2   8   4 181.775 360.364  12
  -2  -8  -4 576.667 361.475  10
   2  -8   5 1688.04 725.988   4
   2   9  -5 2354.30 663.118   2
  -2  -9   5 1316.33 600.300   4
  -2  -9   5 1911.91 700.469   7
   2  -9  -5 2601.22 776.093  10
  -2   9   4 2113.03 643.666   3
   2   9  -4 2918.55 607.895   2
  -2  -9   4 2069.30 660.497   4
  -2  -9   4 1741.27 637.159   7
   2  -9  -4 1976.81 666.142  10
  -2  -9   3 1517.03 651.911   4
  -2   9   3 1532.32 486.924   8
  -2   9   3 719.417 348.435  13
   2  -9  -3 986.906 480.132   4
   2   9  -3 1380.78 491.893   2
  -2  -9   2 61.4193 356.244   4
  -2   9   2 819.945 390.200   8
  -2   9   2 514.624 359.537  13
   2  -9  -2 38.3195 288.524   4
   2   9  -2-170.344 306.427   2
  -2  -9   1 7815.22 1300.23   4
  -2   9   1 7551.63 1129.84   8
  -2   9   1 6271.07 963.188  13
   2  -9  -1 3560.70 943.282   4
   2   9  -1 6824.40 846.477  13
   2   9  -1 7244.28 985.654   2
  -2  -9   0 782.860 391.115   4
  -2  -9   0 1025.02 353.807  10
  -2   9   0 968.688 382.171  13
   2  -9   0 756.757 493.416   4
  -2   9   0 202.599 310.541   8
   2   9   0 1080.16 397.191   2
   2  -9   1 1286.55 628.712   4
  -2   9  -1 631.046 457.354   8
  -2  -9  -1 234.049 312.839   4
   2   9   1-107.450 275.812   2
  -2  -9  -1 260.307 262.400  10
  -2  -9  -2 764.921 371.801  10
  -2   9  -2 444.365 245.678   8
  -2  -9  -2 1328.67 464.899   4
   2   9   2 1402.03 425.643   2
   2  -9   2 809.967 510.359   4
   2   9   3 466.331 397.012   3
  -2   9  -3 971.898 423.325   8
   2   9   3 656.667 341.909   2
   2  -9   3 832.633 507.153   4
  -2  -9  -3 194.203 338.460  10
   2   9   3 508.077 373.225  12
   2   9   4 2220.51 759.135   3
  -2 -10   3 1748.41 625.902   4
   2  10  -3 954.723 477.149   2
   2 -10  -3 619.189 416.602   4
  -2 -10   2 13663.4 1794.40   4
  -2  10   2 13925.2 1553.34   8
   2 -10  -2 14888.8 1951.08   4
  -2  10   2 12933.2 1453.88  13
   2  10  -2 11950.3 1378.05   2
  -2 -10   1 258.536 379.643   4
  -2  10   1-231.144 317.199   8
   2 -10  -1-167.937 305.353   4
  -2  10   1-313.034 344.754  13
   2  10  -1-344.229 242.643   2
  -2 -10   0 7306.00 1258.88   4
  -2  10   0 6970.07 1151.89   8
   2  10   0 7635.92 1032.92  13
   2 -10   0 6970.07 1383.39   4
   2  10   0 9179.84 1198.27   2
   2 -10   1 2848.87 1001.48   4
  -2  10  -1 1943.59 612.456   8
  -2 -10  -1 2578.89 716.598   4
   2  10   1 2223.09 606.601   2
  -2 -10  -1 1227.91 443.942  10
  -2 -10  -2-287.680 335.158   4
   2  10   2 801.000 498.675   2
  -2 -10  -2-125.564 484.218  10
   2  10   3 231.354 317.899   2
  -2 -10  -3 594.806 481.323  10
  -2  11   1 8842.84 1331.15   8
  -2 -11  -1 74.0622 451.825   4
   3   0  -9 541.235 476.260  14
  -3   0   9 624.723 476.390   7
   3   0  -8 8625.53 1246.93  11
  -3   0   8 9512.83 1495.71   5
   3   0  -8 9479.42 1377.17  14
  -3   0   8 5781.42 1096.11   7
  -3   0   7 10696.6 1505.21   5
   3   0  -7 9435.54 1276.43  14
  -3   0   7 7099.87 1175.44   7
   3   0  -7 10725.7 1313.01  11
   3   0  -6 1591.11 408.055   9
   3   0  -6 1348.54 429.685   6
   3   0  -6 2224.68 529.143  14
  -3   0   6 1179.02 323.689  12
   3   0  -6 1751.72 490.989  11
  -3   0   6 2125.90 590.124   7
   3   0  -5 3763.30 602.895   9
   3   0  -5 3684.96 744.462   6
   3   0  -5 4060.73 687.387  14
   3   0  -5 2776.14 399.946  12
  -3   0   5 3176.74 680.263   7
   3   0  -4 11628.1 1192.43   6
   3   0  -4 12253.2 978.126   9
   3   0  -4 12637.1 1084.32  14
   3   0  -4 11313.4 592.353  12
  -3   0   4 11351.2 1189.21   7
   3   0  -3 219505. 4041.32   9
   3   0  -3 224314. 4110.01  14
  -3   0   3 229544. 2494.86  13
  -3   0   3 217059. 3238.12  11
   3   0  -3 234443. 5143.78   6
  -3   0   2 93592.3 3007.16   7
   3   0  -2 99105.8 2447.35   9
   3   0  -2 94009.6 2361.33  14
   3   0  -1 3716.87 474.306   9
   3   0  -1 2767.92 501.065   6
  -3   0   1 3486.44 327.407  14
   3   0  -1 2482.83 337.507  14
   3   0  -1 3175.79 306.576  12
   3   0  -1 3671.76 326.913  13
  -3   0   1 3354.66 574.549   7
   3   0   0 75924.2 2011.40   9
  -3   0   0 70746.5 2583.80   7
   3   0   0 69439.6 1873.18  12
  -3   0   0 71884.3 2111.24  12
   3   0   0 66579.7 1541.56  14
   3   0   0 69404.9 2396.58   6
   3   0   1 2074.76 521.077   5
  -3   0  -1 1635.57 387.738   8
  -3   0  -2 7370.03 771.717   8
  -3   0  -2 6840.93 921.128   7
   3   0   2 6482.95 765.987  12
   3   0   2 6322.80 750.240   5
  -3   0  -2 6002.49 677.603  10
  -3   0  -3 2903.87 531.464   8
   3   0   3 3384.59 649.672  12
  -3   0  -3 3706.40 560.099  11
   3   0   3 3588.04 619.139   5
  -3   0  -3 2374.82 509.677  10
  -3   0  -4 4748.44 701.987   8
  -3   0  -4 4970.46 793.229  11
   3   0   4 3897.76 829.747   5
  -3   0  -4 3282.91 812.274  10
   3   0   5 2809.55 681.450  12
  -3   0  -5 2761.00 630.005  11
   3   0   5 3297.70 693.960   5
  -3   0  -5 3259.26 719.230  10
  -3   0  -6 9512.00 1315.46  11
   3   0   6 6904.32 1155.99  12
  -3   0  -6 9631.53 1310.49  10
   3   0   6 6370.65 1149.99   5
   3   1  -9 4517.86 1040.82  14
   3  -1  -9 3061.18 894.051  14
   3  -1  -9 3232.39 935.464  11
  -3   1   9 1393.92 514.378   7
   3  -1  -8-199.600 272.984  14
  -3   1   8 548.709 486.201   5
  -3  -1   8-279.533 422.272   5
   3   1  -8-308.462 427.949  14
   3  -1  -8 95.8173 310.955  11
   3   1  -8-114.392 280.332  11
  -3   1   8 537.627 395.719   7
  -3  -1   8 126.018 247.668   7
   3  -1  -7 0.30073 154.645   9
  -3  -1   7 361.030 481.015   5
   3  -1  -7-85.1966 241.197  14
  -3   1   7 295.388 507.823   5
   3   1  -7 585.872 371.933  14
   3  -1  -7 131.698 237.337  11
   3   1  -7-16.5282 152.504  11
  -3   1   7 236.917 291.792   7
  -3  -1   7-366.827 319.033   7
   3  -1  -6 6.94983 155.756   9
   3   1  -6-44.1375 135.650   9
   3   1  -6 125.665 359.383   6
   3  -1  -6 305.595 349.088   6
   3   1  -6 334.625 294.946  14
   3  -1  -6 8.09306 195.254  14
  -3   1   6 72.6317 129.755  12
   3   1  -6 17.4286 225.066  11
  -3   1   6-144.789 216.036   7
  -3  -1   6 155.965 213.958   7
   3  -1  -5 17260.0 1363.32   9
   3   1  -5 18251.5 1173.44   9
   3   1  -5 17171.8 1595.32   6
   3  -1  -5 17741.0 1637.08   6
   3  -1  -5 15645.9 1400.50  14
  -3   1   5 16369.0 840.974  12
   3   1  -5 18841.8 1451.07  14
  -3   1   5 16367.7 1450.88   7
  -3  -1   5 16066.8 1557.28   7
   3   1  -5 19550.1 1269.06  11
   3   1  -4 7687.69 1020.66   6
   3  -1  -4 6726.90 942.791   6
   3  -1  -4 9303.48 928.699   9
   3   1  -4 8621.17 760.683   9
   3   1  -4 8602.97 838.674  14
   3  -1  -4 7433.56 883.936  14
  -3   1   4 6585.17 376.392  12
   3   1  -4 9152.21 614.730  12
  -3   1   4 7364.21 916.952   7
  -3  -1   4 8296.67 1029.50   7
  -3  -1   4 8075.99 490.295  11
   3  -1  -3 2184.48 469.641   9
   3   1  -3 2403.37 409.482   9
   3   1  -3 1741.19 471.642   6
   3  -1  -3 2602.85 570.074   6
   3   1  -3 1630.52 327.204  14
   3  -1  -3 2113.10 440.110  14
  -3   1   3 2098.97 323.388  13
   3   1  -3 1888.02 242.982  12
  -3  -1   3 2330.10 231.869  11
  -3   1   3 2632.68 553.184   7
  -3  -1   3 1353.47 389.757   7
   3  -1  -2 1674.29 346.951  14
   3  -1  -2 1920.25 381.029   9
   3   1  -2 2359.20 482.195   6
   3  -1  -2 1938.73 428.343   6
   3   1  -2 2344.48 399.300   9
  -3   1   2 2538.77 296.625  13
  -3  -1   2 1785.26 204.605  11
   3   1  -2 2430.41 338.340  14
  -3   1   2 1736.89 424.163   7
  -3  -1   2 1379.11 404.955   7
  -3   1   2 2299.55 264.031   3
   3  -1  -1 69229.1 2123.26   9
   3  -1  -1 69796.6 2025.05  14
   3   1  -1 65110.7 1566.41  14
  -3   1   1 74660.8 1827.54  14
   3  -1  -1 72202.0 1782.42  13
   3  -1  -1 70557.6 1344.06  12
  -3   1   1 68856.3 2490.54   7
  -3  -1   1 73537.7 2615.85   7
  -3   1   1 72145.5 1524.56  12
   3   1  -1 70985.9 1822.40  12
   3  -1  -1 71109.8 1388.25   3
   3   1  -1 75115.7 2407.78   6
   3  -1  -1 71720.6 2352.83   6
   3  -1   0 12943.8 873.604   9
  -3   1   0 11603.8 1036.15   8
   3   1   0 12795.9 598.851  14
  -3   1   0 13289.9 653.327  14
  -3   1   0 13278.0 1133.43   7
   3  -1   0 12197.2 738.203  12
  -3  -1   0 12876.3 1113.34   7
   3   1   0 12280.1 858.098  12
  -3   1   0 14137.5 869.100  12
   3   1   0 12696.8 1025.99   6
   3  -1   0 12420.5 1031.35   6
   3  -1   1 53841.1 1715.75   9
  -3   1  -1 54722.2 975.725  14
  -3   1  -1 56358.6 2248.21   8
   3   1   1 48139.1 865.614  14
  -3   1  -1 53183.7 2403.40   7
   3  -1   1 54109.5 1868.72  12
   3   1   1 54528.3 2069.52  12
   3   1   1 59987.3 2298.66   5
   3  -1   1 59400.6 2322.84   5
  -3  -1  -1 56602.1 1551.87  11
  -3  -1  -1 56667.9 2428.35   7
   3  -1   2 647.023 224.565   9
  -3  -1  -2 564.732 233.499   8
   3  -1   2 1284.94 369.105  12
   3   1   2 720.378 315.702  12
  -3   1  -2 594.280 365.905   7
  -3  -1  -2 393.343 284.944   7
  -3   1  -2 846.109 322.291   8
  -3  -1  -2 463.687 171.768  11
  -3  -1  -2 469.996 231.703  10
  -3   1  -2 600.300 274.572  10
   3   1   2 718.838 296.590   5
   3  -1   2 423.153 298.889   5
   3  -1   3 366.141 101.333   9
  -3   1  -3 445.142 277.793   8
  -3  -1  -3 297.985 149.505   8
   3  -1   3 489.612 309.587  12
   3   1   3 1034.14 405.092  12
  -3  -1  -3 591.879 278.773  11
   3   1   3 450.920 298.871   5
   3  -1   3 309.393 198.505   5
  -3   1  -3 329.236 227.561  10
  -3  -1  -3 304.092 298.232  10
   3  -1   4 3471.45 457.325   9
  -3   1  -4 3977.82 632.301   8
   3  -1   4 3558.71 694.714  12
   3   1   4 3877.89 767.673  12
  -3   1  -4 4692.13 704.359  11
  -3  -1  -4 4517.45 754.511  11
   3   1   4 4229.29 755.277   5
   3  -1   4 3628.19 676.586   5
  -3   1  -4 3497.07 680.520  10
  -3  -1  -4 3984.30 781.602  10
   3  -1   5-31.3874 332.676  12
  -3  -1  -5 191.769 251.132  10
   3   1   5 272.225 309.190  12
  -3  -1  -5 144.769 176.773  11
  -3   1  -5 538.155 255.400  11
   3   1   5 332.579 262.541   5
   3  -1   5 714.122 376.352   5
  -3   1  -5 393.053 321.740  10
   3  -1   6 1698.16 501.733  12
   3   1   6 2552.86 721.078  12
  -3  -1  -6 2346.91 684.734  11
  -3   1  -6 2231.47 654.104  11
   3   1   6 2185.66 721.693   5
   3  -1   6 1813.70 657.891   5
  -3  -1  -6 2127.24 700.642  10
  -3  -1  -7-86.6749 347.984  10
   3   2  -8 2650.94 721.814  14
   3  -2  -8 3471.68 873.994  14
  -3   2   8 3525.39 873.586   5
  -3  -2   8 2798.28 834.588   5
  -3   2   8 2737.12 709.963   7
  -3   2   7 161.812 416.598   5
   3  -2  -7-688.258 437.022   9
   3   2  -7-132.682 288.956  14
  -3  -2   7-226.335 362.066   5
   3   2  -7-133.004 180.920  11
  -3   2   7-50.1387 186.215   7
  -3  -2   7 190.292 287.468   7
   3  -2  -7-84.8883 184.409  14
   3  -2  -6 7929.91 1061.07   9
   3   2  -6 8136.71 781.663   9
   3   2  -6 9256.35 1275.74   6
   3  -2  -6 9404.92 1332.24   6
   3   2  -6 8058.40 1052.11  14
   3  -2  -6 7313.33 1066.45  14
  -3   2   6 6947.73 1000.44   7
  -3  -2   6 7523.09 1187.29   7
   3   2  -6 9319.50 946.810  11
   3  -2  -5 49016.4 2420.10   9
   3   2  -5 46562.1 1764.23   9
   3   2  -5 46070.6 2635.11   6
   3  -2  -5 43461.3 2587.14   6
  -3   2   5 42515.8 2265.16   7
   3  -2  -5 42254.2 2403.63  14
  -3   2   5 44946.7 1389.59  12
  -3  -2   5 43849.6 2589.64   7
   3   2  -5 46648.7 1827.01  11
   3   2  -5 44809.2 2167.91  14
   3  -2  -4 655.305 307.439   9
   3  -2  -4 514.326 350.869  14
   3   2  -4 824.691 260.844   9
   3   2  -4 494.611 355.495   6
   3  -2  -4 1282.81 453.842   6
   3   2  -4 581.597 217.680  14
   3   2  -4 603.051 198.231  12
  -3   2   4 521.631 117.028  12
   3   2  -4 684.885 180.042  11
  -3   2   4 1048.50 308.788   7
  -3  -2   4 720.210 311.599   7
   3  -2  -3 23436.5 1512.73   9
   3   2  -3 20815.7 1091.06   9
   3  -2  -3 24262.2 1556.58  14
   3   2  -3 21215.0 1156.81  14
   3   2  -3 22063.6 1058.82  12
  -3   2   3 23322.9 1520.11   7
  -3  -2   3 24781.8 1735.15   7
  -3   2   3 20225.5 1136.88  13
  -3   2   3 23428.1 1234.34   3
   3   2  -3 22580.9 1626.05   6
   3  -2  -3 22092.2 1649.40   6
  -3   2   2 98263.5 2025.51   3
  -3  -2   2 93508.3 1295.85   3
   3  -2  -2 98644.1 2881.63   9
   3  -2  -2 96562.5 2812.90  14
   3   2  -2 100903. 2169.33  14
  -3   2   2 102863. 2151.00  13
  -3   2   2 99305.2 2961.18   7
  -3  -2   2 94516.8 3123.71   7
   3   2  -2 105065. 3047.19   6
   3  -2  -2 93778.8 2917.81   6
   3  -2  -1 46604.5 1893.57   9
   3   2  -1 48390.8 1318.88  14
  -3   2   1 45888.6 2033.69   7
  -3   2   1 51528.1 1312.28  12
  -3  -2   1 46282.9 2100.07   7
  -3  -2   1 47600.3 859.855  11
   3  -2  -1 47550.1 1486.62   3
   3   2  -1 47450.5 1976.31   6
   3  -2  -1 46302.3 1919.00   6
   3  -2   0 18041.9 1100.20   9
  -3   2   0 18409.9 1375.94   8
  -3   2   0 19006.6 1000.13  14
  -3   2   0 18019.4 1304.22   7
   3  -2   0 19598.2 997.455  12
  -3  -2   0 18108.8 1280.28   7
  -3   2   0 18608.2 1016.46  12
   3   2   0 19111.5 1236.53  12
  -3  -2   0 19132.4 782.043  11
   3   2   0 18328.6 728.263   3
   3   2   0 18289.2 1198.25   6
   3  -2   0 17894.6 1226.15   6
   3  -2   1 53701.0 1894.30   9
  -3   2  -1 54145.8 2341.91   8
  -3   2  -1 55278.6 1519.68  14
  -3   2  -1 52462.4 2446.66   7
  -3  -2  -1 58091.5 2443.82   7
   3  -2   1 54906.5 1975.13  12
   3   2   1 59003.8 2336.10  12
   3   2   1 57275.0 2238.77   5
   3  -2   1 55976.7 2262.71   5
  -3  -2  -1 54676.3 1654.45  11
  -3  -2  -1 59982.0 2133.36  10
  -3  -2  -2-66.6907 279.385   7
   3  -2   2 321.008 192.669   9
  -3   2  -2 79.2144 223.973   8
  -3  -2  -2 241.273 178.881   8
   3  -2   2 123.134 207.792  12
   3   2   2 514.078 301.962  12
  -3   2  -2 87.2661 76.7480  14
  -3  -2  -2 264.483 164.640  11
  -3  -2  -2 7.69867 241.368  10
  -3   2  -2 236.003 173.515  10
   3   2   2 137.002 205.190   5
   3  -2   2 428.170 261.515   5
   3  -2   3 30184.2 1375.91   9
  -3   2  -3 32424.4 1870.76   8
  -3  -2  -3 31641.3 1198.53   8
   3  -2   3 33231.9 1881.83  12
   3   2   3 33917.8 2091.97  12
   3   2   3 31200.6 1879.07   5
   3  -2   3 30265.5 1839.99   5
  -3  -2  -3 33971.3 1830.94  11
  -3   2  -3 32293.2 1588.19  10
  -3  -2  -3 34100.2 2011.88  10
  -3   2  -4 3157.81 628.211   8
   3  -2   4 1147.88 519.369  12
   3   2   4 998.322 466.730  12
  -3  -2  -4 2878.27 758.321  11
   3   2   4 2065.02 609.435   5
   3  -2   4 659.459 348.024   5
  -3   2  -4 1882.09 637.654  10
  -3  -2  -4 3525.66 751.700  10
   3  -2   5 695.094 390.873  12
  -3   2  -5 253.574 147.848   8
   3   2   5 542.596 393.723  12
  -3  -2  -5 925.774 474.045  11
  -3   2  -5 377.351 207.631  11
   3   2   5 958.528 448.989   5
   3  -2   5 1146.51 451.273   5
  -3  -2  -5 379.855 211.854  10
   3  -2   6 7127.94 1145.56  12
  -3   2  -6 6055.09 1006.77  11
  -3  -2  -6 6698.04 1175.52  11
   3   2   6 5639.29 1086.99  12
   3   2   6 5277.85 1053.34   5
   3  -2   6 6519.84 1162.56   5
  -3  -2  -6 6410.88 1208.87  10
   3   3  -8 5899.06 1140.91  14
   3  -3  -8 6284.07 1178.43  14
  -3   3   8 7195.72 1300.14   5
  -3  -3   8 6454.53 1221.34   5
   3  -3  -7 325.796 274.547   9
   3   3  -7 937.024 477.324  14
   3  -3  -7 617.395 368.970  14
  -3   3   7 711.019 505.808   5
  -3  -3   7 644.942 380.866   5
  -3   3   7 577.844 386.124   7
  -3  -3   6 21145.2 2026.38   7
  -3   3   6 21932.6 1950.59   5
  -3  -3   6 18730.5 1755.11   5
   3   3  -6 22828.5 1706.02  14
   3  -3  -6 22234.6 1959.10  14
  -3   3   6 21205.4 1637.78   7
   3   3  -6 24658.2 1454.99  11
   3  -3  -6 22067.6 1951.97   9
   3  -3  -5 33518.5 2172.92   9
   3   3  -5 34744.2 2301.01   6
   3  -3  -5 31679.5 2194.75   6
   3   3  -5 32208.1 1396.08   9
   3   3  -5 31758.8 1790.53  14
  -3   3   5 33182.4 1324.33  12
  -3   3   5 30060.2 1835.78   7
  -3  -3   5 28437.7 2162.34   7
   3  -3  -5 30424.5 2096.11  14
   3   3  -5 32523.4 1408.05  11
   3  -3  -4 109193. 3686.63   9
   3   3  -4 109431. 3690.29   6
   3  -3  -4 107314. 3685.21   6
   3   3  -4 108233. 2506.95   9
   3   3  -4 109170. 2958.26  14
   3  -3  -4 99890.1 3613.08  14
  -3   3   4 104064. 1975.51  12
  -3   3   4 108408. 3279.97   7
  -3  -3   4 103539. 3777.60   7
   3   3  -4 105422. 1921.01  11
   3   3  -3 5426.77 832.436   6
   3  -3  -3 4202.48 696.940   9
   3  -3  -3 4673.96 735.909   6
   3   3  -3 4466.43 627.447   2
  -3   3   3 3140.26 534.458  13
  -3   3   3 4450.28 650.288   7
  -3   3   3 4428.69 409.480  12
  -3  -3   3 5517.01 901.437   7
  -3   3   3 4072.51 581.101   3
   3  -3  -2 58635.1 2443.25   9
  -3   3   2 61473.1 1821.81   3
  -3   3   2 57196.1 2510.56   8
   3   3  -2 60974.7 2096.00   2
  -3   3   2 60918.6 1892.74  13
  -3   3   2 57724.5 1321.15  12
  -3   3   2 58180.4 2230.53   7
  -3  -3   2 58437.6 2512.73   7
   3   3  -2 61778.6 2369.36   6
   3  -3  -2 54625.4 2177.32   6
  -3  -3   2 61151.2 1410.43   3
   3  -3  -1 13267.7 1117.64   9
  -3   3   1 13324.1 1225.94   8
   3   3  -1 15073.2 1012.76   2
  -3   3   1 14573.3 1130.83   7
  -3   3   1 13628.6 778.088  12
  -3  -3   1 14509.7 1202.09   7
   3   3  -1 15991.9 1143.26   6
   3  -3  -1 14531.6 1090.30   6
   3  -3   0 43685.8 1932.83   9
  -3   3   0 44351.8 2215.15   8
   3   3   0 47441.6 1738.68   2
  -3   3   0 46316.3 2163.72   7
  -3  -3   0 43532.7 2020.71   7
   3   3   0 45792.5 2170.25  12
  -3  -3   0 49408.3 1450.78  11
   3   3   0 46521.3 1955.44   6
   3  -3   0 45077.3 1929.36   6
   3   3   0 47416.5 1361.49   3
   3  -3   1 12909.5 997.633   9
  -3   3  -1 13768.5 1240.71   8
   3   3   1 13440.0 926.143   2
  -3   3  -1 13077.3 925.426  14
  -3   3  -1 13725.9 1250.39   7
   3  -3   1 13840.8 1060.10  12
  -3  -3  -1 15131.8 1232.47   7
   3   3   1 13362.1 1210.50  12
   3   3   1 15881.9 1213.18   5
   3  -3   1 16845.6 1277.02   5
  -3  -3  -1 14685.5 940.979  11
  -3  -3  -1 14117.3 1098.00  10
   3  -3   2 40622.8 1758.48   9
   3  -3   2 42249.4 2045.38   5
  -3  -3  -2 42691.2 2209.03   7
  -3   3  -2 45073.6 2292.98   8
   3  -3   2 41467.4 2036.79  12
   3   3   2 44098.2 2335.29  12
   3   3   2 44089.6 2027.65   5
  -3  -3  -2 42527.1 1876.28  11
  -3  -3  -2 42902.6 2138.89  10
  -3   3  -2 41002.9 1444.39  10
   3  -3   3 651.948 231.952   9
  -3   3  -3 274.635 159.152   1
  -3   3  -3 464.769 282.236   8
   3  -3   3 861.929 360.332  12
   3   3   3 115.425 313.158  12
  -3  -3  -3 842.121 342.810  11
  -3   3  -3 529.767 219.776  10
  -3  -3  -3 607.277 396.376  10
   3   3   3 782.779 329.826   5
   3  -3   3 863.709 386.796   5
  -3   3  -4 9379.80 1140.52   8
   3  -3   4 7952.08 1095.06   5
   3  -3   4 8453.31 1077.33  12
   3   3   4 7356.11 1082.71   5
   3   3   4 8120.44 1164.93  12
  -3  -3  -4 9381.25 1160.40  11
  -3  -3  -4 8553.10 1280.93  10
  -3   3  -5 308.035 195.548   8
   3  -3   5 55.9801 251.679  12
   3   3   5 447.497 354.903  12
  -3  -3  -5-181.404 284.294  11
   3   3   5 741.903 405.896   5
   3  -3   5 1023.48 494.890   5
  -3  -3  -5-13.1453 222.633  10
   3  -3   6 432.449 348.207  12
  -3  -3  -6 845.938 509.372  11
  -3   3  -6 235.899 231.998  11
   3   3   6 352.324 377.022   5
   3  -3   6-46.7350 264.574   5
  -3  -3  -6-26.3392 355.108  10
   3   4  -8 553.515 233.597  14
  -3  -4   8 212.452 307.651   5
   3   4  -7 1963.46 521.328  14
  -3   4   7 2990.40 869.832   5
  -3  -4   7 4201.37 977.541   5
   3  -4  -7 3072.66 914.295   9
   3  -4  -6 4778.20 1040.91   9
   3   4  -6 4412.44 742.727  14
  -3   4   6 6029.21 834.044   7
  -3   4   6 5995.89 1045.60   5
  -3  -4   6 5374.44 953.931   5
  -3  -4   6 6008.91 1144.75   7
   3   4  -5 74190.7 3394.37   6
   3  -4  -5 73053.7 3373.33   6
   3   4  -5 74738.5 2078.95   9
   3   4  -5 67740.0 2639.94  14
  -3  -4   5 66800.2 3391.81   7
  -3   4   5 69175.7 2138.46  12
  -3   4   5 71011.1 2722.26   7
   3  -4  -5 75141.4 3455.87   9
  -3   4   4 616.971 345.100   3
   3  -4  -4-138.476 231.792   9
   3   4  -4 316.881 297.397   6
   3  -4  -4-41.4711 196.558   6
  -3   4   4 871.696 358.804   8
  -3   4   4 593.288 225.650  12
   3   4  -4 149.875 100.497  11
  -3   4   4 43.4743 151.362   7
  -3  -4   4 687.947 432.354   7
   3   4  -4 448.523 204.326   2
   3  -4  -3 5428.18 920.944   9
   3   4  -3 5098.51 773.360   6
   3  -4  -3 4790.95 777.960   6
   3   4  -3 6327.30 778.760   2
  -3   4   3 5852.09 731.763  13
  -3   4   3 4872.90 758.199   8
  -3   4   3 5538.45 682.464   7
  -3  -4   3 5153.79 833.833   7
  -3   4   3 4900.28 657.308   3
   3  -4  -2 31938.7 1930.33   9
  -3   4   2 30685.9 1931.25   8
   3   4  -2 33307.9 1629.66   2
   3   4  -2 29015.6 673.076  13
  -3   4   2 29965.8 1490.44  13
  -3   4   2 25543.2 1218.20  12
  -3   4   2 28987.0 1541.56   7
  -3  -4   2 29479.8 1824.27   7
  -3  -4   2 32179.7 1249.19   3
   3   4  -2 31726.1 1670.85   6
   3  -4  -2 27313.7 1545.71   6
   3  -4  -1 69771.5 2785.76   9
  -3   4   1 72057.2 2951.36   8
   3   4  -1 74099.7 2375.09   2
  -3   4   1 77431.7 2205.62  13
  -3   4   1 70653.3 2506.38   7
  -3  -4   1 69909.1 2664.03   7
   3   4  -1 75014.4 2534.38   6
   3  -4  -1 67298.8 2403.43   6
   3   4   0 13350.4 829.205   3
   3  -4   0 12976.4 1159.05   9
  -3   4   0 13888.6 1299.06   8
   3   4   0 14273.2 1032.03   2
  -3   4   0 11570.6 1104.04   7
  -3  -4   0 12792.4 1095.73   7
   3   4   0 13753.7 1056.84   6
   3  -4   0 12597.4 1028.91   6
   3  -4   1 61026.5 2410.43   9
  -3   4  -1 61147.7 2776.09   8
   3   4   1 67279.9 2201.06   2
  -3  -4  -1 64276.9 2560.65   7
   3   4   1 65512.5 2933.31  12
  -3  -4  -1 67067.7 2251.59  11
   3   4   1 63287.4 2162.22   3
   3   4   1 64969.4 2379.68   6
  -3  -4  -1 67416.7 2587.00  10
   3  -4   1 67018.3 2503.66   6
   3   4   2 436.720 271.675   5
   3  -4   2 503.257 191.814   5
   3  -4   2 654.558 266.732   9
  -3   4  -2 411.072 299.053   8
   3  -4   2 1003.60 410.548  12
  -3   4  -2 571.845 319.761   1
   3   4   2 1328.49 465.037  12
  -3  -4  -2 681.899 282.008   7
  -3  -4  -2 275.857 173.804  11
   3   4   2 407.723 211.138   2
  -3  -4  -2 976.967 372.727  10
  -3   4  -2 434.744 153.502  10
   3  -4   3 36789.8 1776.30   9
  -3   4  -3 42238.6 2440.03   8
   3   4   3 39940.8 1607.47   2
   3  -4   3 39964.0 2310.34  12
   3   4   3 39051.1 2499.77  12
   3   4   3 40392.9 2142.74   5
   3  -4   3 39689.3 2115.34   5
  -3  -4  -3 40238.0 2194.37  11
  -3  -4  -3 39381.5 2429.74  10
  -3   4  -3 44014.6 2116.22   1
  -3   4  -4 2058.43 730.069   8
   3  -4   4 219.784 309.241  12
   3   4   4 969.585 500.060  12
  -3  -4  -4 1151.31 726.284  10
   3   4   4 1137.36 590.432   5
   3  -4   4 806.793 428.217   5
  -3   4  -5 3693.11 774.496   8
   3  -4   5 4785.09 929.188  12
   3   4   5 2485.24 711.968  12
  -3  -4  -5 4086.47 841.331  11
  -3  -4  -5 2899.87 682.371  10
   3   4   5 3784.43 832.489   5
   3  -4   5 4028.06 818.635   5
  -3  -4  -6 4422.85 1041.65  11
   3   4   6 4751.17 952.328   5
   3  -4   6 4565.06 928.841   5
  -3   5   8 1452.23 661.971   5
  -3  -5   8 1836.12 614.290   5
   3   5  -7 564.922 340.076  14
  -3   5   7 357.086 281.855   5
  -3  -5   7 522.283 481.445   5
  -3  -5   7 522.584 590.378   7
   3  -5  -6 2095.52 840.009   9
   3   5  -6 4425.04 740.041  14
  -3   5   6 2042.77 531.369   8
  -3   5   6 2791.02 766.576   5
  -3  -5   6 2109.44 641.803   5
  -3   5   6 2871.84 662.714   1
  -3   5   6 3200.29 743.024   3
  -3  -5   6 3799.53 968.891   7
   3   5  -5 12087.1 1363.78   6
   3  -5  -5 10959.3 1322.45   6
   3   5  -5 12112.1 836.754   9
  -3   5   5 10040.9 1152.36   8
   3   5  -5 12034.9 1165.81   2
  -3   5   5 10117.2 1264.45   1
  -3  -5   5 10119.8 1353.41   7
  -3   5   5 12621.0 1382.42   3
   3  -5  -5 11122.9 1420.44   9
   3   5  -4 39997.9 2289.92   6
   3  -5  -4 36725.5 2206.18   6
  -3   5   4 34794.7 2107.38   8
  -3   5   4 35326.6 1654.73   7
  -3   5   4 33105.4 1660.30  12
  -3  -5   4 32755.3 2306.28   7
  -3   5   4 40087.4 2275.64   3
   3   5  -4 42052.1 2069.04   2
   3  -5  -4 38068.3 2529.17   9
   3   5  -3 913.866 367.268   2
   3  -5  -3 158.703 301.996   9
  -3   5   3 259.490 211.544   3
   3   5  -3 370.803 260.717   6
   3  -5  -3 311.347 269.201   6
  -3   5   3 346.658 269.063   8
  -3   5   3 273.858 218.206  13
  -3   5   3 128.083 163.982   7
  -3  -5   3-161.771 284.264   7
   3   5  -2 2887.08 582.041   2
   3  -5  -2 2393.15 621.395   9
   3   5  -2 2926.76 531.402   6
   3  -5  -2 2272.40 483.947   6
  -3   5   2 3479.66 683.687   8
   3   5  -2 3169.99 296.250  13
  -3   5   2 2392.14 506.721  13
  -3   5   2 2474.63 453.937   7
  -3  -5   2 2951.34 595.127   7
   3  -5  -1 2721.72 621.221   9
   3   5  -1 3617.68 578.877   2
   3   5  -1 3071.13 549.570   6
   3  -5  -1 2942.30 526.721   6
  -3   5   1 3048.01 695.527   8
  -3   5   1 2949.91 529.331  13
  -3   5   1 3266.20 550.829   7
   3   5  -1 2990.25 261.880  11
  -3  -5   1 3245.76 645.789   7
   3  -5   0 6540.20 890.580   9
  -3   5   0 6112.07 883.699   1
  -3   5   0 6410.09 957.724   8
  -3  -5   0 6411.76 770.647   7
   3   5   0 7825.98 836.420   2
   3   5   0 6975.04 498.998  11
  -3   5   0 5991.70 564.313  10
  -3  -5   0 6617.84 806.849  10
   3   5   0 6820.24 765.856   6
   3  -5   0 7063.04 789.480   6
   3  -5   1 16531.5 1355.50   9
  -3   5  -1 17839.3 1509.93   1
  -3   5  -1 17531.2 1574.27   8
   3  -5   1 16974.8 1688.09   4
  -3  -5  -1 19312.4 1383.06   7
   3   5   1 18817.2 1248.63   2
   3   5   1 19381.9 1733.62  12
  -3  -5  -1 19058.3 1267.03  11
  -3  -5  -1 19065.0 1473.64  10
   3   5   1 18634.2 1283.97   6
   3  -5   1 19140.9 1390.18   6
   3   5   1 17032.7 1187.18   3
   3  -5   2 5768.98 780.526   9
  -3   5  -2 5404.60 812.747   1
  -3   5  -2 5778.22 961.829   8
   3   5   2 7084.11 759.712   2
   3   5   2 7237.65 879.947   5
   3  -5   2 5921.79 828.749   5
  -3  -5  -2 5226.55 741.180   7
  -3  -5  -2 6498.53 859.972  11
   3  -5   2 5470.91 983.008   4
   3   5   2 5206.64 747.378   3
  -3  -5  -2 6169.29 921.435  10
   3   5   2 5126.83 933.462  12
  -3   5  -3-268.496 220.14   8
   3   5   3 171.032 322.106  12
  -3   5  -3-199.793 236.003   1
  -3  -5  -3 31.3705 158.137  11
  -3  -5  -3-43.9607 225.130  10
   3   5   3 39.5205 157.587   2
   3   5   3 142.162 254.478   5
   3  -5   3-8.01150 175.659   5
  -3   5  -4 1488.72 487.881   8
   3  -5   4 1336.53 459.504  12
   3   5   4 1488.19 572.366  12
  -3  -5  -4 1181.41 404.429  11
  -3  -5  -4 2670.36 754.879  10
   3   5   4 1607.12 454.758   5
   3  -5   4 1238.10 410.239   5
  -3   5  -5 267.613 437.776   8
   3  -5   5-60.0647 264.127  12
   3   5   5-82.3928 215.927  12
  -3  -5  -5 264.043 403.906  11
  -3  -5  -5 589.432 510.954  10
   3   5   5-140.486 276.907   5
   3  -5   5 450.544 322.885   5
   3   5   6 514.804 313.124   5
   3  -5   6 221.111 291.116   5
  -3   6   8 866.283 429.376   5
  -3  -6   8 917.177 457.490   5
  -3   6   7 1796.04 616.383   3
  -3   6   7 1560.37 544.371   5
  -3  -6   7 716.402 441.966   5
   3   6  -7 1240.95 446.512  14
  -3  -6   7 1375.20 622.155   7
  -3   6   6 416.371 320.686   3
  -3   6   6 87.1103 171.811   1
   3   6  -6 753.468 428.072  14
  -3   6   6 419.207 268.451   5
  -3  -6   6-77.7149 297.122   5
  -3  -6   6-198.795 343.418   7
   3   6  -6 105.079 221.214   2
   3  -6  -5 1632.77 700.015   9
  -3   6   5 2076.84 599.639   3
  -3   6   5 3652.51 781.489   1
  -3   6   5 1526.13 453.768   8
  -3   6   5 1961.31 551.554   5
  -3  -6   5 1423.10 496.263   5
  -3  -6   5 1351.07 563.016   7
   3   6  -5 3418.20 686.797   2
   3   6  -4 361.796 260.312   2
   3  -6  -4 289.467 248.355   9
  -3   6   4 233.938 238.834   3
  -3   6   4 63.8505 259.980   1
   3   6  -4 837.703 350.358   6
   3  -6  -4 871.448 376.676   6
  -3   6   4 452.280 307.658   8
  -3  -6   4 279.852 317.460   7
  -3   6   3 16579.8 1398.99   3
   3   6  -3 19371.7 1485.59   6
   3  -6  -3 16247.7 1396.23   6
  -3   6   3 16336.9 1505.13   8
  -3   6   3 17475.7 1662.31   1
   3   6  -3 16525.1 1327.44   2
  -3  -6   3 14603.1 1542.40   7
  -3   6   3 14501.9 1320.45  13
   3  -6  -3 15632.1 1749.20   9
   3  -6  -2 10125.8 1349.03   9
  -3  -6   2 10519.6 1165.65   7
   3   6  -2 11530.8 646.523  13
  -3   6   2 11135.6 1227.34   8
  -3   6   2 11370.4 1316.50   1
  -3   6   2 11024.7 1054.98  13
  -3   6   2 10085.5 862.171   7
   3   6  -2 12191.5 1112.89   2
   3   6  -2 12112.3 1066.67   6
   3  -6  -2 9401.91 925.733   6
   3  -6  -1 793.591 328.204   9
   3   6  -1 1077.63 387.827   2
   3   6  -1 883.376 283.756   6
   3  -6  -1 653.357 257.847   6
  -3   6   1 684.321 284.379   8
  -3   6   1 828.149 303.210  13
  -3   6   1 1314.45 478.654   1
  -3  -6   1 467.467 239.572   7
   3  -6  -1 802.076 283.550   4
  -3  -6   1 394.304 267.841  10
   3  -6   0 5008.96 857.482   9
  -3   6   0 6134.07 974.217   1
  -3   6   0 5923.55 961.857   8
   3   6   0 6071.19 753.220   2
  -3  -6   0 4584.33 651.550   7
   3  -6   0 5688.31 996.744   4
   3   6   0 6688.89 771.465   6
   3  -6   0 5634.74 703.487   6
  -3  -6   0 4903.52 731.970  10
   3  -6   1 1129.62 928.104   9
   3   6   1 1081.59 545.909   6
   3  -6   1 706.942 537.224   6
   3   6   1 930.921 414.948   2
   3   6   1 1372.18 463.342   3
  -3   6  -1 1013.96 658.410   8
  -3   6  -1 437.780 398.598   1
  -3  -6  -1 982.160 406.951   7
   3  -6   1 2437.88 1132.58   4
  -3  -6  -1 323.583 252.859  10
   3  -6   2 1472.50 464.180   6
   3  -6   2 1840.41 435.549   9
   3   6   2 2643.69 504.634   2
   3   6   2 2238.78 553.887   3
  -3   6  -2 1768.85 581.090   8
   3   6   2 2534.66 717.378  12
  -3  -6  -2 2515.80 538.430   7
   3  -6   2 1765.82 592.271   4
   3   6   2 2419.63 512.679   6
  -3   6  -2 2964.14 641.696   1
  -3  -6  -2 2232.70 533.164  10
   3   6   3 596.538 326.192   5
   3  -6   3 1153.12 337.002   5
   3   6   3 1009.21 447.936   3
   3   6   3 1513.16 377.320   2
  -3   6  -3 1015.38 468.476   8
   3   6   3 2393.56 780.713  12
  -3  -6  -3 1580.63 520.239  11
   3  -6   3 391.619 301.138   4
  -3  -6  -3 2032.70 658.735  10
  -3   6  -4 1678.93 574.459   8
   3   6   4 740.055 495.681  12
  -3  -6  -4 1236.51 517.609  11
   3   6   4 9.10197 174.123   3
  -3  -6  -4 1739.43 771.100  10
   3   6   4 719.917 412.617   5
   3  -6   4 1200.97 532.784   5
  -3   6  -5-252.235 247.432   8
   3   6   5-367.478 347.539   5
   3  -6   5 211.656 193.447   5
  -3  -7   7 190.492 305.709   4
  -3   7   6 2451.19 770.541   3
  -3   7   6 2221.28 641.731   1
  -3  -7   6 1546.46 658.545   7
   3   7  -6 2793.20 691.256   2
   3   7  -5 4630.74 779.254   2
  -3   7   5 3033.23 725.027   3
  -3   7   5 3534.23 692.549   8
  -3   7   5 4193.87 881.700   1
  -3  -7   5 4132.87 947.255   7
   3  -7  -5 3183.12 1011.09   9
   3  -7  -4 479.654 444.046   9
   3   7  -4 855.841 351.349   2
  -3   7   4 296.460 235.915   3
  -3   7   4 654.206 315.198   8
  -3   7   4 272.533 291.775   1
  -3  -7   4 515.645 325.404   7
   3  -7  -3 563.522 403.268   9
   3   7  -3-92.6371 252.515   2
  -3   7   3-70.3419 178.579   8
  -3   7   3 156.999 226.902  13
  -3  -7   3-54.8848 186.034   7
  -3   7   3 236.630 283.653   1
  -3   7   2 9702.98 1291.28   1
  -3   7   2 10877.3 1295.46   8
  -3   7   2 9804.85 1064.26  13
  -3  -7   2 8746.40 1105.89   7
   3   7  -2 12201.8 1186.70   2
   3  -7  -2 8333.55 1390.19   9
   3  -7  -1 75.6883 251.374   9
   3   7  -1 178.761 230.638   2
  -3   7   1 316.771 424.494   8
  -3   7   1 326.190 297.346  13
  -3   7   1 266.366 296.343   1
   3  -7  -1-225.772 428.167   4
  -3  -7   1-63.3957 162.128   7
  -3  -7   1-337.746 270.472  10
   3  -7   0 1265.58 459.469   9
  -3   7   0 701.880 435.119   1
   3   7   0 1275.63 431.205   2
  -3   7   0 567.539 457.747   8
   3  -7   0 754.497 425.038   4
  -3  -7   0 1340.77 439.366   7
  -3  -7   0 1143.00 433.862  10
   3   7   1 12585.6 1160.06   3
  -3   7  -1 13042.6 1496.61   8
   3  -7   1 10793.4 1550.97   4
   3   7   1 12862.6 1192.76   2
  -3  -7  -1 12105.0 1372.68  10
  -3   7  -1 12803.4 1416.61   1
   3  -7   1 11196.8 1337.42   9
   3  -7   2 1669.46 457.913   9
   3   7   2 2094.74 495.464   2
   3   7   2 2056.42 524.588   3
  -3   7  -2 2011.63 638.033   8
   3   7   2 2462.50 800.640  12
  -3   7  -2 1712.84 567.371   1
   3  -7   2 678.442 457.328   4
  -3  -7  -2 3381.92 831.355  10
   3   7   3-173.662 163.296   2
   3   7   3-23.2268 248.603   3
  -3   7  -3 60.9183 239.234   8
   3   7   3 23.1958 340.942  12
   3  -7   3 528.738 557.564   4
  -3  -7  -3-4.71745 224.118  10
   3   7   4 645.019 321.079   3
  -3   7  -4 2874.01 772.717   8
   3   7   4 428.776 386.871  12
   3  -7   4 1172.01 612.081   4
  -3  -7  -4 3365.07 932.230  10
   3   7   5 93.8718 223.729   3
  -3  -7  -5 322.724 274.299  11
  -3  -8   6 1394.26 701.232   4
  -3   8   6 756.255 411.420   1
  -3  -8   6 343.282 489.337   7
   3   8  -6 898.836 392.471   2
   3   8  -5-40.3619 218.640   2
  -3  -8   5 502.948 311.882   7
  -3   8   5 683.251 480.211   1
  -3   8   4 533.767 208.413   1
   3   8  -4-90.9620 181.182   2
  -3   8   4 292.604 367.957   8
  -3   8   4-111.959 223.777   3
  -3   8   4-268.149 264.165  13
  -3  -8   4 338.834 364.832   7
   3  -8  -3 4395.61 1045.63   9
  -3   8   3 2489.43 744.354   1
   3   8  -3 3636.38 711.793   2
  -3   8   3 3188.28 699.092   8
  -3   8   3 2743.89 636.145  13
  -3  -8   3 3708.94 868.485   7
  -3  -8   3 2975.07 578.520  10
  -3   8   2 1779.05 594.849   1
   3  -8  -2 2828.99 747.485   9
   3   8  -2 2560.82 589.214   2
  -3   8   2 1755.69 483.993  13
  -3   8   2 3182.64 744.278   8
   3  -8  -2 1703.99 643.117   4
  -3  -8   2 1912.27 544.129   7
  -3  -8   2 1840.59 480.995  10
  -3   8   1 343.039 185.577   1
   3  -8  -1 397.515 314.706   9
   3   8  -1 219.775 213.910   2
  -3   8   1 886.619 418.507   8
  -3   8   1 331.690 338.268  13
   3  -8  -1 111.885 273.787   4
  -3  -8   1 243.720 244.212  10
   3  -8   0 1933.18 642.343   9
   3   8   0 1310.41 460.243   2
  -3   8   0 2258.66 665.688   8
   3  -8   0 1204.88 559.128   4
  -3   8   0 1490.86 605.308   1
  -3  -8   0 1711.99 529.678  10
   3  -8   1 255.039 448.697   9
  -3   8  -1 427.037 384.798   8
   3   8   1 625.176 418.773   2
   3  -8   1 239.224 249.469   4
  -3   8  -1 305.281 293.873   1
  -3  -8  -1 918.537 868.662  10
  -3  -8  -2 1148.50 489.249   4
   3   8   2 953.339 338.241   2
   3   8   2 1177.77 450.759   3
  -3   8  -2 186.700 268.577   8
   3   8   2 943.011 606.544  12
   3  -8   2 1204.57 568.776   4
  -3  -8  -2 821.426 350.827  10
   3   8   3 286.706 267.163   2
   3   8   3 243.226 276.470   3
  -3   8  -3-391.290 482.762   8
   3   8   3 249.385 683.264  12
   3  -8   3-62.7527 326.371   4
  -3  -8  -3 1157.42 554.405  10
   3   8   4 112.792 369.275   3
   3  -8   4 153.502 416.356   4
  -3   9   5 4526.02 993.253   1
  -3  -9   5 3379.92 878.629   7
  -3   9   4 7830.10 1222.46  13
   3   9  -4 8366.57 1140.68   2
  -3   9   4 8014.23 1317.53   1
  -3  -9   4 7187.38 1257.62   7
   3   9  -3 192.895 332.522   2
  -3   9   3-57.0569 350.796   8
  -3   9   3-521.869 379.882  13
  -3   9   3-181.580 385.781   1
   3   9  -2 544.126 270.946   2
  -3   9   2 141.456 254.069   8
  -3   9   2 1053.43 488.266  13
  -3   9   2 588.774 593.123   1
   3  -9  -2-113.983 383.044   4
   3   9  -1 369.416 327.732   2
  -3   9   1 167.853 188.315   8
  -3   9   1 508.618 338.994  13
  -3   9   1-10.6620 196.919   1
   3  -9  -1 249.357 499.259   4
  -3  -9   1-35.3829 174.884  10
  -3   9   0 6756.70 1154.09   8
   3   9   0 5876.73 919.333   2
   3  -9   0 6199.90 1245.87   4
  -3  -9   0 7486.56 1129.26  10
   3   9   1 3855.81 746.195   2
  -3  -9  -1 3888.55 898.483   4
  -3   9  -1 4695.92 1018.16   8
   3  -9   1 2369.66 868.366   4
  -3  -9  -1 4200.17 933.495  10
   3   9   2 1783.99 492.598   2
   3  -9   2 505.038 417.302   4
  -3  -9  -2 1634.70 608.341  10
   3   9   3-11.9846 257.375   3
  -3  10   3 5475.95 1009.39   8
  -3  10   2 1455.30 622.515   8
   3 -10  -2 622.347 431.179   4
  -3 -10   1 6650.97 1278.78   4
  -3  10   1 8335.67 1327.82   8
   3 -10  -1 6021.96 1353.71   4
  -3 -10   0 446.731 493.654   4
  -3 -10  -1 8163.75 1406.89   4
  -3 -10  -1 7309.71 1287.77  10
   4   0  -8 505.179 322.461  14
  -4   0   8 945.593 501.424   5
  -4   0   8 484.044 469.352   7
   4   0  -7-15.6737 182.277   9
   4   0  -7 310.966 388.750   6
   4   0  -7-428.126 385.453  14
  -4   0   7-771.476 374.057   7
   4   0  -6 60004.2 2722.56   9
   4   0  -6 58597.1 3397.99   6
   4   0  -6 59390.9 3101.47  14
  -4   0   6 56566.6 3157.54   7
   4   0  -5 53399.6 2948.11   6
   4   0  -5 54567.0 2441.35   9
   4   0  -5 53567.1 2647.00  14
  -4   0   5 55949.0 1569.74  13
  -4   0   5 53074.5 2907.61   7
   4   0  -4 15257.7 1564.28   6
   4   0  -4 16454.3 1283.57   9
   4   0  -4 13801.1 1229.88  14
  -4   0   4 13713.0 612.172  13
  -4   0   4 15362.9 1625.29   7
   4   0  -3 50312.9 2215.96   9
   4   0  -3 48991.6 2088.90  14
  -4   0   3 49060.1 2542.28   7
  -4   0   3 49671.0 1647.82  11
  -4   0   3 46073.4 1075.25   3
   4   0  -3 45193.3 2383.76   6
   4   0  -2 36848.5 1775.47   9
   4   0  -2 32315.9 1587.40  14
   4   0  -2 35140.7 864.360  12
  -4   0   2 35403.0 2092.21   7
   4   0  -2 35896.1 2065.44   6
   4   0  -1 22135.7 1325.50   9
   4   0  -1 17812.3 1084.84  14
   4   0  -1 19298.5 932.253  12
  -4   0   1 17980.6 1586.26   7
   4   0  -1 19623.1 1497.10   6
   4   0   0 23257.0 1369.15   9
   4   0   0 19568.8 986.191  14
  -4   0   0 19565.2 1666.53   7
   4   0   0 23565.6 1289.36  12
   4   0   0 21381.7 1599.09   6
   4   0   1 14097.4 1031.21   9
  -4   0  -1 15026.9 1285.06   8
   4   0   1 14320.5 1133.04  12
  -4   0  -1 15722.8 1498.02   7
   4   0   1 15130.8 1321.81   6
   4   0   2 47985.2 1915.94   9
  -4   0  -2 53580.9 2398.62   8
  -4   0  -2 48905.1 2786.95   7
   4   0   2 47721.6 2295.04  12
   4   0   2 49435.2 2584.30   5
  -4   0  -2 49342.3 2121.26  10
   4   0   3 452.107 207.918   9
   4   0   3 475.816 299.764  12
  -4   0  -3 1172.07 448.468   8
  -4   0  -3 1342.67 386.427  11
  -4   0  -3 388.559 336.129  10
   4   0   3 287.771 324.527   5
   4   0   4 1770.01 399.420   9
   4   0   4 852.443 341.276  12
  -4   0  -4 1901.36 489.578  11
  -4   0  -4 1638.45 507.519  10
   4   0   4 1611.56 542.053   5
   4   0   5 1314.61 544.578  12
  -4   0  -5 1866.82 620.778  11
  -4   0  -5 1749.10 537.901  10
   4   0   5 1288.60 567.784   5
  -4   1   9 1085.91 530.849   7
   4   1  -8 6940.05 1213.97  14
   4  -1  -8 5909.53 1185.78  14
  -4   1   8 6735.27 1233.66   5
  -4  -1   8 5391.94 1168.42   5
  -4   1   8 5759.06 1153.68   7
  -4  -1   8 5517.74 1146.73   7
   4  -1  -7 547.603 423.596   9
   4   1  -7 956.993 797.020   6
   4   1  -7 1017.71 488.276  14
   4  -1  -7 719.620 448.811  14
  -4   1   7 1040.11 554.730   7
  -4  -1   7 74.2204 265.165   7
   4  -1  -6 2548.36 621.823   9
   4   1  -6 3225.54 601.263   9
   4   1  -6 2794.77 769.890   6
   4  -1  -6 2258.03 798.518   6
   4   1  -6 2535.36 643.272  14
   4  -1  -6 2596.79 676.892  14
  -4   1   6 2346.95 622.563   7
  -4  -1   6 2516.59 718.587   7
   4   1  -5 48904.3 2849.57   6
   4  -1  -5 50342.0 2531.63   9
   4  -1  -5 48245.0 2830.84   6
   4   1  -5 52708.0 2299.39   9
   4   1  -5 51563.0 2579.92  14
   4  -1  -5 52001.0 2698.62  14
  -4   1   5 49900.3 2786.03   7
  -4  -1   5 47249.4 2817.60   7
   4   1  -4 10993.2 1314.40   6
   4  -1  -4 9482.47 1204.87   6
   4  -1  -4 9098.97 1086.71   9
   4   1  -4 9563.54 1007.91   9
   4   1  -4 10152.5 1044.74  14
   4  -1  -4 9543.48 1083.49  14
  -4   1   4 8751.73 642.651  13
  -4   1   4 9226.26 1254.18   7
  -4  -1   4 10709.4 1362.34   7
   4  -1  -3 944.403 358.005   9
   4   1  -3 1493.00 396.198   9
  -4   1   3 1040.81 196.379   3
   4   1  -3 874.995 394.428   6
   4  -1  -3 809.456 417.272   6
   4   1  -3 1421.85 377.321  14
   4  -1  -3 563.174 240.901  14
   4   1  -3 898.581 161.926  12
   4   1  -3 743.417 151.529  12
  -4  -1   3 862.435 153.358  11
  -4   1   3 652.944 339.822   7
  -4  -1   3 1193.40 396.323   7
   4  -1  -2 118.199 264.336   9
   4   1  -2 286.770 278.665   6
   4  -1  -2 129.965 227.635   6
   4   1  -2-24.4515 173.736   9
   4   1  -2 190.199 121.220  14
   4  -1  -2 191.388 150.400  14
   4   1  -2-21.9555 75.5463  13
   4   1  -2 31.1553 80.3901  12
  -4   1   2 350.405 263.251   7
  -4  -1   2 173.837 232.971   7
   4   1  -1 1137.76 408.345   6
   4  -1  -1 1125.68 382.951   6
   4  -1  -1 824.577 325.979   9
   4   1  -1 1036.05 354.734   9
   4   1  -1 960.955 256.282  14
   4  -1  -1 1387.03 349.291  14
   4  -1  -1 1086.46 232.180  12
   4   1  -1 764.104 225.327  12
  -4   1   1 971.604 274.366  12
  -4   1   1 1233.31 488.162   7
  -4  -1   1 1212.97 482.183   7
   4  -1   0 43726.9 1877.88   9
  -4   1   0 43056.6 2309.94   8
  -4   1   0 43645.9 1150.42  14
   4   1   0 43913.1 1378.23  14
  -4   1   0 44324.1 2426.79   7
   4  -1   0 42476.4 1643.99  12
  -4  -1   0 43061.5 2355.35   7
   4   1   0 43463.5 1819.84  12
   4   1   0 43820.9 2242.06   6
   4  -1   0 45186.7 2288.73   6
   4   1   1 3556.03 626.070   6
   4  -1   1 2679.35 597.148   6
   4  -1   1 3227.04 508.090   9
  -4   1  -1 4080.42 726.406   8
  -4  -1  -1 3871.57 654.895   8
   4  -1   1 3058.24 554.177  12
   4   1   1 3227.17 593.438  12
  -4   1  -1 3192.97 692.004   7
  -4  -1  -1 3263.05 742.534   7
  -4  -1  -1 3977.73 468.735  11
   4   1   2 1386.73 411.617   5
   4  -1   2 1190.62 446.096   5
  -4  -1  -2 1336.55 395.967   8
   4  -1   2 659.421 266.905   9
  -4   1  -2 1005.50 312.444   8
   4  -1   2 506.970 238.600  12
   4   1   2 146.298 197.635  12
  -4   1  -2 807.653 339.300   7
  -4  -1  -2 1358.55 538.005   7
  -4  -1  -2 1413.59 348.823  11
  -4  -1  -2 1285.29 430.475  10
  -4   1  -2 998.540 302.332  10
   4  -1   3 916.576 571.199   5
   4  -1   3 801.469 325.100   9
  -4   1  -3 3090.56 698.102   8
   4  -1   3 94.1456 169.870  12
   4   1   3 448.892 395.329  12
  -4  -1  -3 1674.02 494.094  11
  -4   1  -3 2049.23 515.232  10
  -4  -1  -3 3016.03 646.692  10
   4   1   3 1261.61 665.857   5
   4  -1   4 2235.14 627.147  12
   4   1   4 2264.88 617.397  12
  -4  -1  -4 2099.44 597.546  11
  -4   1  -4 2915.71 609.241  11
  -4   1  -4 2643.81 637.174  10
  -4  -1  -4 1983.98 575.352  10
   4   1   4 2094.26 625.585   5
   4  -1   4 1407.27 607.045   5
   4  -1   5 1297.98 579.838  12
   4   1   5 1694.96 582.570  12
  -4  -1  -5 1644.38 524.790  11
  -4   1  -5 1761.15 530.160  11
  -4  -1  -5 1611.56 597.731  10
   4   1   5 1160.69 425.808   5
   4  -1   5 558.151 367.150   5
  -4  -1  -6 6539.15 1217.37  10
   4   2  -8 2399.16 778.248  14
   4  -2  -8 2422.16 745.702  14
  -4   2   8 1010.99 488.228   5
  -4  -2   8 2127.58 812.889   5
  -4   2   8 1492.18 514.891   7
  -4  -2   8 1821.70 735.019   7
   4  -2  -7 1235.21 520.423   9
   4   2  -7 1349.87 510.220   6
   4  -2  -7 1730.39 762.926   6
   4   2  -7 795.217 431.249  14
   4  -2  -7 639.980 438.505  14
  -4   2   7 800.370 407.378   7
  -4  -2   7 934.955 507.377   7
   4  -2  -6 14398.8 1518.43   9
   4   2  -6 13166.4 1140.85   9
   4   2  -6 15033.6 1716.81   6
   4  -2  -6 12819.2 1596.28   6
   4  -2  -6 12948.5 1512.19  14
   4   2  -6 13733.3 1460.62  14
  -4   2   6 12733.8 1429.43   7
  -4  -2   6 12988.8 1644.11   7
   4  -2  -5 65094.1 2990.42   9
   4   2  -5 65643.0 3363.16   6
   4  -2  -5 64604.2 3304.83   6
   4   2  -5 67331.5 2492.68   9
   4   2  -5 65663.0 2822.40  14
   4  -2  -5 60824.5 3057.57  14
  -4   2   5 66105.9 3102.67   7
  -4  -2   5 61249.9 3301.11   7
   4   2  -4 61010.1 3049.01   6
   4  -2  -4 57404.5 2913.75   6
   4  -2  -4 63339.3 2810.32   9
   4   2  -4 56793.7 2227.95   9
   4   2  -4 55772.6 2349.00  14
   4  -2  -4 52362.4 2640.05  14
  -4   2   4 56472.3 1918.17  13
  -4   2   4 58319.9 2935.49   7
  -4  -2   4 55642.8 3074.99   7
  -4   2   4 60304.6 2142.82   3
   4  -2  -3 23942.0 1667.11   9
   4   2  -3 19949.0 1283.80   9
   4   2  -3 23867.2 1362.45  14
   4  -2  -3 23049.7 1648.57  14
  -4   2   3 25663.3 1140.16  13
  -4   2   3 24929.1 1798.13   7
  -4  -2   3 22916.0 1805.67   7
   4   2  -3 25899.5 1841.70   6
   4  -2  -3 22499.5 1682.21   6
  -4   2   3 25225.8 1115.91   3
   4  -2  -2 368.378 253.336   9
   4   2  -2-1.71312 210.784   6
   4  -2  -2 393.136 271.266   6
   4   2  -2 716.734 235.307  14
   4  -2  -2 34.2393 152.067  14
   4   2  -2 160.499 80.4310  13
   4   2  -2 168.895 175.779  12
  -4   2   2-43.5869 201.244   7
  -4  -2   2 86.1728 222.575   7
   4  -2  -1 33329.9 1832.47   9
  -4   2   1 36325.1 2260.09   8
   4   2  -1 32138.1 1268.52  14
   4  -2  -1 33586.0 1270.98  12
  -4   2   1 30948.8 2010.59   7
  -4  -2   1 34549.9 2090.95   7
  -4   2   1 35270.8 1317.29  12
   4   2  -1 36302.5 1681.62  12
  -4  -2   1 34490.1 928.076  11
   4  -2  -1 32908.4 1267.07   3
   4   2  -1 35838.7 1993.65   6
   4  -2  -1 34483.1 1948.02   6
   4  -2   0 79441.3 2760.68   9
  -4   2   0 89613.4 3494.80   8
   4   2   0 83404.0 1787.24  14
  -4   2   0 84478.7 3357.81   7
   4  -2   0 88439.2 2449.45  12
  -4  -2   0 84329.6 3318.92   7
   4   2   0 85267.4 2801.79  12
  -4  -2   0 84735.7 1929.81  11
   4   2   0 75208.2 1368.15   3
   4   2   0 88405.8 3160.80   6
   4  -2   0 89163.0 3184.09   6
   4   2   1 483.111 295.605   6
   4  -2   1 652.837 291.378   6
   4  -2   1 736.060 325.434   9
   4   2   1 782.882 146.794  14
  -4   2  -1 544.128 369.145   8
   4  -2   1 712.065 300.912  12
   4   2   1 1159.99 406.299  12
  -4   2  -1 493.164 321.934   7
  -4  -2  -1 1096.54 395.863   7
  -4  -2  -1 938.492 247.264  11
  -4  -2  -1 916.307 320.738  10
   4   2   2 5864.03 920.420   5
   4  -2   2 6662.80 923.807   5
   4  -2   2 4801.72 649.327   9
  -4   2  -2 6289.94 942.872   8
  -4  -2  -2 5793.81 709.837   8
   4   2   2 5756.63 899.892  12
   4  -2   2 4761.99 720.455  12
  -4  -2  -2 6353.70 1010.54   7
  -4  -2  -2 6299.07 740.800  11
  -4  -2  -2 5304.37 775.317  10
  -4   2  -2 5316.42 638.493  10
   4   2   3 3484.65 708.405   5
   4  -2   3 2886.43 665.363   5
   4  -2   3 3063.86 538.536   9
  -4   2  -3 3176.09 669.750   8
   4  -2   3 2201.88 516.743  12
   4   2   3 2756.72 677.496  12
  -4  -2  -3 2821.33 561.381  11
  -4   2  -3 2447.18 549.705  10
  -4  -2  -3 2799.74 629.020  10
  -4   2  -4 1360.64 458.123   8
   4  -2   4 572.216 321.403  12
   4   2   4 388.454 366.954  12
  -4  -2  -4 1396.74 470.170  11
  -4  -2  -4 1203.94 459.144  10
   4   2   4 1293.24 489.232   5
   4  -2   4 925.397 408.004   5
   4  -2   5 1161.04 510.319  12
   4   2   5 1304.00 665.678  12
  -4  -2  -5 1471.35 576.403  11
  -4   2  -5 487.104 336.951  11
  -4  -2  -5 1025.21 480.416  10
   4   2   5 552.899 306.952   5
   4  -2   5 719.097 345.374   5
  -4   3   8 9141.88 1470.72   5
   4   3  -8 7532.11 1356.04  14
   4  -3  -8 6773.07 1310.42  14
  -4  -3   8 7127.04 1290.68   5
  -4  -3   8 6844.08 1409.14   7
   4   3  -7 18759.0 2163.68   6
   4  -3  -7 16779.4 2066.44   6
   4   3  -7 18038.6 1852.69  14
   4  -3  -7 17069.8 1896.36  14
  -4   3   7 13971.9 1509.98   7
  -4  -3   7 13610.2 1747.15   7
   4  -3  -7 17452.4 1836.31   9
   4  -3  -6-61.4675 315.723   9
   4   3  -6-38.4391 172.062   9
   4   3  -6 533.092 411.987   6
   4  -3  -6 126.972 246.821   6
   4   3  -6-291.698 347.398  14
   4  -3  -6 41.8372 267.698  14
  -4   3   6-235.619 174.951   7
  -4  -3   6 100.867 307.093   7
  -4   3   5 1877.59 464.212   3
   4  -3  -5 1392.07 443.503   9
   4   3  -5 2199.50 431.398   9
   4   3  -5 1218.53 467.675   6
   4  -3  -5 2355.93 640.646   6
   4   3  -5 1906.56 508.495  14
   4  -3  -5 1306.60 510.212  14
  -4   3   5 1214.99 398.627   7
  -4  -3   5 1835.25 582.673   7
   4   3  -4 21840.6 1846.50   6
   4  -3  -4 20180.2 1748.81   6
   4  -3  -4 21495.2 1807.76   9
   4   3  -4 16431.5 1189.38   9
   4   3  -4 20157.2 1380.95  14
   4  -3  -4 19304.5 1718.07  14
  -4   3   4 17438.2 1214.37  13
  -4   3   4 22019.2 1744.46   7
  -4  -3   4 21027.7 1887.41   7
  -4   3   4 20390.2 1388.09   3
   4  -3  -3 23821.6 1767.94   9
  -4   3   3 24756.6 1250.42   3
   4   3  -3 24829.6 1367.57  14
  -4   3   3 26548.0 1321.94  13
  -4   3   3 25490.5 1743.07   7
  -4  -3   3 24344.2 1878.17   7
   4   3  -3 25691.1 1824.20   6
   4  -3  -3 23495.2 1734.59   6
   4  -3  -2 264.621 247.094   9
   4   3  -2 74.2199 283.238   6
   4  -3  -2 177.422 319.245   6
   4   3  -2 91.9385 138.661  14
  -4   3   2 327.460 316.759   8
   4   3  -2-11.4749 32.8425  13
  -4   3   2 194.842 96.7357  12
  -4   3   2-37.5643 236.988   7
  -4  -3   2-154.066 342.134   7
   4  -3  -1 28388.0 1826.45   9
  -4   3   1 30222.5 2159.62   8
   4   3  -1 31389.0 1241.18  14
  -4   3   1 30905.8 1987.11   7
  -4   3   1 30877.7 1298.50  12
  -4  -3   1 30734.8 1997.23   7
   4   3  -1 32656.7 1821.28  12
  -4  -3   1 30337.4 887.568  11
   4   3  -1 35448.0 2024.20   6
   4  -3  -1 31508.8 1901.01   6
   4  -3   0 48585.1 2295.08   9
  -4   3   0 54831.2 2795.12   8
   4   3   0 51158.5 1416.19  14
  -4   3   0 52356.2 2686.21   7
   4  -3   0 55375.3 2094.00  12
  -4  -3   0 52905.5 2626.15   7
   4   3   0 55784.6 2492.79  12
  -4  -3   0 54404.6 1671.00  11
   4   3   0 57366.5 2591.17   6
   4  -3   0 58241.6 2631.23   6
   4   3   0 51230.9 1298.11   3
   4  -3   1 54159.7 2345.05   9
  -4   3  -1 55789.6 2809.95   8
   4   3   1 56792.9 1269.95  14
  -4   3  -1 54733.9 2876.91   7
   4  -3   1 53394.0 2325.62  12
  -4  -3  -1 57317.3 2816.15   7
   4   3   1 55481.7 2650.35  12
  -4  -3  -1 58274.6 2082.39  11
  -4  -3  -1 57594.7 2449.86  10
   4   3   1 62295.8 2709.73   6
   4  -3   1 59137.6 2727.16   6
   4   3   2 5201.84 874.272   5
   4  -3   2 4971.80 863.083   5
   4  -3   2 4611.80 676.494   9
  -4   3  -2 4957.88 866.867   8
   4  -3   2 4662.84 755.072  12
   4   3   2 5578.70 884.211  12
  -4  -3  -2 4399.67 813.503   7
  -4  -3  -2 4900.01 671.339  11
  -4   3  -2 4541.05 576.770  10
  -4  -3  -2 4509.32 743.796  10
   4  -3   3 5398.32 745.353   9
  -4   3  -3 7704.29 1076.46   8
  -4  -3  -3 6802.34 1096.75   7
   4  -3   3 7517.43 1025.81  12
   4   3   3 6637.22 1074.92  12
   4   3   3 7251.12 1044.66   5
   4  -3   3 7267.98 1034.38   5
  -4  -3  -3 7982.49 996.972  11
  -4  -3  -3 7306.78 1068.43  10
  -4   3  -4 258.455 363.901   8
   4  -3   4 595.425 362.655  12
   4   3   4 71.5051 290.056  12
  -4  -3  -4 415.004 415.799  11
  -4  -3  -4 524.291 406.552  10
   4   3   4 167.500 294.919   5
   4  -3   4-79.6622 214.112   5
   4  -3   5 9781.67 1434.92  12
   4   3   5 10634.4 1514.24  12
   4   3   5 10213.0 1406.58   5
   4  -3   5 8496.93 1266.57   5
  -4  -3  -5 10730.6 1429.15  11
  -4  -3  -5 12565.9 1656.23  10
   4  -4  -8 4390.34 1013.40   9
  -4   4   8 4036.42 987.060   5
  -4  -4   8 3952.50 925.033   5
   4  -4  -7 1107.30 582.092   9
   4   4  -7 1239.74 541.442  14
  -4   4   7 1394.03 546.703   5
  -4  -4   7 1377.31 563.035   5
  -4  -4   7 1383.44 690.032   7
  -4   4   6 359.828 306.914   3
   4  -4  -6 392.489 400.010   9
   4   4  -6 376.064 233.205   6
   4  -4  -6 491.390 510.367   6
   4   4  -6 167.897 222.542  14
  -4   4   6 392.127 316.560   7
  -4  -4   6 426.364 382.473   7
   4  -4  -5 44289.9 2809.16   9
   4   4  -5 48176.4 2917.28   6
   4  -4  -5 45225.6 2787.48   6
   4   4  -5 43082.9 1914.91   9
   4   4  -5 41550.7 2239.89  14
  -4   4   5 43711.4 2416.24   7
  -4  -4   5 41678.8 2826.56   7
  -4   4   5 45673.5 2408.70   3
   4  -4  -4 74547.3 3503.27   9
   4   4  -4 66902.7 3258.89   6
   4  -4  -4 70048.9 3240.33   6
   4   4  -4 60156.7 2258.20   9
  -4   4   4 70575.8 3317.12   8
   4   4  -4 61540.9 2424.54  14
  -4   4   4 59797.9 2461.32  13
  -4   4   4 74788.5 2995.90   7
  -4  -4   4 66025.1 3462.79   7
  -4   4   4 60788.0 2490.06   3
   4  -4  -3 10277.5 1257.89   9
  -4   4   3 10242.1 1229.35   8
   4   4  -3 10584.4 903.135  14
  -4   4   3 10717.0 910.477  13
  -4   4   3 10111.6 1110.07   7
  -4  -4   3 9569.70 1187.53   7
   4   4  -3 12252.5 1282.75   6
   4  -4  -3 10414.5 1194.75   6
   4  -4  -2 7905.21 1069.29   9
  -4   4   2 7909.96 1100.90   8
   4   4  -2 8191.09 905.014   2
  -4   4   2 8553.53 1048.18   7
  -4  -4   2 8543.38 1119.34   7
   4   4  -2 8320.06 1018.25   6
   4  -4  -2 9104.16 1071.57   6
   4  -4  -1 16925.4 1477.82   9
  -4   4   1 16634.7 1606.95   8
   4   4  -1 18468.3 1338.75   2
  -4   4   1 17512.4 1487.91   7
  -4  -4   1 17488.5 1521.05   7
   4   4  -1 18089.6 1489.22   6
   4  -4  -1 18258.3 1475.94   6
   4  -4   0 100092. 3554.91   9
  -4   4   0 102875. 3951.55   8
   4   4   0 102856. 3082.51   2
  -4   4   0 101564. 3742.30   7
  -4  -4   0 95099.4 3548.99   7
   4   4   0 107831. 3793.37  12
  -4  -4   0 111321. 2521.53  11
   4   4   0 112554. 3594.85   6
   4  -4   0 108965. 3667.23   6
   4   4   1-262.954 285.244   6
   4  -4   1 265.406 300.523   6
   4   4   1-52.5993 125.085   3
   4  -4   1-200.911 193.400   9
  -4   4  -1-293.829 286.048   8
   4   4   1-61.1055 293.997  12
  -4  -4  -1-140.887 252.363   7
  -4  -4  -1-38.6153 131.614  11
  -4  -4  -1-44.3162 213.309  10
   4  -4   2 186.255 248.709   9
  -4   4  -2-72.7946 176.349   1
  -4   4  -2 211.182 261.355   8
   4  -4   2 387.790 255.248  12
   4   4   2-2.69373 376.028  12
  -4  -4  -2 602.030 430.282   7
  -4  -4  -2 317.815 239.633  11
   4   4   2 45.0284 212.811   6
   4  -4   2-46.6366 287.951   6
  -4  -4  -2 484.991 359.390  10
   4   4   3 1852.77 600.734   5
   4  -4   3 2116.06 613.263   5
  -4   4  -3 3063.54 725.844   8
  -4  -4  -3 1782.49 609.869   7
   4  -4   3 1995.43 576.083  12
   4   4   3 2005.04 571.919  12
  -4  -4  -3 2427.54 603.374  11
  -4  -4  -3 1934.94 570.405  10
   4   4   4 4508.21 859.150   5
   4  -4   4 3155.16 765.995   5
  -4   4  -4 4100.68 876.839   8
   4  -4   4 2224.17 619.742  12
   4   4   4 3180.44 814.765  12
  -4  -4  -4 4475.79 882.006  11
  -4  -4  -4 3084.37 782.123  10
  -4  -4  -5 1433.28 569.191  11
   4   4   5 799.057 505.314   5
   4  -4   5 144.499 219.566   5
  -4   5   8 2013.20 610.850   3
  -4   5   7 3722.15 833.538   3
   4  -5  -7 4737.61 1141.01   9
   4   5  -7 4538.91 925.807  14
  -4   5   7 4775.24 1027.53   5
  -4  -5   7 2798.78 800.890   5
  -4   5   7 3872.87 860.715   1
  -4  -5   7 4247.94 1110.18   7
   4  -5  -6 179.430 275.627   9
  -4   5   6-297.077 312.037   3
   4   5  -6-92.8217 366.668   6
   4  -5  -6 57.0744 283.681   6
   4   5  -6 675.460 415.023  14
  -4   5   6 33.2834 185.031   8
  -4  -5   6 630.486 358.916   7
   4   5  -5 6613.05 739.021   9
   4  -5  -5 6025.12 1093.08   9
   4   5  -5 6550.22 1078.72   6
   4  -5  -5 6020.17 1041.57   6
   4   5  -5 6614.76 864.327  14
  -4   5   5 6379.39 891.385  13
  -4   5   5 5712.86 922.042   8
  -4  -5   5 6349.24 1156.03   7
  -4   5   5 5450.88 890.108   3
   4  -5  -4 9283.32 1339.51   9
   4   5  -4 8586.14 1197.60   6
   4  -5  -4 9235.12 1190.99   6
  -4   5   4 7828.46 1146.72   8
   4   5  -4 7796.25 1006.64   2
   4   5  -4 8026.21 887.757  14
  -4   5   4 7931.17 969.232  13
  -4   5   4 7459.39 916.180   7
  -4  -5   4 8059.23 1233.44   7
  -4   5   4 8626.13 1015.57   3
   4  -5  -3 5853.30 988.962   9
   4   5  -3 4582.05 797.971   6
   4  -5  -3 4344.58 787.428   6
  -4   5   3 4401.43 887.824   8
  -4   5   3 5167.23 711.225  13
  -4   5   3 4683.19 740.775   7
  -4  -5   3 4439.68 857.462   7
   4   5  -3 4601.23 770.813   2
   4  -5  -2 1348.60 501.465   9
  -4   5   2 292.956 276.961   8
   4   5  -2 1459.27 448.473   6
   4  -5  -2 641.392 336.198   6
  -4   5   2 1544.27 376.569  13
  -4   5   2 1504.00 474.830   7
  -4  -5   2 873.037 377.509   7
   4   5  -2 1318.10 370.647   2
   4  -5  -1 2758.61 662.262   9
   4   5  -1 3227.70 598.158   6
   4  -5  -1 3034.31 626.999   6
  -4   5   1 2767.97 737.993   8
  -4   5   1 2704.21 633.523   7
  -4  -5   1 2443.91 597.353   7
   4   5  -1 3575.76 648.382   2
   4  -5   0 20115.3 1684.60   9
  -4   5   0 22112.7 1897.32   8
   4   5   0 22664.7 1526.67   2
  -4   5   0 20315.7 1695.50   7
  -4  -5   0 21104.0 1649.87   7
   4   5   0 19897.2 1834.99  12
  -4  -5   0 21656.4 1604.28  10
   4   5   0 21838.7 1600.23   6
   4  -5   0 23097.0 1724.66   6
   4  -5   1 16755.0 1498.45   9
  -4   5  -1 18346.9 1752.15   8
   4   5   1 19278.1 1385.14   2
  -4   5  -1 17647.2 1646.38   1
  -4  -5  -1 16873.8 1515.25   7
   4   5   1 19394.4 1820.25  12
  -4  -5  -1 18069.4 1302.48  11
  -4  -5  -1 17318.0 1555.59  10
   4   5   1 17698.4 1504.30   6
   4  -5   1 19254.8 1634.57   6
   4   5   1 15839.9 1139.91   3
   4   5   2 1097.09 491.033   6
   4  -5   2 1196.52 486.197   6
   4   5   2 715.409 303.627   3
   4  -5   2 933.525 377.856   9
   4   5   2 668.166 330.697   2
  -4   5  -2 647.376 335.934   1
  -4   5  -2 710.402 259.436   8
   4   5   2 642.780 394.542  12
  -4  -5  -2 508.136 308.428   7
  -4  -5  -2 473.141 287.396  11
  -4  -5  -2 465.522 409.717  10
   4   5   3 738.313 406.150   5
   4  -5   3 761.733 407.244   5
  -4   5  -3 558.817 385.591   8
   4   5   3 451.936 370.531  12
  -4  -5  -3 694.696 367.744  11
  -4  -5  -3 675.537 380.881  10
   4   5   4 670.075 487.545   5
   4  -5   4-162.562 298.002   5
  -4   5  -4 101.062 320.118   8
   4  -5   4-132.735 247.514  12
   4   5   4 386.756 320.050  12
  -4  -5  -4 446.614 295.344  11
  -4  -5  -4-125.744 323.166  10
  -4   5  -5 3580.50 910.978   8
  -4  -5  -5 4473.29 959.959  11
   4  -6  -7-237.033 382.644   9
  -4   6   7 253.512 272.018   3
  -4   6   7 655.533 424.290   1
  -4   6   7 300.508 325.258   5
  -4  -6   7-454.425 373.130   5
   4   6  -6 11453.0 1530.38   6
   4  -6  -6 10302.7 1451.93   6
  -4   6   6 9329.38 1235.00   8
  -4  -6   6 7637.23 1257.48   5
   4   6  -6 10921.3 1266.73  14
  -4   6   6 10284.4 1413.72   1
  -4  -6   6 9973.12 1577.51   7
  -4   6   6 10066.1 1372.43   3
   4  -6  -6 12514.4 1802.28   9
   4   6  -5 13540.5 1550.61   6
   4  -6  -5 11399.5 1457.59   6
  -4   6   5 10468.5 1330.65   8
   4   6  -5 11649.9 1296.66   2
   4   6  -5 12733.6 1245.39  14
  -4   6   5 11257.3 1306.79  13
  -4   6   5 10052.3 1413.25   1
  -4  -6   5 11672.6 1570.58   7
  -4   6   5 13454.2 1424.64   3
   4  -6  -5 11124.6 1587.06   9
   4  -6  -4 75.6816 263.105   9
   4   6  -4 69.2738 191.790   6
   4  -6  -4 125.705 201.993   6
  -4   6   4 215.189 278.207   3
  -4   6   4 517.617 387.488   8
  -4   6   4 56.2118 243.105  13
  -4  -6   4-71.5664 373.231   7
   4   6  -4 421.777 270.072   2
   4  -6  -3 3828.08 922.621   9
   4   6  -3 5503.16 871.343   6
   4  -6  -3 4202.10 757.462   6
  -4   6   3 3541.27 780.692   8
  -4   6   3 3990.86 717.071  13
  -4  -6   3 4551.03 940.878   7
   4   6  -3 4938.39 834.473   2
   4  -6  -2 3441.25 810.896   9
   4   6  -2 4050.61 706.063   6
   4  -6  -2 3691.86 658.828   6
  -4   6   2 4581.28 862.689   8
  -4   6   2 4038.70 670.293  13
  -4   6   2 3719.04 625.005   7
  -4  -6   2 3351.50 720.778   7
   4   6  -2 3534.13 681.169   2
   4  -6  -1 4527.35 894.533   9
   4   6  -1 4965.88 792.512   6
   4  -6  -1 4822.84 781.192   6
   4   6  -1 6003.00 865.877   2
  -4   6   1 4245.80 897.680   8
  -4   6   1 4937.44 790.424   7
  -4   6   1 5130.92 995.890   1
  -4  -6   1 4685.24 832.439   7
   4  -6   0 5499.38 956.754   9
   4   6   0 6772.37 919.502   2
   4   6   0 5883.56 806.726   6
  -4   6   0 6183.80 1021.47   8
  -4  -6   0 7000.42 955.558   7
  -4   6   0 6068.81 1042.61   1
  -4  -6   0 6481.38 945.026  10
   4  -6   0 6345.25 913.506   6
   4   6   1 311.552 225.252   6
   4  -6   1 256.396 270.552   6
   4  -6   1 60.3281 193.151   9
  -4   6  -1 26.5245 252.307   1
  -4   6  -1-12.6107 337.947   8
   4   6   1 876.471 440.142  12
  -4  -6  -1 154.692 160.176   7
   4   6   1 361.093 275.235   2
  -4  -6  -1 143.520 178.148  10
   4   6   2 5354.23 851.873   6
   4  -6   2 5491.91 929.446   6
   4  -6   2 4889.69 857.011   9
  -4   6  -2 4922.26 913.183   1
  -4   6  -2 4785.39 990.283   8
   4   6   2 5754.11 1061.76  12
   4   6   2 4939.41 732.084   2
  -4  -6  -2 4685.01 974.490  10
   4  -6   3 523.837 374.723   6
  -4   6  -3 175.157 414.729   8
   4   6   3 143.838 409.254  12
   4   6   3 237.058 254.376   6
  -4  -6  -3 274.698 343.095  10
   4   6   4 22.7288 227.234   5
   4  -6   4-194.699 223.418   5
  -4   7   7 653.407 421.339   1
   4  -7  -6 483.451 507.994   9
  -4   7   6-41.5136 363.797   1
  -4   7   6 224.087 216.928   3
  -4  -7   6 143.147 384.491   7
  -4   7   5 17398.1 1706.59   3
  -4   7   5 17879.2 1942.81   1
  -4   7   5 16902.5 1729.55   8
   4   7  -5 19670.7 1686.46   2
  -4   7   5 16869.6 1657.68  13
  -4  -7   5 14127.6 1801.48   7
   4  -7  -5 17835.6 2109.42   9
   4  -7  -4 2316.05 811.019   9
  -4   7   4 3742.16 823.856   8
  -4   7   4 2388.49 631.652  13
  -4  -7   4 2996.00 788.430   7
   4   7  -4 3260.94 714.154   2
  -4   7   4 3329.63 809.004   1
   4  -7  -3 1825.17 671.079   9
  -4   7   3 1414.65 600.143   1
  -4   7   3 1404.88 541.379   8
  -4   7   3 1502.57 440.972  13
  -4  -7   3 1506.08 497.585   7
   4   7  -3 1195.62 433.622   2
   4   7  -2 659.264 386.159   2
   4  -7  -2 514.113 351.851   9
  -4   7   2 1006.34 422.256   8
  -4   7   2 1753.96 511.151  13
  -4   7   2 786.249 494.933   1
  -4  -7   2 1016.43 453.200   7
   4  -7  -1 3757.77 892.263   9
  -4   7   1 4788.91 983.660   1
  -4   7   1 4281.61 922.209   8
   4   7  -1 6375.24 948.756   2
  -4  -7   1 4376.94 815.141   7
  -4  -7   1 3855.10 704.034  10
  -4   7   0 6686.28 1101.62   1
   4  -7   0 6933.07 1123.66   9
  -4   7   0 7522.83 1227.62   8
   4   7   0 8660.07 1069.00   2
  -4  -7   0 6921.95 958.544   7
  -4  -7   0 5596.38 906.332  10
   4   7   1 490.755 195.016   2
   4  -7   1 561.710 370.250   9
  -4   7  -1 158.505 284.086   1
  -4   7  -1-543.225 471.696   8
   4   7   1 419.973 349.311  12
  -4  -7  -1 198.087 230.688  10
  -4   7  -2 488.317 432.243   8
   4   7   2 570.229 396.490  12
  -4   7  -2 593.540 488.903   1
  -4  -7  -2 297.603 370.510  10
   4   7   2 252.340 281.980   2
  -4   7  -3 3139.93 879.427   8
  -4   8   5 8164.53 1228.90   3
   4   8  -5 8528.86 1213.93   2
  -4   8   5 7813.22 1174.46  13
  -4   8   5 5816.75 1150.23   1
  -4  -8   5 6100.39 1238.64   7
   4  -8  -4-171.359 450.994   9
  -4   8   4-696.827 495.712   8
  -4   8   4-208.612 277.638  13
  -4  -8   4 841.551 465.408   7
  -4   8   4 102.026 337.802   1
   4   8  -4-63.8238 278.852   2
   4   8  -3 830.827 450.131   2
   4  -8  -3 174.777 373.134   9
  -4   8   3-87.0954 230.606   8
  -4   8   3-20.3879 220.584  13
  -4  -8   3 287.874 515.765   7
  -4   8   3 567.018 449.747   1
   4   8  -2 754.488 357.173   2
   4  -8  -2 831.924 461.699   9
  -4   8   2 314.440 322.079   8
  -4   8   2 1072.57 459.071  13
  -4   8   2 808.557 382.823   1
  -4  -8   2 1601.38 570.596   7
  -4  -8   2 867.350 328.596  10
   4   8  -1 2265.42 604.060   2
   4  -8  -1 2487.18 705.579   9
  -4   8   1 2693.11 695.524   8
  -4   8   1 2880.65 884.288   1
  -4  -8   1 2044.63 608.463  10
   4   8   0 2864.09 651.365   2
   4  -8   0 1789.37 657.518   9
  -4   8   0 1634.62 623.339   1
  -4   8   0 2526.67 795.979   8
  -4  -8   0 1293.59 419.657  10
   4   8   1 141.123 289.000   2
   4  -8   1-35.9336 217.996   9
  -4   8  -1 129.590 302.108   8
   4   8   1 429.345 351.566  12
  -4   8  -1 52.0574 215.739   1
  -4  -8  -1 400.884 280.185  10
   4   8   2 1060.58 386.890   2
  -4   8  -2 1195.70 469.362   1
  -4  -8  -2 461.574 330.985  10
  -4  -9   5 160.258 387.613   7
  -4   9   4 5513.74 1092.17   8
  -4   9   3 1605.00 612.764   8
   4  -9  -2 745.858 369.226   9
  -4   9   2 276.403 212.261   8
  -4  -9   2-2.20022 234.401  10
   4   9  -1-24.6719 232.424   2
  -4   9   1 34.2031 272.153   8
  -4   9   1 825.966 575.102   1
  -4  -9   1 693.058 459.226  10
   4  -9   0 3186.16 874.551   9
  -4   9   0 3969.90 950.658   1
  -4  -9   0 3266.76 813.557  10
   4   9   1 5820.23 978.059   2
  -4   9  -1 3894.88 864.740   1
  -4  -9  -1 3317.08 908.063  10
  -5   0   8 591.380 409.435   7
   5   0  -7 1203.44 466.714   9
   5   0  -7 1100.35 634.626   6
   5   0  -7 940.082 456.651  14
  -5   0   7 1246.58 554.163   7
   5   0  -6 18558.4 1686.18   9
   5   0  -6 18067.4 1948.14   6
   5   0  -6 18638.1 1857.68  14
  -5   0   6 20825.3 2067.71   7
   5   0  -5 56175.3 3350.21   6
   5   0  -5 55439.8 2815.04   9
  -5   0   5 60891.2 3403.29   7
   5   0  -4 10934.2 1237.66   9
   5   0  -4 9876.48 1130.90  14
  -5   0   4 8709.42 1220.23   7
   5   0  -4 10411.6 1389.19   6
   5   0  -3 450.288 360.242   9
   5   0  -3 123.675 262.868   6
   5   0  -3 382.795 148.767  14
  -5   0   3 206.478 285.659   7
   5   0  -2 1824.85 517.264   6
   5   0  -2 1087.36 346.023   9
   5   0  -2 445.909 196.335  14
  -5   0   2 1244.44 533.825   7
   5   0  -1 106356. 3415.10   9
   5   0  -1 95419.5 2802.14  14
   5   0  -1 105541. 2520.56  12
  -5   0   1 108168. 4196.95   7
   5   0  -1 110991. 4043.63   6
   5   0   0 35629.1 1916.15   9
  -5   0   0 38125.5 2440.82   8
  -5   0   0 35124.9 2474.17   7
   5   0   0 32960.5 1640.73  12
   5   0   0 38571.8 2405.78   6
   5   0   1-163.123 343.393   6
   5   0   1 53.9427 140.739   9
  -5   0  -1 145.276 294.914   8
   5   0   1-82.6518 142.990  12
  -5   0  -1 117.218 243.920   7
   5   0   2 3588.11 791.415   6
   5   0   2 3771.81 650.035   9
  -5   0  -2 4180.21 755.989   8
   5   0   2 3675.09 680.018  12
  -5   0  -2 3592.76 898.894   7
  -5   0  -2 4139.03 598.578  11
  -5   0  -2 4676.38 750.705  10
   5   0   3 200.257 380.350   5
   5   0   3 16.2662 158.339   9
   5   0   3 720.569 408.491  12
  -5   0  -3 76.4472 157.752  11
  -5   0  -3-10.4274 209.721  10
   5   0   4 4149.07 982.053   5
   5   0   4 3348.21 801.465  12
  -5   0  -4 3279.85 669.613  11
  -5   0  -4 4029.61 800.272  10
  -5   1   8 20276.1 2159.02   7
  -5  -1   8 23008.8 2418.95   7
   5  -1  -7 3385.02 770.811   9
   5   1  -7 4417.96 1028.84   6
   5  -1  -7 4049.81 1067.36   6
   5   1  -7 3565.83 850.065  14
   5  -1  -7 5070.37 1085.51  14
  -5   1   7 3442.87 821.469   7
  -5  -1   7 4543.13 1031.34   7
   5  -1  -6 499.724 311.060   9
   5   1  -6 635.621 258.280   9
   5   1  -6 1204.85 565.979   6
   5  -1  -6 304.256 384.695   6
   5   1  -6 401.023 289.710  14
   5  -1  -6 120.216 216.962  14
  -5   1   6 764.867 416.882   7
  -5  -1   6 817.239 454.481   7
   5  -1  -5 3306.32 704.106   9
   5   1  -5 2814.19 612.433   9
   5   1  -5 2650.22 812.771   6
   5  -1  -5 3471.22 949.550   6
   5   1  -5 2618.86 654.774  14
   5  -1  -5 2877.90 712.230  14
  -5   1   5 3115.67 852.262   7
  -5  -1   5 2860.38 799.167   7
   5  -1  -4 14408.2 1491.81   9
   5   1  -4 14751.0 1379.09   9
   5   1  -4 12445.6 1241.12  14
   5  -1  -4 12935.4 1362.32  14
  -5   1   4 14309.6 1550.14   7
  -5  -1   4 14294.3 1625.27   7
   5   1  -4 14499.4 1607.46   6
   5  -1  -4 13787.5 1526.90   6
   5  -1  -3 39820.6 2332.38   9
   5   1  -3 36324.7 2073.25   9
   5   1  -3 31551.1 1804.45  14
   5  -1  -3 31351.7 1979.36  14
  -5   1   3 33977.0 2366.26   7
  -5  -1   3 34079.0 2430.09   7
   5   1  -3 36058.1 2422.77   6
   5  -1  -3 34237.1 2311.85   6
   5   1  -2 2896.33 714.145   6
   5  -1  -2 3341.70 751.076   6
   5  -1  -2 2815.97 647.012   9
   5   1  -2 3292.60 605.786   9
   5   1  -2 1873.13 417.256  14
   5  -1  -2 2786.39 579.702  14
   5   1  -2 2928.65 378.349  12
  -5   1   2 1319.68 521.416   7
  -5  -1   2 2408.28 692.208   7
   5   1  -1 1841.93 654.263   6
   5  -1  -1 1589.26 688.199   6
   5  -1  -1 943.463 490.730   9
   5   1  -1 1167.80 461.893   9
   5   1  -1 1701.66 389.050  14
   5  -1  -1 2454.75 401.845  12
   5   1  -1 1879.40 411.811  12
  -5   1   1 439.727 434.943   7
  -5  -1   1 1431.32 585.595   7
   5  -1   0 28341.4 1781.22   9
   5   1   0 31415.6 1796.32   9
  -5   1   0 33800.2 2332.74   8
  -5   1   0 32386.7 2426.01   7
  -5  -1   0 32258.4 2338.90   7
   5  -1   0 30636.3 1575.42  12
   5   1   0 32230.1 1724.50  12
   5   1   0 33746.5 2273.23   6
   5  -1   0 32054.6 2258.95   6
   5   1   1 465.153 397.489   6
   5  -1   1 322.738 343.326   6
   5  -1   1 412.021 275.424   9
   5   1   1 525.350 267.876   9
  -5   1  -1 620.645 432.415   8
  -5  -1  -1-102.449 198.201   8
   5  -1   1 25.6716 198.966  12
   5   1   1-49.8496 192.361  12
  -5   1  -1 176.022 312.135   7
  -5  -1  -1-65.4188 223.715   7
  -5  -1  -1-2.66061 121.636  11
   5   1   2 1811.20 978.643   6
   5  -1   2 2795.61 1001.03   6
   5  -1   2 725.219 459.022   9
   5   1   2 907.880 478.475   9
  -5   1  -2 11481.2 1344.87   8
  -5  -1  -2 11784.4 1256.32   8
  -5   1  -2 12293.6 1593.98   7
  -5  -1  -2 9491.17 1629.27   7
   5  -1   2 1172.28 477.380  12
   5   1   2 395.038 318.275  12
  -5  -1  -2 5888.86 813.648  11
  -5  -1  -2 4501.25 1002.87  10
  -5   1  -2 4139.63 685.804  10
   5   1   3 1214.51 415.279   5
   5  -1   3 778.391 396.978   5
   5  -1   3 277.112 200.296   9
   5   1   3 1293.81 428.488   9
   5  -1   3 1108.70 422.175  12
   5   1   3 1222.58 529.153  12
  -5  -1  -3 761.331 359.161  11
  -5   1  -3 841.813 366.608  10
  -5  -1  -3 220.563 280.347  10
   5   1   4 239.928 344.521   5
   5  -1   4 527.456 511.938   5
   5  -1   4-834.439 501.664  12
   5   1   4-276.177 354.243  12
  -5  -1  -4 426.818 354.843  11
  -5   1  -4 200.132 225.650  11
  -5  -1  -4-174.709 304.001  10
  -5   2   8 2643.33 802.234   7
   5  -2  -7 1392.94 534.022   9
   5   2  -7 457.838 271.521   6
   5  -2  -7 1605.75 743.740   6
   5   2  -7 1108.17 538.109  14
   5  -2  -7 630.081 448.589  14
  -5   2   7 506.241 374.911   7
  -5  -2   7 473.739 255.810   7
   5  -2  -6 7799.41 1166.22   9
   5   2  -6 9812.72 1138.82   9
   5   2  -6 7532.75 1277.81   6
   5  -2  -6 6841.64 1263.03   6
   5   2  -6 7520.43 1155.39  14
   5  -2  -6 7485.10 1217.40  14
  -5   2   6 7983.00 1212.88   7
  -5  -2   6 8417.74 1335.39   7
   5   2  -5 11125.9 1504.78   6
   5  -2  -5 9272.26 1342.28   6
   5  -2  -5 10767.3 1401.08   9
   5   2  -5 11862.0 1259.81   9
   5   2  -5 10009.0 1216.29  14
   5  -2  -5 10449.6 1354.20  14
  -5   2   5 11980.8 1516.36   7
  -5  -2   5 11017.3 1535.12   7
   5  -2  -4 16950.0 1611.03   9
   5   2  -4 12992.5 1255.55   9
   5   2  -4 17070.4 1458.80  14
   5  -2  -4 15815.5 1558.95  14
  -5   2   4 16423.3 1651.72   7
  -5  -2   4 19006.7 1907.74   7
   5   2  -4 17970.6 1822.56   6
   5  -2  -4 17211.3 1731.35   6
   5  -2  -3 7170.43 1021.13   9
   5   2  -3 6265.02 841.527   9
   5   2  -3 5589.36 723.374  14
   5  -2  -3 6213.99 912.566  14
  -5   2   3 6335.28 1040.07   7
  -5  -2   3 6959.56 1115.84   7
   5   2  -3 7850.67 1178.88   6
   5  -2  -3 6790.44 1050.97   6
   5  -2  -2 543.726 417.874   9
   5   2  -2 258.642 344.629   6
   5  -2  -2 354.592 307.114   6
   5   2  -2 335.275 328.194   9
   5   2  -2 253.854 189.463  14
   5   2  -2 276.855 204.145  12
  -5   2   2 387.002 576.692   7
  -5  -2   2 535.382 483.157   7
   5  -2  -1 31449.8 2073.44   9
  -5   2   1 35640.3 2498.72   8
   5   2  -1 33092.1 1530.19  14
   5  -2  -1 34191.3 1481.88  12
  -5   2   1 35247.9 2472.52   7
  -5  -2   1 32559.6 2319.37   7
   5   2  -1 31545.0 1670.72  12
   5   2  -1 37283.8 2365.98   6
   5  -2  -1 36621.5 2407.67   6
   5  -2   0 44577.2 2327.84   9
  -5   2   0 48015.1 2869.46   8
  -5   2   0 48645.3 2929.01   7
   5  -2   0 46583.9 2026.63  12
  -5  -2   0 46638.4 2823.75   7
   5   2   0 45644.2 2185.19  12
  -5  -2   0 47577.8 1644.98  11
   5   2   0 49454.1 2765.10   6
   5  -2   0 48236.0 2768.45   6
   5  -2   1 8010.82 950.871   9
  -5   2  -1 9453.78 1236.63   8
  -5  -2  -1 10611.8 1185.76   8
  -5   2  -1 9182.06 1300.25   7
  -5  -2  -1 8726.64 1281.37   7
   5  -2   1 9021.44 975.518  12
   5   2   1 7775.84 1006.11  12
  -5  -2  -1 9468.20 857.402  11
  -5  -2  -1 10313.6 1122.74  10
   5   2   1 10234.3 1287.97   6
   5  -2   1 8605.00 1176.32   6
   5   2   2 841.535 377.966   6
   5  -2   2 1280.84 528.952   6
   5  -2   2 1108.01 357.408   9
  -5   2  -2 1767.71 547.552   8
   5  -2   2 1041.66 403.459  12
   5   2   2 1445.69 487.528  12
  -5  -2  -2 1349.36 610.620   7
  -5  -2  -2 1316.73 377.623  11
  -5  -2  -2 1653.50 485.036  10
  -5   2  -2 1380.74 415.198  10
   5   2   3 2839.96 826.017   5
   5  -2   3 1811.42 643.594   5
  -5   2  -3 2301.27 649.459   8
   5  -2   3 2409.61 576.612  12
   5   2   3 2549.80 689.193  12
  -5  -2  -3 2140.77 566.168  11
  -5  -2  -3 2108.53 606.421  10
   5  -2   4 4207.93 921.101  12
   5   2   4 4861.84 1039.90  12
  -5  -2  -4 4343.89 843.449  11
  -5   2  -4 4541.24 782.969  11
  -5  -2  -4 3558.59 829.500  10
   5  -3  -7 5398.77 1067.57   9
   5   3  -7 7864.09 1436.28   6
   5  -3  -7 5330.50 1138.72   6
   5   3  -7 5768.95 1143.17  14
   5  -3  -7 6155.82 1175.85  14
  -5   3   7 6136.90 1097.16   7
  -5  -3   7 6691.45 1396.32   7
   5  -3  -6 4955.22 1006.21   9
   5   3  -6 4910.27 806.386   9
   5   3  -6 5443.85 1136.76   6
   5  -3  -6 5862.36 1139.16   6
   5   3  -6 4976.33 977.615  14
   5  -3  -6 3493.14 856.096  14
  -5   3   6 4489.65 920.189   7
  -5  -3   6 5117.80 1103.51   7
   5  -3  -5 231.224 279.029   9
   5   3  -5-220.065 173.754   9
   5   3  -5 162.878 311.651   6
   5  -3  -5 87.5958 230.642   6
   5   3  -5 760.159 391.066  14
   5  -3  -5 94.4728 362.061  14
  -5   3   5-47.7253 130.027  13
  -5   3   5-38.8296 234.467   7
  -5  -3   5-441.737 313.380   7
   5  -3  -4-152.967 252.810   9
   5   3  -4 121.197 148.602   9
   5   3  -4 1095.14 494.574   6
   5  -3  -4-67.7156 335.820   6
   5   3  -4 780.928 370.399  14
   5  -3  -4 1038.26 442.743  14
  -5   3   4 914.943 304.699  13
  -5   3   4 156.716 243.851   7
  -5  -3   4 732.029 458.942   7
   5  -3  -3 37933.6 2503.12   9
   5   3  -3 40206.0 2132.63   9
   5   3  -3 39280.2 1938.81  14
  -5   3   3 44008.8 2643.43   7
  -5  -3   3 43232.6 2761.96   7
   5   3  -3 43965.9 2616.43   6
   5  -3  -3 39034.1 2460.78   6
   5  -3  -2 28010.7 2044.54   9
  -5   3   2 35099.1 2568.66   8
   5   3  -2 29111.3 1508.32  14
  -5   3   2 31466.6 2345.79   7
  -5  -3   2 31573.4 2345.32   7
   5   3  -2 28920.2 1745.40  12
   5   3  -2 35080.1 2322.23   6
   5  -3  -2 29446.7 2177.38   6
   5   3  -1 599.985 406.557   6
   5  -3  -1 698.396 289.676   6
   5  -3  -1 599.856 354.787   9
   5   3  -1 543.049 184.793  14
  -5   3   1 608.991 447.746   8
   5   3  -1 1016.19 363.238  12
  -5   3   1 1371.82 467.405   7
  -5  -3   1 1241.81 526.228   7
   5   3   0 376.756 298.733   6
   5  -3   0 177.572 277.061   6
   5  -3   0 441.420 294.179   9
  -5   3   0 1244.35 614.535   8
   5  -3   0 730.962 269.157  12
   5   3   0 371.848 184.253  12
  -5   3   0 690.122 299.411   7
  -5  -3   0 628.285 564.121   7
   5   3   1 2895.70 740.162   6
   5  -3   1 2463.46 629.573   6
   5  -3   1 2403.31 586.785   9
  -5   3  -1 3178.29 742.652   8
   5  -3   1 2477.42 521.213  12
   5   3   1 3623.66 737.863  12
  -5   3  -1 2640.97 736.528   7
  -5  -3  -1 3015.07 785.114   7
  -5  -3  -1 2478.08 604.308  10
   5  -3   2 9575.83 1130.24   9
  -5   3  -2 10171.3 1336.72   8
  -5  -3  -2 11226.3 1493.36   7
   5  -3   2 10069.5 1217.94  12
   5   3   2 13108.4 1491.36  12
  -5  -3  -2 10622.8 1255.13  10
   5   3   2 12571.5 1467.46   6
   5  -3   2 11466.1 1467.73   6
  -5   3  -3 125.743 236.572   8
   5  -3   3 453.610 273.168  12
   5   3   3 648.101 424.666  12
  -5  -3  -3-145.921 236.905  11
   5   3   3 1017.55 460.890   6
   5  -3   3-71.8048 264.799   6
  -5  -3  -3 77.0881 213.795  10
   5  -3   4 2730.36 758.984  12
  -5  -3  -4 2895.86 765.545  11
   5  -4  -8 1712.03 625.587   9
   5  -4  -7 2466.31 756.821   9
   5   4  -7 3347.59 961.073   6
   5  -4  -7 3408.45 938.076   6
   5   4  -7 3714.42 874.339  14
   5  -4  -6 3063.46 885.309   9
   5   4  -6 4584.95 1020.28   6
   5  -4  -6 4035.06 956.258   6
   5   4  -6 3439.67 795.935  14
  -5   4   6 3460.23 671.736  13
  -5  -4   6 3953.08 1036.77   7
   5  -4  -5 213.471 362.181   9
   5   4  -5 192.755 179.573   9
   5   4  -5 475.221 489.078   6
   5  -4  -5-489.215 392.614   6
   5   4  -5 472.377 339.235  14
  -5   4   5 64.1298 132.241  13
  -5   4   5 429.843 453.034   7
  -5  -4   5 1.57078 323.680   7
   5  -4  -4 10983.7 1385.72   6
   5  -4  -4 12743.0 1547.47   9
   5   4  -4 11799.7 1153.11   9
  -5   4   4 11499.9 1492.21   8
   5   4  -4 12629.5 1192.85  14
  -5   4   4 13356.8 1048.63  13
  -5   4   4 12623.8 1414.24   7
  -5  -4   4 12817.2 1625.83   7
   5   4  -4 14024.4 1603.85   6
   5  -4  -3 17771.8 1750.07   9
  -5   4   3 17348.6 1839.55   8
   5   4  -3 16756.4 1260.97  14
  -5   4   3 18358.8 1713.46   7
  -5  -4   3 16716.0 1724.70   7
   5   4  -3 17857.3 1698.18   6
   5  -4  -3 17560.9 1658.40   6
   5  -4  -2 1298.16 451.107   9
   5   4  -2 1690.60 545.890   6
   5  -4  -2 511.969 317.084   6
   5   4  -2 878.177 306.780  14
  -5   4   2 1481.11 710.165   8
   5   4  -2 732.808 291.179  12
  -5   4   2 727.366 378.943   7
  -5  -4   2 1363.22 611.585   7
   5  -4  -1 10131.4 1351.55   9
   5   4  -1 5014.93 559.049  14
  -5   4   1 5824.96 1056.87   8
   5   4  -1 6522.19 977.229  12
  -5   4   1 5369.45 958.608   7
  -5  -4   1 4202.59 874.546   7
   5   4  -1 8026.95 1177.69   6
   5  -4  -1 7044.82 1229.18   6
   5  -4   0 27906.4 2070.31   9
  -5   4   0 30410.3 2412.02   8
  -5   4   0 32327.9 2420.20   7
  -5  -4   0 29604.8 2254.98   7
   5   4   0 27413.9 2009.44  12
   5   4   0 31673.4 2247.40   6
   5  -4   0 33988.0 2383.44   6
   5  -4   1 11937.7 1330.50   9
  -5   4  -1 14820.9 1690.33   8
  -5  -4  -1 14118.7 1600.86   7
   5   4   1 13760.3 1469.58  12
  -5  -4  -1 14303.4 1421.18  10
   5   4   1 14387.4 1565.44   6
   5  -4   1 15055.8 1641.03   6
   5   4   2 256.570 217.912   6
   5  -4   2 338.227 358.432   6
   5  -4   2 107.773 184.870   9
  -5   4  -2 349.117 233.094   8
   5  -4   2 113.742 232.288  12
   5   4   2 451.381 348.016  12
  -5  -4  -2-100.989 254.431   7
  -5  -4  -2 918.363 465.997  10
   5   4   3 4212.99 887.031   6
   5  -4   3 4836.38 951.375   6
  -5   4  -3 4249.84 933.229   8
   5  -4   3 5209.13 974.962  12
   5   4   3 5878.76 1106.95  12
  -5  -4  -3 4420.44 954.893  10
   5  -5  -7 913.467 516.378   9
   5   5  -7 1086.03 505.276   6
   5  -5  -7 1688.23 717.711   6
  -5   5   7 524.361 340.660   8
   5  -5  -6 478.445 453.566   9
   5   5  -6 760.986 420.035   6
   5  -5  -6 399.996 370.476   6
   5   5  -6 521.437 317.418  14
  -5   5   6 110.664 198.386   8
  -5   5   6 167.474 195.818  13
  -5  -5   6 630.664 527.298   7
   5  -5  -5 424.104 388.378   9
   5   5  -5 972.133 402.433   9
   5   5  -5 1765.10 745.476   6
   5  -5  -5 583.965 490.234   6
  -5   5   5 364.646 257.279   3
   5   5  -5 207.064 215.146  14
  -5   5   5 218.296 297.275   8
  -5   5   5 554.598 249.424  13
  -5  -5   5 758.092 559.193   7
   5  -5  -4 484.403 285.766   9
   5   5  -4 915.305 414.073   6
   5  -5  -4 480.086 268.297   6
   5   5  -4 1013.58 343.494  14
  -5   5   4 1016.75 469.672   8
  -5   5   4 616.215 305.409  13
  -5   5   4 561.793 275.120   7
  -5  -5   4 92.7152 333.551   7
   5  -5  -3 18435.4 1887.26   9
  -5   5   3 15847.1 1758.01   8
   5   5  -3 16239.9 1236.84  14
  -5   5   3 17994.1 1691.39   7
  -5  -5   3 16496.6 1765.09   7
   5   5  -3 18309.2 1705.47   6
   5  -5  -3 17151.8 1651.07   6
   5  -5  -2 5255.32 984.338   9
   5  -5  -2 5992.07 1003.37   6
   5   5  -2 6635.72 751.689  14
  -5   5   2 6852.77 1184.49   8
  -5   5   2 5167.38 916.255   7
  -5  -5   2 5516.05 1014.97   7
   5   5  -2 7950.54 1158.91   6
   5  -5  -1 2.10837 262.001   9
   5   5  -1-276.843 393.914   6
   5  -5  -1 360.659 369.583   6
   5   5  -1 80.0387 170.932  14
  -5   5   1 76.1938 280.670   8
   5   5  -1 262.620 311.186  12
  -5   5   1 22.3079 197.474   7
  -5  -5   1 486.475 351.204   7
   5   5   0 3037.08 699.663   6
   5  -5   0 1837.60 589.257   6
   5  -5   0 3347.45 766.306   9
  -5   5   0 2670.25 728.429   8
  -5   5   0 3141.67 778.655   7
   5   5   0 3978.45 881.299  12
  -5  -5   0 3306.11 739.218   7
  -5  -5   0 3435.55 709.904  10
   5   5   1 1411.98 514.428   6
   5  -5   1 908.545 431.314   6
   5  -5   1 642.086 400.296   9
  -5   5  -1 1005.17 529.443   8
   5   5   1 743.283 404.385  12
  -5  -5  -1 660.328 431.522   7
  -5  -5  -1 617.394 399.032  10
  -5   5  -2 3194.38 786.788   1
   5   5   2 3496.75 770.903   6
   5  -5   2 2137.16 713.113   6
  -5   5  -2 3644.72 915.092   8
   5   5   2 2457.31 747.063  12
  -5  -5  -2 2563.88 720.034   7
  -5  -5  -2 3128.45 791.826  10
   5   5   3 287.105 285.061   6
   5  -5   3 422.895 391.095   6
  -5   5  -3-200.833 240.694   8
   5   5   3 561.763 505.540  12
   5   6  -7 1337.32 644.952   6
   5  -6  -7 284.948 331.718   6
  -5   6   7 777.691 471.836   5
  -5  -6   7 500.012 381.767   5
  -5   6   7 13.0980 228.524  13
   5  -6  -6 3209.40 955.580   9
   5   6  -6 5854.48 1188.22   6
   5  -6  -6 3234.07 899.030   6
  -5   6   6 2483.85 688.517   8
  -5   6   6 4548.57 841.825  13
   5  -6  -5 13763.2 1848.33   9
   5   6  -5 12808.0 1684.99   6
   5  -6  -5 12171.3 1583.55   6
   5   6  -5 11985.0 1196.63   9
  -5   6   5 11086.4 1532.80   8
   5   6  -5 11094.8 1256.60  14
  -5   6   5 11054.6 1200.30  13
  -5  -6   5 13292.7 1840.15   7
   5  -6  -4 1728.86 674.976   9
   5   6  -4 2274.91 681.365   6
   5  -6  -4 1946.08 624.507   6
   5   6  -4 1948.24 515.919  14
  -5   6   4 2148.98 697.242   8
  -5   6   4 1517.46 449.672  13
  -5  -6   4 1912.90 618.275   7
   5  -6  -3 21.3124 202.226   9
   5   6  -3 53.9895 306.920   6
   5  -6  -3-94.5556 282.400   6
   5   6  -3 308.150 238.024  14
  -5   6   3 210.028 279.897   8
  -5  -6   3 279.215 331.569   7
   5  -6  -2 142.062 264.056   9
   5   6  -2-256.902 185.942   6
   5  -6  -2 351.426 397.407   6
  -5   6   2 324.085 529.005   8
  -5   6   2 54.6278 222.412   7
  -5  -6   2-48.5995 326.433   7
   5  -6  -1 20126.8 1999.88   9
  -5   6   1 23543.8 2227.80   8
  -5   6   1 20796.0 1859.62   7
  -5  -6   1 22082.4 1963.62   7
   5   6  -1 22124.9 2133.59  12
   5   6  -1 24978.6 2029.53   6
   5  -6  -1 23136.7 2004.28   6
   5  -6   0 6263.49 1085.74   9
  -5   6   0 9132.91 1383.36   8
  -5   6   0 9491.38 1396.35   1
  -5  -6   0 8598.12 1214.41   7
   5   6   0 8839.01 1280.38  12
  -5  -6   0 9807.79 1238.16  10
   5   6   0 8482.31 1198.44   6
   5  -6   0 8796.10 1260.32   6
   5   6   1 246.463 316.150   6
   5  -6   1-166.279 388.861   6
   5  -6   1 509.589 364.025   9
  -5   6  -1 225.189 550.243   8
   5   6   1 37.9774 312.367  12
  -5  -6  -1 639.962 466.313   7
  -5   6  -1 412.552 338.421   1
  -5  -6  -1-86.8580 309.965  10
   5   6   2 432.833 330.801   6
   5  -6   2 677.018 408.558   6
  -5   6  -2 582.446 300.457   8
   5   6   2 280.047 268.742  12
   5   6   3-76.1775 360.447   6
   5  -6   3 568.032 499.115   6
  -5   7   6 1663.02 577.642   8
  -5   7   6 4552.61 912.273  13
  -5   7   5 523.439 348.036   8
  -5   7   5 316.884 305.106  13
  -5  -7   5 711.204 515.557   7
   5  -7  -4 6191.00 1227.00   9
  -5   7   4 8885.89 1386.35   8
   5   7  -4 9753.82 1118.08  14
  -5   7   4 8207.25 1376.06   1
  -5   7   4 7487.49 980.328  13
  -5  -7   4 9465.93 1500.00   7
   5  -7  -3 5074.70 1192.79   9
   5   7  -3 5537.64 918.993   2
  -5   7   3 5278.30 1109.76   8
  -5   7   3 4845.42 1021.67   1
  -5  -7   3 5051.17 1009.24   7
   5  -7  -2 1242.59 615.672   9
  -5   7   2 1037.17 550.718   1
  -5   7   2 1108.13 591.015   8
  -5  -7   2 1778.71 599.596   7
   5   7  -2 520.053 382.009   2
   5  -7  -1-112.015 227.901   9
  -5   7   1-288.330 257.028   8
  -5   7   1 448.193 413.632   1
   5   7  -1-203.989 297.539  12
  -5  -7   1 903.627 436.537   7
   5   7  -1 324.500 339.946   2
  -5  -7   1-232.485 323.896  10
   5  -7   0 8560.11 1366.57   9
  -5   7   0 11020.4 1600.64   1
  -5   7   0 10214.8 1516.28   8
   5   7   0 9416.57 1233.41   2
   5   7   0 10763.7 1582.75  12
  -5  -7   0 11293.9 1413.08  10
   5   7   1 79.4279 297.853  12
  -5   7  -1 432.121 393.231   1
  -5   8   4 1720.08 662.254   8
  -5  -8   4 1837.76 671.019   7
  -5   8   3 648.464 353.473   8
  -5  -8   3-284.470 378.768   7
   5  -8  -2 118.857 321.617   9
  -5  -8   2-125.559 212.932  10
   5  -8  -1 7974.26 1389.62   9
  -5  -8   1 8541.28 1258.34  10
   5  -8   0 3945.42 949.998   9
   5   8   0 4682.45 1060.91  12
   6   0  -7 86.1469 208.453   9
   6   0  -7-171.970 278.687  14
  -6   0   7 114.195 380.419   7
   6   0  -6 9422.05 1362.59   9
   6   0  -6 7133.88 1355.41   6
   6   0  -6 6594.60 1156.87  14
  -6   0   6 7772.58 1490.73   7
   6   0  -5 120.587 277.268   9
   6   0  -5-30.1882 384.455   6
   6   0  -5 361.338 316.276  14
  -6   0   5-277.021 370.239   7
   6   0  -4 31282.9 2389.62   9
   6   0  -4 26336.3 2030.42  14
  -6   0   4 31210.8 2542.07   7
   6   0  -4 28296.2 2434.09   6
   6   0  -3 1581.65 553.943   9
   6   0  -3 2263.70 795.446   6
   6   0  -3 1838.86 452.711  14
  -6   0   3 2135.12 690.035   7
   6   0  -2 3350.25 863.403   6
   6   0  -2 4299.40 859.998   9
   6   0  -2 2573.22 571.960  14
  -6   0   2 3344.90 849.160   7
   6   0  -1 11233.1 1309.41   9
  -6   0   1 9834.22 1497.98   7
   6   0  -1 12001.0 1541.97   6
   6   0   0 10638.1 1224.15   9
  -6   0   0 10619.2 1442.43   8
  -6   0   0 10846.2 1579.91   7
   6   0   0 9522.98 1337.61   6
   6   0   1 5415.98 1234.00   6
   6   0   1 3759.07 770.732   9
  -6   0  -1 12230.8 1511.89   8
  -6   0  -1 12407.1 1742.58   7
  -6   0  -1 7037.15 1008.09  10
   6   0   2 849.392 477.241   6
   6   0   2-282.681 251.988   9
   6   0   2 377.126 268.949  12
  -6   0  -2 420.844 491.719   7
  -6   0  -2 5.67763 136.794  11
  -6   0  -2 510.886 323.699  10
   6   0   3 403.202 362.118  12
  -6   0  -3 202.550 254.652  11
  -6   0  -3-80.5467 251.679  10
   6  -1  -7 2441.90 750.424   9
   6   1  -7 3215.25 828.853   9
  -6   1   7 3446.41 982.256   7
   6  -1  -6 236.552 254.282   9
   6   1  -6-4.04807 190.258   9
   6   1  -6 333.866 457.778   6
   6  -1  -6 518.940 268.617   6
   6   1  -6 202.696 323.121  14
   6  -1  -6 196.075 221.742  14
  -6   1   6 142.791 305.567   7
  -6  -1   6 101.180 247.624   7
   6  -1  -5 1179.03 513.679   9
   6   1  -5 1435.82 556.949   9
   6   1  -5 1761.07 678.297   6
   6  -1  -5 1523.41 610.983   6
   6   1  -5 810.149 325.827  14
   6  -1  -5 1047.44 475.405  14
  -6   1   5 1182.46 519.150   7
  -6  -1   5 1201.69 560.921   7
   6   1  -4 7149.30 1110.10   9
   6  -1  -4 7260.77 1181.01   9
   6   1  -4 8135.71 1275.33   6
   6  -1  -4 7820.31 1279.21   6
   6   1  -4 6714.63 997.386  14
   6  -1  -4 6469.81 1034.94  14
  -6   1   4 8001.09 1308.70   7
  -6  -1   4 7196.41 1238.67   7
   6  -1  -3 47453.2 2950.25   9
   6   1  -3 46820.3 2735.82   9
   6   1  -3 43100.6 2384.56  14
   6  -1  -3 42722.0 2492.88  14
  -6   1   3 44934.6 3030.68   7
  -6  -1   3 43275.4 2983.11   7
   6   1  -3 49926.9 3216.19   6
   6  -1  -3 46960.8 3137.60   6
   6   1  -2 884.692 336.347   6
   6  -1  -2 37.2281 349.048   6
   6  -1  -2-83.5745 197.969   9
   6   1  -2 74.3209 342.775   9
   6   1  -2 424.543 208.034  14
   6  -1  -2 248.783 185.534  14
  -6   1   2 455.881 314.459   7
  -6  -1   2 526.817 422.948   7
   6   1  -1 3161.89 855.544   6
   6  -1  -1 3434.68 855.682   6
   6  -1  -1 2876.48 690.919   9
   6   1  -1 3425.14 681.609   9
  -6   1   1 3365.39 772.085   8
  -6   1   1 3132.40 869.409   7
  -6  -1   1 3562.44 897.815   7
   6   1   0 629.351 349.015   6
   6  -1   0 567.298 445.844   6
   6  -1   0 112.975 212.454   9
   6   1   0 295.654 249.882   9
  -6   1   0 351.416 372.569   8
  -6  -1   0 907.918 517.379   8
  -6   1   0 328.512 305.123   7
  -6  -1   0 153.858 401.255   7
   6   1   1 4347.89 975.135   6
   6  -1   1 4970.28 1059.87   6
   6  -1   1 3370.03 685.186   9
   6   1   1 5161.66 826.401   9
  -6   1  -1 5270.59 1052.22   8
  -6  -1  -1 5124.32 942.731   8
  -6   1  -1 4119.03 1069.78   7
  -6  -1  -1 5935.23 1254.80   7
  -6  -1  -1 5059.56 835.331  10
   6  -1   2 13379.2 1390.23   9
   6   1   2 13677.5 1341.25   9
  -6   1  -2 15884.1 2013.75   7
  -6  -1  -2 13735.4 1832.10   7
   6   1   2 12907.5 1440.08  12
  -6  -1  -2 14320.5 1472.60  10
  -6   1  -2 12538.4 1303.54  10
   6   1   2 14242.2 1753.41   6
   6  -1   2 15103.3 1809.32   6
   6   1   3 168.178 179.534   9
   6  -1   3 674.890 314.551  12
   6   1   3-82.3797 258.027  12
  -6   1  -3-152.663 274.634  11
  -6  -1  -3 830.527 438.745  10
   6  -2  -7 475.462 453.594   9
  -6   2   7 749.201 467.333   7
   6  -2  -6 1183.76 666.193   9
   6   2  -6 378.028 229.055   9
   6   2  -6 347.503 575.888   6
   6  -2  -6 287.770 237.577   6
   6   2  -6 177.816 197.493  14
   6  -2  -6 346.205 371.504  14
  -6   2   6-91.3275 276.606   7
  -6  -2   6 875.630 485.535   7
   6  -2  -5 990.044 520.187   9
   6   2  -5-21.0300 322.344   9
   6   2  -5-150.824 262.019   6
   6  -2  -5 78.1197 328.853   6
   6   2  -5 631.300 380.685  14
   6  -2  -5 312.682 386.742  14
  -6   2   5 144.228 285.227   7
  -6  -2   5 220.211 370.070   7
   6  -2  -4 8145.20 1264.37   9
   6   2  -4 4847.80 888.810   9
   6   2  -4 8057.75 1067.60  14
   6  -2  -4 7881.78 1180.70  14
  -6   2   4 8525.71 1335.85   7
  -6  -2   4 7770.92 1312.46   7
   6   2  -4 7892.48 1325.49   6
   6  -2  -4 8869.48 1373.59   6
   6  -2  -3 4398.70 923.215   9
   6   2  -3 4363.41 823.195   9
   6   2  -3 4935.27 960.859   6
   6  -2  -3 3967.91 867.211   6
   6   2  -3 3935.79 690.170  14
  -6   2   3 4444.36 950.870   7
  -6  -2   3 4004.45 952.964   7
   6  -2  -2 609.920 289.005   9
   6   2  -2 895.057 524.435   6
   6  -2  -2 362.366 389.536   6
   6   2  -2 610.541 261.470   9
  -6   2   2 548.062 256.453   8
  -6   2   2 715.924 481.759   7
  -6  -2   2-42.9867 408.586   7
   6   2  -1 5828.98 1040.43   6
   6  -2  -1 6136.07 1144.91   6
   6  -2  -1 4941.15 928.297   9
   6   2  -1 5434.24 834.866   9
  -6   2   1 5530.67 1141.59   8
  -6   2   1 6117.05 1173.67   7
  -6  -2   1 5877.47 1102.00   7
   6   2   0 277.116 315.328   6
   6  -2   0 536.776 409.557   6
   6  -2   0 546.358 353.447   9
   6   2   0 529.829 275.490   9
  -6   2   0-240.446 334.436   8
  -6  -2   0 483.402 428.617   7
   6  -2   1 6326.24 1006.78   9
   6   2   1 6182.41 923.377   9
  -6   2  -1 11338.8 1480.25   8
  -6   2  -1 10595.0 1632.57   7
  -6  -2  -1 10013.9 1597.12   7
   6   2   1 5510.87 940.825  12
  -6  -2  -1 6711.00 1022.91  10
   6   2   1 7782.12 1304.72   6
   6  -2   1 6607.40 1367.87   6
   6   2   2 1393.21 680.619   6
   6  -2   2 1236.83 523.869   6
   6  -2   2 307.295 221.451   9
   6   2   2 1655.92 503.850   9
  -6   2  -2 825.199 430.085   8
   6   2   2 662.396 394.072  12
  -6  -2  -2 1268.60 528.786   7
  -6  -2  -2 1213.94 528.230  10
   6   2   3 455.964 323.379   9
   6   2   3 136.994 323.468  12
   6  -3  -7 669.061 384.105   9
   6  -3  -6 1959.86 776.297   9
   6   3  -6 1462.01 488.690   9
   6   3  -6 2297.40 907.752   6
   6  -3  -6 1056.33 570.901   6
   6   3  -6 1839.69 646.617  14
   6  -3  -6 1484.58 651.817  14
  -6   3   6 1645.26 640.462   7
  -6  -3   6 1013.70 643.980   7
   6  -3  -5 2204.91 772.338   9
   6   3  -5 1059.32 486.666   9
   6   3  -5 2405.16 824.825   6
   6  -3  -5 1318.92 596.210   6
   6   3  -5 1346.97 486.433  14
  -6   3   5 1483.59 581.732   7
  -6  -3   5 1398.77 665.239   7
   6  -3  -4 1838.21 652.168   9
   6   3  -4 1112.23 394.363   9
   6   3  -4 876.771 479.636   6
   6  -3  -4 851.909 462.178   6
   6   3  -4 1289.13 471.118  14
  -6   3   4 537.110 298.135   7
  -6  -3   4 1305.84 594.687   7
   6  -3  -3 7844.94 1279.41   9
   6   3  -3 8883.06 1170.87   9
   6  -3  -3 5935.21 1098.62   6
  -6   3   3 8678.87 1534.28   8
   6   3  -3 6545.00 892.871  14
  -6   3   3 7898.49 1339.57   7
  -6  -3   3 7301.79 1273.83   7
   6   3  -3 8872.30 1373.41   6
   6  -3  -2 2433.70 730.886   9
   6   3  -2 1234.45 469.441   6
   6  -3  -2 2195.63 701.472   6
   6   3  -2 2109.17 578.403   9
  -6   3   2 2780.85 846.390   8
  -6   3   2 1371.05 617.969   7
  -6  -3   2 1233.54 596.625   7
   6   3  -1 1785.01 620.735   6
   6  -3  -1 2021.89 675.883   6
   6  -3  -1 1780.21 578.918   9
   6   3  -1 2076.43 592.160   9
  -6   3   1 1965.74 698.780   8
  -6   3   1 1160.07 345.774   7
  -6  -3   1 1201.14 544.729   7
   6   3   0 311.175 404.019   6
   6  -3   0-183.871 237.192   6
   6  -3   0-591.465 328.873   9
  -6   3   0 363.436 419.053   8
  -6   3   0 421.413 360.348   7
  -6  -3   0-8.38780 249.455   7
   6   3   1 886.130 733.227   6
   6  -3   1 1804.48 899.354   6
   6  -3   1 941.456 457.351   9
  -6   3  -1 3163.25 918.193   8
   6   3   1 605.706 394.190  12
  -6   3  -1 4558.88 1054.00   7
  -6  -3  -1 2531.42 996.602   7
  -6  -3  -1 760.561 547.536  10
  -6   3  -2 12724.7 1640.02   8
  -6  -3  -2 15032.2 1935.67   7
   6   3   2 12184.1 1500.67  12
   6  -4  -6 1961.28 757.201   9
   6   4  -6 1016.50 500.304   6
   6  -4  -6 599.374 543.565   6
   6   4  -6 828.955 413.280  14
   6  -4  -5 339.868 379.623   9
   6   4  -5 880.891 407.284   9
   6   4  -5 748.768 516.984   6
   6  -4  -5 1051.73 474.619   6
   6   4  -5 241.450 226.786  14
  -6   4   5 1153.39 590.275   8
  -6   4   5-438.635 382.346   7
  -6  -4   5 415.198 332.837   7
   6  -4  -4 1106.87 520.267   9
   6   4  -4 2030.25 616.226   9
   6   4  -4 2394.48 756.139   6
   6  -4  -4 1199.47 587.408   6
   6   4  -4 1456.88 476.207  14
  -6   4   4 1213.68 580.680   8
  -6   4   4 1636.30 506.740   7
  -6  -4   4 1119.35 542.856   7
   6  -4  -3 4601.84 946.894   9
   6   4  -3 4727.12 814.503   9
   6   4  -3 4123.08 923.296   6
   6  -4  -3 3455.27 896.521   6
   6   4  -3 4293.71 693.066  14
  -6   4   3 3961.11 976.785   8
  -6   4   3 4620.03 996.640   7
  -6  -4   3 4422.71 1010.55   7
   6  -4  -2 4357.28 1014.64   9
   6   4  -2 4005.94 915.592   6
   6  -4  -2 2299.56 702.276   6
  -6   4   2 3676.09 905.706   8
  -6   4   2 3284.60 828.093   7
  -6  -4   2 3416.33 917.111   7
   6  -4  -1 1854.93 574.990   9
   6   4  -1 2595.36 708.060   6
   6  -4  -1 1739.92 654.117   6
  -6   4   1 1566.33 678.401   8
  -6   4   1 2224.06 718.108   7
  -6  -4   1 2635.08 763.981   7
   6   4   0 782.938 509.627   6
   6  -4   0-57.2607 309.625   6
   6  -4   0 228.248 235.418   9
  -6   4   0-96.6049 270.469   8
  -6   4   0-266.132 400.436   7
  -6  -4   0 471.311 393.022   7
  -6  -4   0 464.883 337.322  10
   6   4   1 6145.64 1179.90   6
   6  -4   1 6294.35 1315.42   6
   6  -4   1 4380.56 893.351   9
  -6   4  -1 7913.99 1424.67   8
   6   4   1 3021.21 702.274  12
  -6  -4  -1 7694.55 1319.19   7
  -6  -4  -1 6368.61 1050.43  10
  -6   4  -2 2881.33 829.767   8
   6   4   2 2317.75 760.883  12
  -6  -4  -2 3332.69 984.884   7
   6   5  -6 231.922 502.142   6
   6  -5  -6 190.464 287.457   6
   6   5  -5-6.35199 225.433   9
   6   5  -5-347.108 286.241   6
   6  -5  -5 393.913 384.985   6
   6   5  -5-54.1165 182.312  14
  -6   5   5-234.041 274.473   8
  -6  -5   5 206.514 457.191   7
   6  -5  -4 1548.38 694.622   9
   6   5  -4 1364.80 458.229   9
   6   5  -4 897.656 380.377   6
   6  -5  -4 1608.29 587.001   6
   6   5  -4 919.733 385.944  14
  -6   5   4 1035.89 419.968   8
  -6  -5   4 1686.63 671.725   7
   6  -5  -3 7809.18 1320.10   9
   6  -5  -3 6040.57 1134.88   6
  -6   5   3 9308.82 1547.30   8
   6   5  -3 6707.93 871.045  14
  -6   5   3 8154.61 1371.65   7
  -6  -5   3 6786.57 1279.43   7
   6   5  -3 8111.39 1295.66   6
   6  -5  -2-308.824 310.192   9
   6   5  -2 790.310 554.426   6
   6  -5  -2-189.050 467.426   6
  -6   5   2 860.199 560.719   8
  -6   5   2-271.707 255.623   7
  -6  -5   2-119.328 457.957   7
   6  -5  -1 647.787 461.637   9
   6   5  -1-580.678 426.307   6
   6  -5  -1-67.0512 332.393   6
  -6   5   1 648.374 483.563   8
  -6   5   1 57.1017 265.724   7
  -6  -5   1-383.212 405.486   7
   6   5   0 362.761 339.419   6
   6  -5   0 77.9993 313.390   6
   6  -5   0 250.636 286.045   9
  -6   5   0-171.046 291.057   8
  -6   5   0 491.017 462.494   7
  -6  -5   0 901.000 516.753   7
  -6  -5   0 191.832 290.094  10
   6   5   1 1137.31 565.580   6
   6  -5   1 981.571 619.419   6
   6  -5   1 432.820 301.050   9
   6   5   1 599.188 493.904  12
  -6  -5  -1 599.414 371.888   7
  -6  -5  -2 5854.21 1186.87   7
   6   6  -5 1024.87 410.362   9
   6   6  -5 241.388 346.593   6
   6  -6  -5-117.832 320.653   6
   6   6  -4 10267.6 1530.79   6
   6  -6  -4 8551.63 1373.63   6
   6   6  -4 12569.5 1347.99   9
   6   6  -4 10411.8 1208.78  14
  -6  -6   4 11517.3 1707.26   7
   6  -6  -3 211.496 299.480   9
   6   6  -3-163.574 259.371   6
   6  -6  -3 137.926 257.238   6
   6   6  -3 206.313 200.613  14
  -6  -6   3 859.499 539.941   7
   6  -6  -2 1150.01 659.205   9
   6   6  -2 1150.81 536.541   6
   6  -6  -2 1535.11 562.239   6
  -6   6   2 1656.10 546.737   7
  -6  -6   2 1309.82 440.886   7
   6  -6  -1 2093.76 726.495   9
   6   6  -1 1854.48 639.850   6
   6  -6  -1 2555.92 747.141   6
  -6   6   1 2200.34 665.720   7
  -6  -6   1 2842.39 774.632   7
   6  -6   0 2522.21 728.817   9
   6   6   0 2738.40 771.875   6
   6  -6   0 3026.33 865.614   6
  -6  -6   0 2925.96 760.774   7
  -6   6   0 2109.24 649.506   1
   6   6   1 1366.23 676.974   6
   6  -6   1 1620.13 672.245   6
   6   6   1 783.959 432.739  12
   6   7  -3 11452.0 1196.46  14
  -6  -7   3 13331.5 1803.08   7
  -6  -7   2 22.4261 247.543   7
   7   0  -5 3129.77 882.650   9
   7   0  -5 2449.34 702.979  14
   7   0  -4 7332.65 1363.64   9
   7   0  -4 6599.95 1346.36   6
   7   0  -4 5245.38 970.687  14
  -7   0   4 6917.35 1340.85   7
   7   0  -3 2918.68 816.723   9
   7   0  -3 3978.41 959.953   6
  -7   0   3 4266.60 1077.53   7
   7   0  -2 942.392 455.742   9
   7   0  -2 753.901 560.066   6
  -7   0   2 539.744 479.625   7
   7   0  -1 5860.09 1264.89   6
   7   0  -1 6002.95 1099.82   9
  -7   0   1 5920.03 1210.87   8
  -7   0   1 5651.49 1255.87   7
  -7   0   0 872.408 569.058   8
   7   1  -5 844.376 417.049   9
   7   1  -5 1917.02 606.899  14
   7  -1  -5 1658.44 535.927  14
  -7   1   5 773.348 523.004   7
   7  -1  -4 992.216 547.192   9
   7   1  -4 1306.81 586.455   9
   7   1  -4 754.120 547.497   6
   7  -1  -4 1138.77 601.792   6
   7   1  -4 677.252 358.668  14
   7  -1  -4 1233.47 532.099  14
  -7   1   4 2518.04 909.509   7
  -7  -1   4 1627.89 729.033   7
   7  -1  -3 505.238 367.714   9
   7   1  -3 1670.68 624.918   9
   7   1  -3 1073.36 684.325   6
   7  -1  -3 1165.81 510.875   6
  -7   1   3 1996.67 731.456   7
  -7  -1   3 1525.56 607.067   7
   7  -1  -2 531.193 413.810   9
   7   1  -2 485.751 472.470   6
   7  -1  -2 516.838 526.288   6
   7   1  -2 1183.88 452.707   9
  -7   1   2 1790.58 730.481   7
  -7  -1   2 840.615 444.966   7
   7   1  -1 911.509 581.348   6
   7  -1  -1 1154.79 486.286   9
   7   1  -1 294.232 194.740   9
  -7   1   1 786.228 510.728   8
  -7   1   1 965.932 642.540   7
  -7   1   0 4239.32 1038.03   8
  -7   1  -1 352.248 297.247  10
   7   2  -5 58.8073 296.471   9
   7   2  -5 299.760 289.847  14
   7  -2  -5-456.885 453.575  14
  -7   2   5 323.539 394.171   7
   7   2  -4 2030.81 656.609   9
   7   2  -4 2323.83 786.393   6
   7  -2  -4 2432.18 827.698   6
   7   2  -4 3055.43 722.115  14
  -7   2   4 3743.91 1015.52   7
   7  -2  -3-859.138 518.613   9
   7   2  -3 330.855 333.217   9
   7   2  -3 46.8654 387.164   6
   7  -2  -3 414.700 416.353   6
  -7   2   3-247.441 343.216   8
  -7   2   3-20.1588 373.306   7
  -7  -2   3-278.811 264.531   7
   7  -2  -2 382.019 313.434   9
   7   2  -2-94.0696 513.891   6
   7  -2  -2-39.0437 357.611   6
   7   2  -2-222.487 290.436   9
  -7   2   2-267.841 484.856   8
  -7   2   2 59.7104 294.581   7
  -7  -2   2-236.084 452.052   7
   7  -2  -1 1130.64 534.256   9
  -7   2   1-111.144 366.957   8
  -7   2   0 231.682 342.579   8
   7   3  -5 775.845 427.528  14
  -7   3   5 1219.25 460.485   7
  -7   3   4 1719.23 690.439   7
   7   3  -3 53.9593 399.629   6
   7  -3  -3 322.192 439.533   6
  -7   3   3 401.817 336.144   7
   7   3  -2 998.022 420.636   6
   7  -3  -2 1041.39 533.785   6
  -7   3   2 1903.72 771.951   7
  -7   4   5 1435.75 647.028   7
  -7   4   4 2199.20 808.354   7
  -7   4   3 1294.25 633.486   7
  -7   4   2-288.911 383.922   7
  -7   5   3 849.166 573.162   7
   0   0   0    0.00    0.00   0
TITL lt180 in P2(1)/m
REM P2(1)/m (#11 in standard setting)
CELL 0.71073   5.740899   8.720898   7.006170  90.0000 108.3135  90.0000
ZERR    2.00   0.000964   0.001558   0.001179   0.0000   0.0189   0.0000
LATT  1
SYMM -x, y+1/2,-z
SFAC C H O
UNIT 12.00 24.00 2.00
TREF
HKLF 4
END
;
_shelx_hkl_checksum              11076
loop_
_space_group_symop_operation_xyz
'x, y, z'
'-x, y+1/2, -z'
'-x, -y, -z'
'x, -y-1/2, z'
loop_
_atom_site_label
_atom_site_type_symbol
_atom_site_fract_x
_atom_site_fract_y
_atom_site_fract_z
_atom_site_U_iso_or_equiv
_atom_site_adp_type
_atom_site_occupancy
_atom_site_site_symmetry_order
_atom_site_calc_flag
_atom_site_refinement_flags_posn
_atom_site_refinement_flags_adp
_atom_site_refinement_flags_occupancy
_atom_site_disorder_assembly
_atom_site_disorder_group
C C 0.6002(3) 0.2500 0.2779(3) 0.0333(5) Uani 1 2 d S T P . .
C1 C 0.5801(4) 0.2500 0.4899(3) 0.0383(5) Uani 1 2 d S T P . .
C2 C 0.8113(5) 0.2500 0.6650(4) 0.0643(9) Uani 1 2 d S T P . .
H2A H 0.799(7) 0.205(5) 0.787(7) 0.078(15) Uiso 0.5 1 d . . . . .
H2B H 0.952(6) 0.2500 0.636(5) 0.077(10) Uiso 1 2 d S T P . .
H2C H 0.808(8) 0.377(6) 0.683(7) 0.066(12) Uiso 0.5 1 d . . . . .
C3 C 0.3451(4) 0.2500 0.1217(4) 0.0524(6) Uani 1 2 d S T P . .
H3A H 0.260(4) 0.342(3) 0.139(3) 0.060(5) Uiso 1 1 d . . . . .
H3B H 0.361(6) 0.2500 -0.021(5) 0.068(8) Uiso 1 2 d S T P . .
O4 O 0.3835(3) 0.2500 0.5187(3) 0.0672(7) Uani 1 2 d S T P . .
C5 C 0.7422(3) 0.39337(17) 0.2518(2) 0.0448(5) Uani 1 1 d . . . . .
H5A H 0.913(4) 0.393(2) 0.345(3) 0.049(5) Uiso 1 1 d . . . . .
H5B H 0.745(4) 0.397(2) 0.109(3) 0.064(6) Uiso 1 1 d . . . . .
H5C H 0.660(4) 0.488(2) 0.278(3) 0.052(5) Uiso 1 1 d . . . . .
loop_
_atom_site_aniso_label
_atom_site_aniso_U_11
_atom_site_aniso_U_22
_atom_site_aniso_U_33
_atom_site_aniso_U_23
_atom_site_aniso_U_13
_atom_site_aniso_U_12
C 0.0314(9) 0.0338(9) 0.0341(9) 0.000 0.0095(7) 0.000
C1 0.0392(10) 0.0381(10) 0.0401(10) 0.000 0.0160(8) 0.000
C2 0.0525(15) 0.103(3) 0.0352(12) 0.000 0.0107(10) 0.000
C3 0.0393(11) 0.0647(16) 0.0474(13) 0.000 0.0052(9) 0.000
O4 0.0475(10) 0.1056(17) 0.0576(11) 0.000 0.0297(8) 0.000
C5 0.0520(9) 0.0365(8) 0.0490(9) 0.0035(6) 0.0204(7) -0.0037(6)
loop_
_atom_type_symbol
_atom_type_description
_atom_type_scat_dispersion_real
_atom_type_scat_dispersion_imag
_atom_type_scat_source
C C 0.0033 0.0016 'International Tables Vol C Tables 4.2.6.8 and 6.1.1.4'
H H 0.0000 0.0000 'International Tables Vol C Tables 4.2.6.8 and 6.1.1.4'
O O 0.0106 0.0060 'International Tables Vol C Tables 4.2.6.8 and 6.1.1.4'
loop_
_citation_id
_citation_doi
_citation_year
1 10.1021/acs.cgd.5b01156 2015
loop_
_geom_angle_atom_site_label_1
_geom_angle_atom_site_label_2
_geom_angle_atom_site_label_3
_geom_angle
_geom_angle_site_symmetry_1
_geom_angle_site_symmetry_3
C1 C C3 110.43(17) . .
C1 C C5 108.77(10) . 4_565
C1 C C5 108.77(10) . .
C3 C C5 109.87(11) . .
C3 C C5 109.87(11) . 4_565
C5 C C5 109.10(16) . 4_565
C2 C1 C 118.60(18) . .
O4 C1 C 121.57(18) . .
O4 C1 C2 119.8(2) . .
loop_
_geom_bond_atom_site_label_1
_geom_bond_atom_site_label_2
_geom_bond_distance
_geom_bond_site_symmetry_2
C C1 1.525(3) .
C C3 1.528(3) .
C C5 1.5349(17) 4_565
C C5 1.5349(17) .
C1 C2 1.498(3) .
C1 O4 1.208(2) .
loop_
_geom_torsion_atom_site_label_1
_geom_torsion_atom_site_label_2
_geom_torsion_atom_site_label_3
_geom_torsion_atom_site_label_4
_geom_torsion
_geom_torsion_site_symmetry_1
_geom_torsion_site_symmetry_2
_geom_torsion_site_symmetry_3
_geom_torsion_site_symmetry_4
C3 C C1 C2 180.000(1) . . . .
C3 C C1 O4 0.000(1) . . . .
C5 C C1 C2 -59.36(10) . . . .
C5 C C1 C2 59.36(10) 4_565 . . .
C5 C C1 O4 120.64(10) . . . .
C5 C C1 O4 -120.64(10) 4_565 . . .
