#------------------------------------------------------------------------------
#$Date: 2015-09-06 00:02:38 +0300 (Sun, 06 Sep 2015) $
#$Revision: 154590 $
#$URL: svn://www.crystallography.net/cod/cif/4/51/35/4513515.cif $
#------------------------------------------------------------------------------
#
# This file is available in the Crystallography Open Database (COD),
# http://www.crystallography.net/
#
# All data on this site have been placed in the public domain by the
# contributors.
#
data_4513515
loop_
_publ_author_name
'Nath, Karabi'
'Husain, Ahmad'
'Dastidar, Parthasarathi'
_publ_section_title
;
 Metallogels and Silver Nanoparticles Generated from a Series of
 Transition Metal-Based Coordination Polymers Derived from a New
 Bis-pyridyl-bis-amide Ligand and Various Carboxylates
;
_journal_issue                   9
_journal_name_full               'Crystal Growth &amp; Design'
_journal_page_first              4635
_journal_paper_doi               10.1021/acs.cgd.5b00911
_journal_volume                  15
_journal_year                    2015
_chemical_formula_sum            'C32 H28 Co N4 O8'
_chemical_formula_weight         655.51
_space_group_crystal_system      triclinic
_space_group_IT_number           2
_space_group_name_Hall           '-P 1'
_space_group_name_H-M_alt        'P -1'
_symmetry_space_group_name_Hall  '-P 1'
_symmetry_space_group_name_H-M   'P -1'
_atom_sites_solution_hydrogens   mixed
_audit_creation_method           SHELXL-2014/7
_cell_angle_alpha                100.727(5)
_cell_angle_beta                 96.444(4)
_cell_angle_gamma                96.517(4)
_cell_formula_units_Z            1
_cell_length_a                   6.7968(17)
_cell_length_b                   9.143(2)
_cell_length_c                   11.838(3)
_cell_measurement_reflns_used    8474
_cell_measurement_temperature    298(2)
_cell_measurement_theta_max      25.00
_cell_measurement_theta_min      1.77
_cell_volume                     711.4(3)
_computing_cell_refinement       'Bruker SAINT'
_computing_data_collection       'Bruker APEX2'
_computing_data_reduction        'Bruker SAINT'
_computing_structure_refinement  'SHELXL-2014/7 (Sheldrick, 2014)'
_computing_structure_solution    'SHELXS-97 (Sheldrick, 2008)'
_diffrn_ambient_temperature      298(2)
_diffrn_measured_fraction_theta_full 0.993
_diffrn_measured_fraction_theta_max 0.990
_diffrn_measurement_device_type  'Bruker APEX-II CCD'
_diffrn_measurement_method       '\f and \w scans'
_diffrn_radiation_source         'sealed tube'
_diffrn_radiation_type           MoK\a
_diffrn_radiation_wavelength     0.71073
_diffrn_reflns_av_R_equivalents  0.0117
_diffrn_reflns_av_unetI/netI     0.0114
_diffrn_reflns_laue_measured_fraction_full 0.993
_diffrn_reflns_laue_measured_fraction_max 0.990
_diffrn_reflns_limit_h_max       7
_diffrn_reflns_limit_h_min       -8
_diffrn_reflns_limit_k_max       11
_diffrn_reflns_limit_k_min       -11
_diffrn_reflns_limit_l_max       14
_diffrn_reflns_limit_l_min       -14
_diffrn_reflns_number            9138
_diffrn_reflns_point_group_measured_fraction_full 0.993
_diffrn_reflns_point_group_measured_fraction_max 0.990
_diffrn_reflns_theta_full        25.242
_diffrn_reflns_theta_max         25.994
_diffrn_reflns_theta_min         1.767
_exptl_absorpt_coefficient_mu    0.665
_exptl_absorpt_correction_type   multi-scan
_exptl_absorpt_process_details   sadabs
_exptl_crystal_colour            PINK
_exptl_crystal_density_diffrn    1.530
_exptl_crystal_description       BLOCK
_exptl_crystal_F_000             339
_exptl_crystal_size_max          0.700
_exptl_crystal_size_mid          0.360
_exptl_crystal_size_min          0.260
_exptl_transmission_factor_max   0.7464
_exptl_transmission_factor_min   0.6865
_refine_diff_density_max         0.386
_refine_diff_density_min         -0.419
_refine_diff_density_rms         0.068
_refine_ls_extinction_method     none
_refine_ls_goodness_of_fit_ref   1.165
_refine_ls_hydrogen_treatment    constr
_refine_ls_matrix_type           full
_refine_ls_number_parameters     225
_refine_ls_number_reflns         2772
_refine_ls_number_restraints     8
_refine_ls_restrained_S_all      1.166
_refine_ls_R_factor_all          0.0354
_refine_ls_R_factor_gt           0.0330
_refine_ls_shift/su_max          0.000
_refine_ls_shift/su_mean         0.000
_refine_ls_structure_factor_coef Fsqd
_refine_ls_weighting_details
'w=1/[\s^2^(Fo^2^)+(0.0604P)^2^+0.3246P] where P=(Fo^2^+2Fc^2^)/3'
_refine_ls_weighting_scheme      calc
_refine_ls_wR_factor_gt          0.0981
_refine_ls_wR_factor_ref         0.1081
_reflns_Friedel_coverage         0.000
_reflns_number_gt                2642
_reflns_number_total             2772
_reflns_threshold_expression     'I > 2\s(I)'
_cod_data_source_file            cg5b00911_si_002.cif
_cod_data_source_block           CP7
_cod_depositor_comments
;
The following automatic conversions were performed:

'_exptl_absorpt_correction_type' value 'MULTI-SCAN' changed to
'multi-scan' according to
/usr/data/users/saulius/crontab/automatic-downloads/rss-feeds/ACS/lib/dictionaries/cif_core.dic
dictionary named 'cif_core.dic' version 2.4.2 from 2011-04-26.

Automatic conversion script
Id: cif_fix_values 3271 2015-04-21 07:52:19Z andrius 

 Adding full bibliography for 4513508--4513516.cif.
;
_cod_database_code               4513515
_shelx_shelxl_version_number     2014/7
_shelx_space_group_comment
;
The symmetry employed for this shelxl refinement is uniquely defined
by the following loop, which should always be used as a source of
symmetry information in preference to the above space-group names.
They are only intended as comments.
;
_shelx_estimated_absorpt_t_min   0.653
_shelx_estimated_absorpt_t_max   0.846
_shelx_res_file
;

    D:\Desktop\NAPTHA~1\CIFFIN~1\KN3029B\work\K.res created by SHELXL-2014/7

TITL K in P1 New: P-1
CELL 0.71073 6.7968 9.1430 11.8380 100.727 96.444 96.517
ZERR 1.0000 0.0017 0.0020 0.0030 0.005 0.004 0.004
LATT 1
SFAC C H CO N O
UNIT 32 28 1 4 8
MERG 2
OMIT -3 52
FMAP 2
GRID
PLAN 5
TEMP 25
SIZE 0.7 0.36 0.26
DFIX 1.39 C7 C8
DFIX 1.39 C8 C9
DFIX 1.39 C7 C11
DFIX 1.39 C10 C11
DFIX 1.39 C14 C15B
DFIX 1.39 C14 C16B
DFIX 1.39 C14 C16A
DFIX 1.39 C14 C15A
BOND $H
CONF
EQIV $1 -x+1, -y, -z
HTAB O4 O3_$1
HTAB O4 O3
EQIV $2 x-1, y, z
HTAB N2 O3_$2
HTAB C1 O4
EQIV $3 -x, -y+1, -z+1
HTAB C2 O1_$3
HTAB C3 O1
HTAB C5 O3_$2
EQIV $4 -x, -y, -z
HTAB C5 O4_$4
L.S. 12
ACTA
WGHT    0.060400    0.324600
FVAR       0.21082   0.41795
CO1   3    0.000000    0.000000    0.000000    10.50000    0.02200    0.03416 =
         0.03492    0.00597    0.01033    0.00019
O1    5   -0.378102    0.327513    0.528279    11.00000    0.04902    0.06600 =
         0.04743   -0.02075    0.02298   -0.02091
O2    5    0.078677   -0.165641    0.086051    11.00000    0.03066    0.03962 =
         0.04947    0.01373    0.00802    0.00072
O3    5    0.399772   -0.088554    0.151054    11.00000    0.03717    0.04355 =
         0.06572    0.01220   -0.00329   -0.00641
O4    5    0.301529    0.107234    0.025640    11.00000    0.02811    0.04958 =
         0.04726    0.00969    0.01217    0.00039
AFIX   7
H4A   2    0.340830    0.111693   -0.040000    11.00000   -1.50000
H4B   2    0.376419    0.056504    0.061441    11.00000   -1.50000
AFIX   0
N1    4   -0.034401    0.148007    0.163901    11.00000    0.02874    0.03514 =
         0.03709    0.00588    0.01220   -0.00011
N2    4   -0.416823    0.163496    0.356157    11.00000    0.03371    0.04523 =
         0.03398   -0.00742    0.01485   -0.01145
AFIX  43
H2    2   -0.495223    0.088927    0.312605    11.00000   -1.20000
AFIX   0
C1    1    0.085151    0.278123    0.208388    11.00000    0.03657    0.04153 =
         0.04446    0.00647    0.01513   -0.00880
AFIX  43
H1    2    0.195137    0.303145    0.172150    11.00000   -1.20000
AFIX   0
C2    1    0.051774    0.375161    0.304656    11.00000    0.04903    0.04096 =
         0.04642    0.00037    0.01470   -0.01772
AFIX  43
H2A   2    0.141029    0.462411    0.334046    11.00000   -1.20000
AFIX   0
C3    1   -0.114545    0.344441    0.358968    11.00000    0.04897    0.03968 =
         0.03875   -0.00229    0.01691   -0.00820
AFIX  43
H3    2   -0.140966    0.411117    0.423194    11.00000   -1.20000
AFIX   0
C4    1   -0.239614    0.210904    0.314005    11.00000    0.03032    0.03786 =
         0.03155    0.00481    0.00959   -0.00232
C5    1   -0.190135    0.115733    0.218918    11.00000    0.03064    0.03526 =
         0.03641    0.00013    0.01111   -0.00601
AFIX  43
H5    2   -0.270354    0.023675    0.191730    11.00000   -1.20000
AFIX   0
C6    1   -0.476845    0.223327    0.458507    11.00000    0.03379    0.04310 =
         0.03448   -0.00153    0.01311   -0.00230
C7    1   -0.674094    0.153238    0.483392    11.00000    0.03061    0.04182 =
         0.03154    0.00082    0.01231    0.00126
C8    1   -0.780327    0.022083    0.420600    11.00000    0.03567    0.04556 =
         0.03201   -0.00518    0.01786    0.00103
AFIX  43
H8    2   -0.731472   -0.028516    0.356259    11.00000   -1.20000
AFIX   0
C9    1   -0.962870   -0.038546    0.451157    11.00000    0.03167    0.04031 =
         0.02845   -0.00205    0.01164    0.00211
C10   1   -0.925384    0.175007    0.611447    11.00000    0.04893    0.05932 =
         0.05046   -0.02309    0.02993   -0.01082
AFIX  43
H10   2   -0.972583    0.227965    0.675464    11.00000   -1.20000
AFIX   0
C11   1   -0.749980    0.230346    0.579779    11.00000    0.04652    0.05202 =
         0.04682   -0.02016    0.02212   -0.01413
AFIX  43
H11   2   -0.679260    0.320399    0.622441    11.00000   -1.20000
AFIX   0
C12   1    0.245931   -0.184374    0.130842    11.00000    0.03111    0.03396 =
         0.02843    0.00005    0.01107    0.00350
C13   1    0.267595   -0.335640    0.161465    11.00000    0.04310    0.04118 =
         0.04185    0.00953    0.01600    0.00808
AFIX  23
H13A  2    0.136382   -0.392404    0.156781    11.00000   -1.20000
H13B  2    0.333880   -0.321487    0.240437    11.00000   -1.20000
AFIX   0
C14   1    0.388508   -0.422352    0.078724    11.00000    0.03836    0.03125 =
         0.03794    0.00573    0.00944    0.00567
PART 2
C15B  1    0.339962   -0.438621   -0.042164   -21.00000    0.04992    0.05677 =
         0.04417    0.00537   -0.00174    0.02484
AFIX  43
H15B  2    0.230925   -0.397731   -0.071731   -21.00000   -1.20000
AFIX   0
C16B  1    0.547306   -0.485349    0.117063   -21.00000    0.06724    0.05481 =
         0.02950    0.00481    0.00282    0.02520
AFIX  43
H16B  2    0.581500   -0.477087    0.196517   -21.00000   -1.20000
PART 1
AFIX   0
C16A  1    0.597369   -0.405165    0.098006    21.00000    0.03770    0.05492 =
         0.03572   -0.00913    0.00023    0.00239
AFIX  43
H16A  2    0.665447   -0.341584    0.164930    21.00000   -1.20000
AFIX   0
C15A  1    0.295579   -0.518378   -0.018711    21.00000    0.02593    0.06359 =
         0.05087   -0.00381    0.00223    0.00655
AFIX  43
H15A  2    0.156659   -0.533417   -0.032795    21.00000   -1.20000
AFIX   0
HKLF 4

REM  K in P1 New: P-1
REM R1 =  0.0330 for    2642 Fo > 4sig(Fo)  and  0.0354 for all    2772 data
REM    225 parameters refined using      8 restraints

END

WGHT      0.0604      0.3246

REM Highest difference peak  0.386,  deepest hole -0.419,  1-sigma level  0.068
Q1    1  -0.4323  0.3703  0.4818  11.00000  0.05    0.39
Q2    1  -0.5931  0.1878  0.4672  11.00000  0.05    0.37
Q3    1  -1.0000  0.0000  0.5000  10.50000  0.05    0.36
Q4    1  -0.9969 -0.1194  0.4338  11.00000  0.05    0.32
Q5    1  -0.4693  0.2197  0.3789  11.00000  0.05    0.29
;
_shelx_res_checksum              80427
_shelx_hkl_file
;
  -1  -2   2    2.40    0.05
  -1  -2   2    2.40    0.05
  -1  -2   2    2.28    0.05
  -1  -2   2    2.35    0.04
  -2  -4   4   23.07    0.33
  -2  -4   4   24.07    0.32
  -2  -4   4   22.90    0.30
   2   4  -4   23.70    0.33
  -3  -6   6    0.96    0.06
  -3  -6   6    0.96    0.06
   3   6  -6    1.08    0.07
  -4  -8   8    0.57    0.06
  -4  -8   8    0.47    0.05
   4   8  -8    0.46    0.05
  -5  -9  10    0.77    0.08
   4   7  -8   -0.03    0.03
  -4  -7   8    0.04    0.04
  -4  -7   8    0.00    0.03
   3   5  -6    2.18    0.08
  -3  -5   6    2.12    0.08
  -3  -5   6    2.15    0.08
   2   3  -4  144.60    1.82
  -2  -3   4  147.51    1.84
  -2  -3   4  148.72    1.78
  -2  -3   4  144.49    1.85
   1   1  -2  120.65    1.55
  -1  -1   2  120.59    1.49
  -1  -1   2  123.31    1.55
  -1  -3   2    0.03    0.01
  -1  -3   2    0.06    0.01
  -1  -3   2    0.03    0.01
  -2  -5   4   26.13    0.37
  -2  -5   4   26.48    0.36
   2   5  -4   26.10    0.38
  -3  -7   6    6.45    0.15
  -3  -7   6    6.10    0.15
   3   7  -6    6.45    0.16
  -4  -9   8    2.34    0.12
  -5  -8  10    0.24    0.06
   4   6  -8    0.11    0.03
  -4  -6   8    0.03    0.03
  -4  -6   8    0.00    0.03
   3   4  -6   28.19    0.39
  -3  -4   6   27.27    0.40
  -3  -4   6   27.88    0.39
   2   2  -4   53.15    0.68
  -2  -2   4   54.31    0.67
  -2  -2   4   54.50    0.66
  -2  -2   4   53.96    0.69
   1   0  -2   51.94    0.62
   1   0  -2   52.05    0.65
  -1   0   2   50.27    0.67
   0  -2   0    2.47    0.05
   0  -2   0    2.48    0.04
   0   2   0    2.49    0.04
  -1  -4   2    3.68    0.08
  -1  -4   2    3.87    0.08
  -1  -4   2    3.82    0.08
   1   4  -2    3.72    0.06
  -2  -6   4   12.19    0.21
  -2  -6   4   12.43    0.21
   2   6  -4   12.26    0.22
  -3  -8   6    1.89    0.09
  -3  -8   6    1.82    0.09
   3   8  -6    1.88    0.10
  -4 -10   8    0.73    0.08
  -5  -7  10    1.23    0.10
  -4  -5   8    2.01    0.09
  -4  -5   8    2.00    0.08
   3   3  -6    6.50    0.12
  -3  -3   6    6.61    0.13
  -3  -3   6    6.54    0.13
   2   1  -4    3.59    0.06
  -2  -1   4    3.71    0.07
  -2  -1   4    3.71    0.08
  -2  -1   4    3.66    0.07
  -2  -1   4    3.76    0.08
   1  -1  -2  110.14    1.34
   1  -1  -2  106.42    1.37
   1  -1  -2  106.42    1.32
  -1   1   2  110.47    1.42
  -1   1   2  106.98    1.42
   0  -3   0    4.68    0.08
   0  -3   0    4.57    0.08
   0  -3   0    4.86    0.08
   0   3   0    4.63    0.08
   0   3   0    4.67    0.08
  -1  -5   2   49.72    0.63
  -1  -5   2   47.98    0.61
  -1  -5   2   47.86    0.62
   1   5  -2   48.30    0.61
   1   5  -2   48.19    0.62
  -2  -7   4    0.07    0.03
  -2  -7   4    0.05    0.02
   2   7  -4    0.02    0.02
  -3  -9   6    0.21    0.05
  -3  -9   6    0.22    0.04
   3   9  -6    0.12    0.04
  -5  -6  10    1.54    0.10
  -4  -4   8    8.97    0.19
  -4  -4   8    8.86    0.18
   3   2  -6   22.28    0.31
  -3  -2   6   22.13    0.31
  -3  -2   6   22.23    0.30
  -3  -2   6   23.06    0.33
  -3  -2   6   22.20    0.32
   2   0  -4   25.26    0.32
   2   0  -4   25.46    0.35
  -2   0   4   24.88    0.33
  -2   0   4   24.93    0.34
  -2   0   4   25.57    0.34
   1  -2  -2    4.92    0.07
   1  -2  -2    5.14    0.09
  -1   2   2    5.08    0.09
  -1   2   2    4.87    0.08
   0  -4   0    7.57    0.13
   0  -4   0    7.64    0.13
   0  -4   0    7.76    0.12
   0   4   0    7.66    0.12
   0   4   0    7.57    0.12
  -1  -6   2    6.81    0.14
  -1  -6   2    7.01    0.13
  -1  -6   2    6.56    0.13
   1   6  -2    6.96    0.11
   1   6  -2    6.70    0.11
  -2  -8   4    4.57    0.13
  -2  -8   4    4.65    0.13
   2   8  -4    4.59    0.13
  -3 -10   6    1.04    0.09
  -5  -5  10    4.40    0.14
  -5  -5  10    5.01    0.15
  -4  -3   8   15.22    0.26
  -4  -3   8   15.38    0.27
   3   1  -6   13.53    0.23
   3   1  -6   13.79    0.20
  -3  -1   6   13.78    0.20
  -3  -1   6   14.11    0.21
  -3  -1   6   13.91    0.22
   2  -1  -4   62.01    0.79
   2  -1  -4   63.17    0.78
  -2   1   4   63.30    0.80
  -2   1   4   62.96    0.81
   1  -3  -2    0.74    0.03
   1  -3  -2    0.80    0.04
   1  -3  -2    0.78    0.03
  -1   3   2    0.78    0.03
  -1   3   2    0.83    0.03
   0  -5   0   21.08    0.29
   0  -5   0   21.12    0.29
   0  -5   0   20.20    0.29
   0   5   0   20.52    0.29
   0   5   0   20.73    0.29
  -1  -7   2    1.23    0.06
  -1  -7   2    1.19    0.06
  -2  -9   4    1.65    0.09
  -2  -9   4    1.58    0.08
   2   9  -4    1.48    0.10
  -3 -11   6    0.79    0.08
  -6  -6  12    3.55    0.15
  -5  -4  10    0.86    0.08
   4   2  -8    9.92    0.21
  -4  -2   8    9.94    0.20
   3   0  -6   12.34    0.22
  -3   0   6   12.11    0.19
  -3   0   6   12.20    0.19
   2  -2  -4   27.75    0.37
   2  -2  -4   27.44    0.34
   2  -2  -4   26.85    0.38
  -2   2   4   27.60    0.38
  -2   2   4   27.03    0.37
   1  -4  -2   21.36    0.29
   1  -4  -2   21.58    0.30
   1  -4  -2   21.35    0.29
  -1   4   2   21.08    0.30
  -1   4   2   21.51    0.30
   0  -6   0   34.91    0.46
   0  -6   0   34.98    0.47
   0  -6   0   34.35    0.47
   0   6   0   33.83    0.46
   0   6   0   34.48    0.47
  -1  -8   2    1.91    0.08
  -1  -8   2    1.94    0.08
   1   8  -2    1.98    0.09
  -2 -10   4    0.24    0.05
  -2 -10   4    0.21    0.05
   2  10  -4    0.16    0.04
  -6  -5  12    1.49    0.11
   5   3 -10    4.36    0.16
  -5  -3  10    3.99    0.13
   4   1  -8    4.45    0.13
  -4  -1   8    4.45    0.10
  -4  -1   8    4.34    0.10
  -4  -1   8    4.46    0.12
   3  -1  -6   11.84    0.21
   3  -1  -6   12.19    0.22
  -3   1   6   11.74    0.19
  -3   1   6   11.91    0.19
   2  -3  -4    1.40    0.03
   2  -3  -4    1.38    0.05
   2  -3  -4    1.46    0.06
  -2   3   4    1.41    0.05
  -2   3   4    1.48    0.05
   1  -5  -2    4.92    0.09
   1  -5  -2    4.88    0.11
   1  -5  -2    4.80    0.10
  -1   5   2    4.64    0.10
  -1   5   2    4.67    0.10
   0  -7   0    5.12    0.12
   0  -7   0    5.16    0.12
   0  -7   0    5.10    0.11
   0   7   0    5.19    0.11
   0   7   0    5.06    0.11
  -1  -9   2    0.14    0.04
  -1  -9   2    0.14    0.04
   1   9  -2    0.10    0.03
  -2 -11   4    2.88    0.13
  -6  -4  12    0.23    0.06
   5   2 -10    0.42    0.06
  -5  -2  10    0.49    0.06
   4   0  -8    9.47    0.21
   4   0  -8    9.92    0.21
  -4   0   8    9.85    0.17
  -4   0   8    9.64    0.17
   3  -2  -6    2.78    0.09
   3  -2  -6    2.84    0.09
  -3   2   6    2.76    0.08
  -3   2   6    2.89    0.08
   2  -4  -4    1.44    0.06
   2  -4  -4    1.39    0.04
   2  -4  -4    1.27    0.05
  -2   4   4    1.40    0.05
  -2   4   4    1.41    0.05
   1  -6  -2   13.88    0.21
   1  -6  -2   13.89    0.23
   1  -6  -2   13.71    0.22
  -1   6   2   13.19    0.22
  -1   6   2   13.77    0.22
   0  -8   0    1.64    0.08
   0  -8   0    1.53    0.07
   0   8   0    1.61    0.07
   0   8   0    1.60    0.06
  -1 -10   2    0.38    0.05
  -1 -10   2    0.43    0.06
   1  10  -2    0.28    0.04
  -2 -12   4    1.10    0.11
   5   1 -10    0.09    0.04
   5   1 -10    0.19    0.05
   4  -1  -8    0.92    0.07
   4  -1  -8    0.84    0.06
  -4   1   8    0.85    0.05
  -4   1   8    0.90    0.05
   3  -3  -6    0.01    0.02
   3  -3  -6    0.02    0.02
  -3   3   6    0.03    0.02
  -3   3   6    0.02    0.01
   2  -5  -4   11.94    0.18
   2  -5  -4   12.07    0.21
   2  -5  -4   12.19    0.21
  -2   5   4   12.12    0.21
  -2   5   4   11.97    0.20
   1  -7  -2    0.10    0.03
   1  -7  -2    0.06    0.03
   1  -7  -2    0.03    0.02
  -1   7   2    0.02    0.02
  -1   7   2    0.03    0.02
   0  -9   0    2.63    0.10
   0  -9   0    2.36    0.09
   0   9   0    2.44    0.10
  -1 -11   2    0.61    0.07
   6   2 -12    0.03    0.06
   5   0 -10    3.78    0.15
   5   0 -10    3.87    0.14
   4  -2  -8   12.83    0.25
   4  -2  -8   12.28    0.24
  -4   2   8   12.63    0.22
  -4   2   8   12.73    0.22
   3  -4  -6    1.92    0.08
   3  -4  -6    2.04    0.08
  -3   4   6    1.87    0.07
  -3   4   6    1.87    0.07
   2  -6  -4   11.04    0.20
   2  -6  -4   10.84    0.17
   2  -6  -4   10.71    0.20
  -2   6   4   10.78    0.20
  -2   6   4   10.65    0.20
   1  -8  -2    3.17    0.10
   1  -8  -2    3.37    0.11
  -1   8   2    3.40    0.10
  -1   8   2    3.31    0.10
   0 -10   0    0.49    0.06
   0 -10   0    0.42    0.05
   0  10   0    0.37    0.04
  -1 -12   2    1.19    0.11
   6   1 -12    0.77    0.09
   5  -1 -10    5.16    0.16
   5  -1 -10    4.83    0.16
  -5   1  10    5.17    0.13
  -5   1  10    5.06    0.13
   4  -3  -8    7.20    0.18
   4  -3  -8    7.33    0.18
  -4   3   8    7.55    0.16
  -4   3   8    7.25    0.16
   3  -5  -6    0.66    0.06
   3  -5  -6    0.65    0.06
  -3   5   6    0.62    0.05
  -3   5   6    0.71    0.05
   2  -7  -4    0.34    0.04
   2  -7  -4    0.30    0.04
   1  -9  -2    2.50    0.10
   1  -9  -2    2.54    0.10
  -1   9   2    2.66    0.09
  -1   9   2    2.73    0.10
  -1   9   2    2.60    0.09
   0 -11   0    0.57    0.06
   0  11   0    0.51    0.06
   6   0 -12    0.75    0.09
   5  -2 -10    7.85    0.20
   5  -2 -10    8.38    0.21
  -5   2  10    8.36    0.18
  -5   2  10    8.30    0.18
   4  -4  -8    0.16    0.04
   4  -4  -8    0.18    0.04
  -4   4   8    0.13    0.03
  -4   4   8    0.17    0.03
   3  -6  -6    6.08    0.16
   3  -6  -6    6.15    0.15
  -3   6   6    6.17    0.15
  -3   6   6    6.28    0.15
   2  -8  -4    0.67    0.07
   2  -8  -4    0.73    0.07
  -2   8   4    0.76    0.07
  -2   8   4    0.64    0.06
   1 -10  -2    1.55    0.10
   1 -10  -2    1.55    0.09
  -1  10   2    1.49    0.08
  -1  10   2    1.55    0.09
   0 -12   0    1.33    0.11
   6  -1 -12    3.48    0.16
   5  -3 -10    2.84    0.12
   5  -3 -10    2.88    0.13
  -5   3  10    2.75    0.10
  -5   3  10    2.70    0.10
   4  -5  -8    0.03    0.03
   4  -5  -8    0.03    0.04
  -4   5   8    0.05    0.03
  -4   5   8    0.04    0.02
   3  -7  -6    4.88    0.14
   3  -7  -6    5.31    0.15
  -3   7   6    5.47    0.14
  -3   7   6    5.26    0.14
   2  -9  -4    0.41    0.06
   2  -9  -4    0.42    0.05
  -2   9   4    0.44    0.05
  -2   9   4    0.34    0.04
   1 -11  -2    2.99    0.13
   6  -2 -12    2.88    0.15
   5  -4 -10    0.15    0.05
   5  -4 -10    0.12    0.04
  -5   4  10    0.09    0.03
  -5   4  10    0.11    0.04
   4  -6  -8    0.02    0.03
   4  -6  -8    0.00    0.04
  -4   6   8    0.04    0.03
  -4   6   8    0.07    0.04
   3  -8  -6    4.23    0.15
   3  -8  -6    4.37    0.14
  -3   8   6    4.36    0.13
  -3   8   6    4.50    0.14
   2 -10  -4    1.48    0.10
  -2  10   4    1.29    0.09
  -2  10   4    1.17    0.09
   1 -12  -2    2.14    0.13
   6  -3 -12    1.17    0.11
  -6   3  12    1.04    0.09
   5  -5 -10    1.33    0.10
  -5   5  10    1.29    0.09
   4  -7  -8    2.45    0.11
   4  -7  -8    2.31    0.11
  -4   7   8    2.47    0.11
  -4   7   8    2.32    0.11
   3  -9  -6    0.79    0.08
  -3   9   6    0.85    0.08
  -3   9   6    0.76    0.08
   2 -11  -4    0.09    0.06
  -2  11   4    0.15    0.05
   6  -4 -12    2.80    0.15
  -6   4  12    2.63    0.13
   5  -6 -10    1.32    0.10
  -5   6  10    1.53    0.10
   4  -8  -8    0.04    0.04
  -4   8   8    0.13    0.04
   3 -10  -6    0.86    0.09
  -3  10   6    1.10    0.09
   2 -12  -4   -0.01    0.06
   6  -5 -12   -0.03    0.05
  -6   5  12    0.03    0.04
   5  -7 -10    1.85    0.11
  -5   7  10    1.89    0.11
   4  -9  -8    0.23    0.06
  -4   9   8    0.20    0.05
   3 -11  -6    0.39    0.07
  -3  11   6    0.27    0.06
   5  -8 -10    0.89    0.09
  -5   8  10    0.72    0.08
  -3  12   5    0.56    0.07
  -4  10   7    0.00    0.05
   4 -10  -7    0.02    0.05
  -5   8   9    0.26    0.06
   5  -8  -9    0.36    0.07
  -6   6  11    0.62    0.07
   6  -6 -11    0.63    0.08
  -3  11   5    0.04    0.04
   3 -11  -5   -0.01    0.05
  -4   9   7    0.35    0.06
   4  -9  -7    0.37    0.07
  -5   7   9    0.09    0.04
   5  -7  -9    0.11    0.05
  -6   5  11    1.78    0.11
   6  -5 -11    1.78    0.12
   2 -12  -3    0.37    0.07
  -3  10   5    0.09    0.04
   3 -10  -5    0.03    0.05
  -4   8   7    0.28    0.05
   4  -8  -7    0.27    0.06
  -5   6   9    0.05    0.04
   5  -6  -9    0.04    0.05
  -6   4  11    5.28    0.16
   6  -4 -11    5.27    0.19
  -2  11   3    1.02    0.08
   2 -11  -3    0.99    0.10
  -3   9   5    0.17    0.03
  -3   9   5    0.22    0.05
   3  -9  -5    0.20    0.05
   3  -9  -5    0.19    0.04
  -4   7   7    0.35    0.04
  -4   7   7    0.56    0.06
   4  -7  -7    0.52    0.06
   4  -7  -7    0.44    0.05
  -5   5   9    0.28    0.04
  -5   5   9    0.46    0.05
   5  -5  -9    0.42    0.06
   5  -5  -9    0.39    0.05
  -6   3  11    0.01    0.04
   6  -3 -11    0.06    0.05
   7  -1 -13    0.90    0.10
   1 -12  -1    0.65    0.08
  -2  10   3   -0.03    0.02
  -2  10   3   -0.03    0.03
   2 -10  -3    0.04    0.04
   2 -10  -3    0.03    0.03
  -3   8   5    2.43    0.10
  -3   8   5    2.43    0.10
   3  -8  -5    2.34    0.11
   3  -8  -5    2.19    0.10
  -4   6   7    6.18    0.16
  -4   6   7    6.22    0.16
   4  -6  -7    6.28    0.17
   4  -6  -7    6.13    0.16
  -5   4   9    7.53    0.18
  -5   4   9    7.52    0.18
   5  -4  -9    7.59    0.20
   5  -4  -9    7.47    0.19
  -6   2  11    0.89    0.07
   6  -2 -11    1.02    0.10
   7   0 -13    0.09    0.06
   0 -13   1    0.13    0.06
  -1  11   1    2.41    0.12
   1 -11  -1    2.45    0.12
  -2   9   3    2.24    0.09
  -2   9   3    2.31    0.09
   2  -9  -3    2.37    0.10
   2  -9  -3    2.30    0.10
  -3   7   5    3.81    0.12
  -3   7   5    3.89    0.12
   3  -7  -5    3.86    0.12
   3  -7  -5    3.86    0.13
  -4   5   7   12.97    0.24
  -4   5   7   12.35    0.24
   4  -5  -7   13.02    0.25
   4  -5  -7   13.10    0.25
  -5   3   9    2.68    0.10
  -5   3   9    2.50    0.10
   5  -3  -9    2.54    0.11
   5  -3  -9    2.57    0.12
   6  -1 -11    0.44    0.07
   6  -1 -11    0.42    0.07
   7   1 -13    1.48    0.13
   0 -12   1    1.15    0.10
  -1  10   1    0.29    0.04
   1 -10  -1    0.26    0.05
   1 -10  -1    0.28    0.05
  -2   8   3   20.45    0.33
  -2   8   3   20.79    0.33
   2  -8  -3   20.47    0.34
   2  -8  -3   20.87    0.33
  -3   6   5    9.59    0.19
  -3   6   5   10.13    0.20
   3  -6  -5   10.15    0.20
   3  -6  -5    9.87    0.20
  -4   4   7    3.39    0.10
  -4   4   7    3.31    0.10
   4  -4  -7    3.26    0.11
   4  -4  -7    3.25    0.11
  -5   2   9    4.10    0.12
  -5   2   9    3.96    0.12
   5  -2  -9    4.10    0.14
   5  -2  -9    4.15    0.14
   6   0 -11    1.49    0.11
   6   0 -11    1.45    0.11
   7   2 -13    4.60    0.20
   0  11  -1    4.57    0.16
   0 -11   1    4.10    0.14
  -1   9   1    0.08    0.02
  -1   9   1    0.11    0.03
  -1   9   1    0.14    0.03
   1  -9  -1    0.07    0.04
   1  -9  -1    0.10    0.03
  -2   7   3   11.98    0.21
  -2   7   3   12.22    0.22
  -2   7   3   11.96    0.21
   2  -7  -3   12.30    0.22
   2  -7  -3   12.04    0.22
  -3   5   5    2.86    0.09
  -3   5   5    2.88    0.09
   3  -5  -5    2.92    0.10
   3  -5  -5    2.91    0.10
  -4   3   7   10.58    0.20
  -4   3   7   10.39    0.20
   4  -3  -7   10.39    0.21
   4  -3  -7   10.51    0.21
  -5   1   9    9.82    0.19
  -5   1   9    9.83    0.19
   5  -1  -9    9.91    0.23
   5  -1  -9    9.98    0.23
   6   1 -11    0.02    0.04
   6   1 -11    0.07    0.04
   7   3 -13    0.93    0.11
  -1 -12   3    0.34    0.06
   0  10  -1    4.69    0.15
   0 -10   1    4.43    0.14
   0 -10   1    4.32    0.14
  -1   8   1    0.10    0.02
  -1   8   1    0.12    0.03
  -1   8   1    0.07    0.02
   1  -8  -1    0.09    0.03
   1  -8  -1    0.11    0.03
  -2   6   3   19.81    0.30
  -2   6   3   19.37    0.29
  -2   6   3   19.40    0.30
   2  -6  -3   19.64    0.30
   2  -6  -3   19.34    0.30
  -3   4   5    6.46    0.13
  -3   4   5    6.45    0.13
   3  -4  -5    6.35    0.14
   3  -4  -5    6.35    0.14
  -4   2   7    2.24    0.08
  -4   2   7    2.17    0.08
   4  -2  -7    2.21    0.09
   4  -2  -7    2.24    0.09
  -5   0   9    3.31    0.10
  -5   0   9    3.30    0.10
   5   0  -9    3.31    0.13
   5   0  -9    3.19    0.13
   6   2 -11    0.91    0.09
   6   2 -11    1.21    0.11
  -1 -11   3    0.60    0.07
   0   9  -1    5.64    0.15
   0  -9   1    5.53    0.14
   0  -9   1    5.79    0.15
  -1   7   1   12.44    0.21
  -1   7   1   11.91    0.20
  -1   7   1   11.87    0.20
   1  -7  -1   12.14    0.21
   1  -7  -1   12.27    0.21
  -2   5   3   12.21    0.20
  -2   5   3   12.04    0.20
   2  -5  -3   11.95    0.20
   2  -5  -3   12.07    0.20
  -3   3   5    0.03    0.02
  -3   3   5    0.03    0.01
   3  -3  -5    0.05    0.02
   3  -3  -5    0.04    0.02
  -4   1   7    0.85    0.05
  -4   1   7    0.79    0.05
   4  -1  -7    0.99    0.07
   4  -1  -7    0.95    0.07
   5   1  -9    0.62    0.06
  -6  -3  11    6.47    0.19
  -2 -12   5    0.15    0.06
   1  10  -3    5.66    0.17
  -1 -10   3    5.98    0.16
  -1 -10   3    5.54    0.16
   0   8  -1    3.96    0.11
   0  -8   1    4.05    0.11
   0  -8   1    4.01    0.11
  -1   6   1   26.35    0.37
  -1   6   1   26.73    0.38
   1  -6  -1   26.45    0.37
   1  -6  -1   27.03    0.38
  -2   4   3    3.10    0.08
  -2   4   3    3.22    0.08
   2  -4  -3    3.25    0.08
   2  -4  -3    3.30    0.08
  -3   2   5    0.65    0.04
  -3   2   5    0.67    0.04
   3  -2  -5    0.62    0.04
   3  -2  -5    0.62    0.05
  -4   0   7   83.10    1.07
  -4   0   7   82.57    1.08
   4   0  -7   83.85    1.07
   4   0  -7   83.33    1.08
  -5  -2   9    0.98    0.07
   5   2  -9    0.89    0.08
  -6  -4  11    3.46    0.14
  -2 -11   5    2.83    0.13
   1   9  -3    5.09    0.15
  -1  -9   3    5.30    0.14
  -1  -9   3    5.02    0.14
   0   7  -1    6.06    0.11
   0   7  -1    6.15    0.14
   0   7  -1    6.19    0.12
   0  -7   1    6.06    0.13
   0  -7   1    6.08    0.13
  -1   5   1    5.89    0.11
  -1   5   1    5.75    0.11
   1  -5  -1    5.75    0.10
   1  -5  -1    5.95    0.11
   1  -5  -1    5.89    0.12
  -2   3   3   62.32    0.80
  -2   3   3   62.09    0.81
   2  -3  -3   62.76    0.78
   2  -3  -3   61.66    0.77
  -3   1   5   12.51    0.20
  -3   1   5   12.60    0.20
   3  -1  -5   12.83    0.22
   3  -1  -5   12.50    0.21
  -4  -1   7   42.10    0.57
  -4  -1   7   41.70    0.57
  -4  -1   7   41.53    0.56
   4   1  -7   42.52    0.59
  -5  -3   9    0.39    0.05
  -6  -5  11    1.76    0.11
   2  10  -5    1.92    0.11
  -2 -10   5    2.06    0.11
  -2 -10   5    1.99    0.10
   1   8  -3    2.71    0.10
  -1  -8   3    2.64    0.10
  -1  -8   3    2.67    0.09
   0   6  -1    0.37    0.03
   0   6  -1    0.27    0.03
   0  -6   1    0.25    0.03
   0  -6   1    0.21    0.03
  -1   4   1   12.16    0.18
  -1   4   1   12.33    0.18
   1  -4  -1   12.16    0.18
   1  -4  -1   12.36    0.18
   1  -4  -1   12.53    0.19
  -2   2   3   36.95    0.48
  -2   2   3   36.27    0.45
  -2   2   3   36.80    0.49
   2  -2  -3   37.26    0.48
   2  -2  -3   37.00    0.47
  -3   0   5   57.49    0.74
  -3   0   5   57.54    0.74
  -3   0   5   58.12    0.75
   3   0  -5   57.81    0.74
   3   0  -5   58.47    0.71
  -4  -2   7    4.28    0.11
  -4  -2   7    4.35    0.12
  -5  -4   9    0.19    0.04
  -5  -4   9    0.16    0.03
  -6  -6  11    1.53    0.11
  -3 -11   7    3.12    0.14
   2   9  -5   -0.03    0.03
  -2  -9   5   -0.04    0.03
  -2  -9   5    0.02    0.03
   1   7  -3    0.01    0.02
  -1  -7   3    0.03    0.02
  -1  -7   3    0.01    0.02
   0   5  -1    3.36    0.07
   0   5  -1    3.42    0.07
   0  -5   1    3.29    0.08
   0  -5   1    3.39    0.08
  -1   3   1    3.21    0.06
  -1   3   1    3.16    0.06
   1  -3  -1    3.20    0.06
   1  -3  -1    3.24    0.07
   1  -3  -1    3.19    0.07
  -2   1   3    8.68    0.14
  -2   1   3    8.65    0.13
   2  -1  -3    8.61    0.14
   2  -1  -3    8.72    0.14
  -3  -1   5    1.86    0.06
  -3  -1   5    2.01    0.05
  -3  -1   5    1.98    0.06
  -3  -1   5    1.86    0.05
   3   1  -5    1.90    0.04
  -4  -3   7    2.16    0.08
  -4  -3   7    2.12    0.08
  -5  -5   9   10.35    0.23
  -5  -5   9   11.12    0.23
  -6  -7  11    0.30    0.06
  -3 -10   7    2.06    0.12
   2   8  -5    5.00    0.14
  -2  -8   5    5.03    0.14
  -2  -8   5    5.19    0.14
   1   6  -3   10.36    0.19
  -1  -6   3   10.18    0.18
  -1  -6   3    9.88    0.17
   0   4  -1    0.91    0.03
   0   4  -1    0.85    0.03
   0  -4   1    0.85    0.03
   0  -4   1    0.84    0.03
   0  -4   1    0.85    0.04
  -1   2   1    0.23    0.02
  -1   2   1    0.21    0.02
   1  -2  -1    0.22    0.01
   1  -2  -1    0.31    0.02
   1  -2  -1    0.28    0.02
  -2   0   3    2.20    0.05
  -2   0   3    2.18    0.05
  -2   0   3    2.12    0.05
   2   0  -3    2.17    0.04
   2   0  -3    2.17    0.06
  -3  -2   5    0.19    0.02
  -3  -2   5    0.15    0.02
  -3  -2   5    0.12    0.01
   3   2  -5    0.10    0.01
  -4  -4   7    2.33    0.09
  -4  -4   7    2.42    0.09
   4   4  -7    2.31    0.08
  -5  -6   9    3.34    0.12
  -5  -6   9    3.59    0.13
   3   9  -7    2.37    0.12
  -3  -9   7    2.31    0.11
  -3  -9   7    2.28    0.11
   2   7  -5    1.62    0.08
  -2  -7   5    1.80    0.08
  -2  -7   5    1.79    0.08
   1   5  -3   28.03    0.36
   1   5  -3   28.16    0.39
  -1  -5   3   28.09    0.37
  -1  -5   3   27.05    0.38
   0   3  -1    7.39    0.10
   0  -3   1    7.09    0.11
   0  -3   1    7.48    0.11
  -1   1   1    0.15    0.01
  -1   1   1    0.10    0.01
   1  -1  -1    0.15    0.01
  -2  -1   3   49.91    0.60
  -2  -1   3   49.09    0.61
  -2  -1   3   48.56    0.62
  -2  -1   3   49.50    0.62
  -3  -3   5    3.86    0.07
  -3  -3   5    3.77    0.07
  -3  -3   5    3.77    0.09
  -3  -3   5    3.90    0.09
   3   3  -5    3.93    0.09
  -4  -5   7    9.42    0.19
  -4  -5   7    9.87    0.20
   4   5  -7    9.66    0.18
  -5  -7   9    0.24    0.05
  -4 -10   9    0.63    0.07
   3   8  -7    4.12    0.14
  -3  -8   7    4.12    0.13
  -3  -8   7    4.22    0.13
   2   6  -5    9.88    0.19
  -2  -6   5    9.76    0.18
  -2  -6   5    9.49    0.18
   1   4  -3    0.06    0.01
   1   4  -3    0.16    0.01
  -1  -4   3    0.12    0.02
  -1  -4   3    0.09    0.02
   0   2  -1  168.62    2.17
   0   2  -1  169.43    2.37
   0  -2   1  169.94    2.06
  -1   0   1   27.35    0.34
  -1   0   1   25.47    0.33
  -1   0   1   26.21    0.33
  -2  -2   3    1.19    0.04
  -2  -2   3    1.21    0.03
  -2  -2   3    1.18    0.04
  -2  -2   3    1.21    0.03
  -3  -4   5    7.03    0.14
  -3  -4   5    6.87    0.14
   3   4  -5    7.10    0.14
  -4  -6   7    4.95    0.13
  -4  -6   7    4.57    0.13
   4   6  -7    4.70    0.13
  -5  -8   9    1.34    0.10
  -4  -9   9    1.92    0.11
   3   7  -7    3.67    0.12
  -3  -7   7    3.51    0.12
  -3  -7   7    3.43    0.11
   2   5  -5   35.97    0.50
  -2  -5   5   36.15    0.49
  -2  -5   5   36.28    0.48
   1   3  -3   20.19    0.28
   1   3  -3   20.33    0.25
  -1  -3   3   20.41    0.27
  -1  -3   3   19.95    0.27
  -1  -1   1  195.48    2.35
  -1  -1   1  196.74    2.46
  -1  -1   1  193.33    2.44
  -2  -3   3    2.13    0.06
  -2  -3   3    1.94    0.05
  -2  -3   3    2.02    0.04
  -2  -3   3    2.12    0.05
  -3  -5   5    8.68    0.17
  -3  -5   5    8.50    0.16
   3   5  -5    8.42    0.16
  -4  -7   7    1.56    0.08
  -4  -7   7    1.65    0.09
   4   7  -7    1.61    0.09
  -5  -9   9    1.18    0.10
   4   8  -9    0.23    0.05
  -4  -8   9    0.33    0.06
   3   6  -7   -0.01    0.02
  -3  -6   7    0.03    0.02
  -3  -6   7    0.01    0.02
   2   4  -5   29.48    0.41
  -2  -4   5   30.16    0.40
  -2  -4   5   28.65    0.40
   1   2  -3    1.66    0.04
  -1  -2   3    1.60    0.04
  -1  -2   3    1.65    0.03
  -1  -2   3    1.64    0.04
   0   0  -1   -0.25    0.00
   0   0  -1   -0.25    0.00
   0   0   1   -0.25    0.00
  -1  -2   1   23.96    0.30
  -1  -2   1   22.93    0.30
  -1  -2   1   23.10    0.29
  -1  -2   1   23.78    0.31
  -2  -4   3   37.58    0.50
  -2  -4   3   39.23    0.52
  -2  -4   3   39.81    0.50
  -2  -4   3   39.11    0.50
  -2  -4   3   40.29    0.51
  -3  -6   5   33.87    0.47
  -3  -6   5   33.92    0.48
   3   6  -5   33.56    0.49
  -4  -8   7    1.58    0.09
  -4  -8   7    1.68    0.10
   4   8  -7    1.58    0.10
  -4  -7   9    0.23    0.05
  -4  -7   9    0.28    0.04
   3   5  -7   10.21    0.19
  -3  -5   7   10.48    0.20
  -3  -5   7   10.21    0.19
   2   3  -5    0.65    0.04
  -2  -3   5    0.72    0.02
  -2  -3   5    0.67    0.04
  -2  -3   5    0.69    0.04
   1   1  -3    2.16    0.04
  -1  -1   3    2.15    0.05
  -1  -1   3    2.19    0.05
  -1  -1   3    2.27    0.04
   0  -1  -1    3.96    0.06
   0   1   1    4.11    0.06
  -1  -3   1   70.47    0.91
  -1  -3   1   71.89    0.86
  -1  -3   1   71.38    0.85
   1   3  -1   70.77    0.93
  -2  -5   3   36.48    0.50
  -2  -5   3   37.63    0.49
  -2  -5   3   38.45    0.51
   2   5  -3   37.67    0.48
   2   5  -3   37.23    0.48
  -3  -7   5    0.92    0.07
  -3  -7   5    0.89    0.07
   3   7  -5    0.83    0.07
  -4  -9   7    1.90    0.11
   4   9  -7    1.75    0.11
  -5  -8  11    0.86    0.09
  -4  -6   9    0.68    0.07
  -4  -6   9    0.79    0.07
   3   4  -7   12.41    0.21
  -3  -4   7   12.42    0.22
  -3  -4   7   11.75    0.21
   2   2  -5   17.17    0.25
  -2  -2   5   17.71    0.25
  -2  -2   5   17.59    0.23
  -2  -2   5   17.56    0.25
   1   0  -3  128.47    1.62
   1   0  -3  131.82    1.64
  -1   0   3  130.04    1.70
  -1   0   3  130.37    1.64
   0  -2  -1  113.02    1.39
   0  -2  -1  112.61    1.45
   0  -2  -1  112.96    1.39
   0   2   1  109.45    1.46
   0   2   1  111.10    1.45
  -1  -4   1    5.53    0.10
  -1  -4   1    5.62    0.10
  -1  -4   1    5.49    0.10
   1   4  -1    5.45    0.09
   1   4  -1    5.57    0.09
  -2  -6   3   26.69    0.37
  -2  -6   3   25.70    0.37
  -2  -6   3   25.56    0.37
  -3  -8   5    1.34    0.08
  -3  -8   5    1.39    0.08
   3   8  -5    1.29    0.09
  -4 -10   7    1.25    0.10
  -5  -7  11    2.18    0.11
  -4  -5   9    9.90    0.21
  -4  -5   9   10.35    0.21
   3   3  -7   30.18    0.41
  -3  -3   7   30.18    0.42
  -3  -3   7   28.81    0.41
   2   1  -5    3.49    0.07
  -2  -1   5    3.59    0.08
  -2  -1   5    3.55    0.08
  -2  -1   5    3.61    0.07
  -2  -1   5    3.52    0.07
   1  -1  -3  206.29    2.55
   1  -1  -3  209.81    2.58
   1  -1  -3  200.87    2.51
  -1   1   3  203.20    2.62
  -1   1   3  203.82    2.65
   0  -3  -1    1.88    0.05
   0  -3  -1    1.90    0.04
   0  -3  -1    1.89    0.05
   0   3   1    1.88    0.04
   0   3   1    1.86    0.04
  -1  -5   1    6.44    0.12
  -1  -5   1    6.49    0.12
  -1  -5   1    6.54    0.12
   1   5  -1    6.50    0.11
   1   5  -1    6.56    0.11
  -2  -7   3    0.68    0.06
  -2  -7   3    0.71    0.05
  -3  -9   5    0.41    0.06
  -3  -9   5    0.37    0.05
   3   9  -5    0.28    0.04
  -4 -11   7    0.64    0.08
  -5  -6  11    0.49    0.06
  -4  -4   9   14.14    0.26
  -4  -4   9   13.98    0.25
   3   2  -7   35.08    0.47
  -3  -2   7   35.00    0.49
  -3  -2   7   36.05    0.48
  -3  -2   7   35.32    0.47
   2   0  -5    0.21    0.02
   2   0  -5    0.28    0.02
  -2   0   5    0.33    0.02
  -2   0   5    0.32    0.02
   1  -2  -3  174.88    2.19
   1  -2  -3  169.38    2.10
   1  -2  -3  171.81    2.17
  -1   2   3  171.77    2.29
  -1   2   3  175.62    2.25
   0  -4  -1    0.17    0.02
   0  -4  -1    0.21    0.02
   0  -4  -1    0.21    0.02
   0   4   1    0.24    0.02
   0   4   1    0.23    0.02
  -1  -6   1   22.88    0.34
  -1  -6   1   23.19    0.34
  -1  -6   1   23.80    0.33
   1   6  -1   23.38    0.32
   1   6  -1   23.65    0.32
  -2  -8   3    3.78    0.11
  -2  -8   3    3.61    0.11
   2   8  -3    3.41    0.11
  -3 -10   5    0.01    0.04
  -5  -5  11    4.70    0.16
  -4  -3   9    0.11    0.03
   3   1  -7    3.97    0.11
  -3  -1   7    4.21    0.11
  -3  -1   7    4.04    0.08
  -3  -1   7    4.00    0.08
   2  -1  -5   79.35    0.98
   2  -1  -5   78.10    0.97
   2  -1  -5   78.32    0.97
  -2   1   5   78.69    1.00
  -2   1   5   77.27    0.99
   1  -3  -3   65.95    0.82
   1  -3  -3   67.57    0.83
   1  -3  -3   67.99    0.83
  -1   3   3   65.31    0.86
  -1   3   3   67.92    0.85
   0  -5  -1    1.00    0.05
   0  -5  -1    0.95    0.05
   0  -5  -1    1.01    0.04
   0   5   1    1.06    0.04
   0   5   1    1.04    0.04
  -1  -7   1    6.37    0.14
  -1  -7   1    6.42    0.14
  -1  -7   1    6.69    0.14
   1   7  -1    6.48    0.12
   1   7  -1    6.50    0.12
  -2  -9   3    0.27    0.05
  -2  -9   3    0.24    0.04
   2   9  -3    0.10    0.03
  -3 -11   5    1.11    0.10
   5   4 -11    0.44    0.06
  -5  -4  11    0.64    0.07
   4   2  -9    7.49    0.19
  -4  -2   9    7.47    0.17
   3   0  -7   24.59    0.38
   3   0  -7   24.82    0.37
  -3   0   7   24.35    0.35
  -3   0   7   24.45    0.35
   2  -2  -5   44.84    0.58
   2  -2  -5   44.65    0.56
   2  -2  -5   44.90    0.59
  -2   2   5   44.72    0.59
  -2   2   5   45.21    0.60
   1  -4  -3    6.08    0.12
   1  -4  -3    6.07    0.11
   1  -4  -3    6.09    0.12
  -1   4   3    6.02    0.12
  -1   4   3    6.97    0.12
   0  -6  -1    0.74    0.05
   0  -6  -1    0.76    0.05
   0  -6  -1    0.83    0.04
   0   6   1    0.79    0.04
   0   6   1    0.81    0.04
  -1  -8   1    3.19    0.10
  -1  -8   1    3.10    0.10
  -1  -8   1    2.99    0.10
  -2 -10   3    1.35    0.09
  -2 -10   3    1.48    0.09
   2  10  -3    1.23    0.10
  -3 -12   5    1.28    0.12
  -6  -5  13    0.10    0.05
   5   3 -11    2.23    0.12
  -5  -3  11    2.39    0.11
   4   1  -9    8.89    0.21
   3  -1  -7   15.02    0.26
   3  -1  -7   14.47    0.25
  -3   1   7   14.89    0.23
  -3   1   7   14.73    0.23
   2  -3  -5   13.61    0.23
   2  -3  -5   14.00    0.22
   2  -3  -5   13.77    0.19
  -2   3   5   13.88    0.22
  -2   3   5   13.71    0.22
   1  -5  -3    0.46    0.04
   1  -5  -3    0.49    0.04
   1  -5  -3    0.45    0.03
  -1   5   3    0.44    0.04
  -1   5   3    0.44    0.03
   0  -7  -1   19.90    0.31
   0  -7  -1   20.07    0.30
   0  -7  -1   20.35    0.31
   0   7   1   19.79    0.30
   0   7   1   19.78    0.30
  -1  -9   1    0.49    0.05
  -1  -9   1    0.42    0.05
  -2 -11   3    1.29    0.09
  -6  -4  13    3.97    0.16
   5   2 -11    2.08    0.12
   4   0  -9    9.70    0.22
   4   0  -9    9.70    0.22
  -4   0   9    9.78    0.18
  -4   0   9   10.02    0.18
   3  -2  -7    0.15    0.03
   3  -2  -7    0.17    0.03
  -3   2   7    0.12    0.02
  -3   2   7    0.09    0.02
   2  -4  -5    6.12    0.10
   2  -4  -5    6.02    0.13
   2  -4  -5    6.08    0.13
  -2   4   5    6.39    0.13
  -2   4   5    6.25    0.13
   1  -6  -3    8.73    0.17
   1  -6  -3    9.01    0.15
   1  -6  -3    8.92    0.17
  -1   6   3    8.96    0.17
  -1   6   3    9.08    0.17
   0  -8  -1    0.76    0.06
   0  -8  -1    0.71    0.05
   0  -8  -1    0.74    0.06
   0   8   1    0.76    0.05
   0   8   1    0.68    0.05
  -1 -10   1    0.20    0.04
  -1 -10   1    0.21    0.04
   1  10  -1    0.19    0.04
  -2 -12   3    1.34    0.11
   6   3 -13    2.05    0.14
   5   1 -11    0.06    0.04
   5   1 -11    0.03    0.04
   4  -1  -9   24.27    0.40
   4  -1  -9   23.05    0.40
  -4   1   9   24.27    0.36
  -4   1   9   24.33    0.37
   3  -3  -7    1.66    0.08
   3  -3  -7    1.71    0.07
  -3   3   7    1.78    0.07
  -3   3   7    1.82    0.07
   2  -5  -5    0.81    0.06
   2  -5  -5    0.82    0.05
   2  -5  -5    0.89    0.04
  -2   5   5    0.84    0.05
  -2   5   5    0.87    0.05
   1  -7  -3    0.50    0.04
   1  -7  -3    0.53    0.05
   1  -7  -3    0.61    0.05
  -1   7   3    0.54    0.05
  -1   7   3    0.47    0.05
   0  -9  -1    0.01    0.03
   0  -9  -1    0.04    0.04
   0   9   1    0.02    0.02
   0   9   1    0.02    0.03
  -1 -11   1    0.55    0.07
   6   2 -13    1.62    0.13
   5   0 -11    0.30    0.05
   5   0 -11    0.30    0.06
   4  -2  -9    7.49    0.18
   4  -2  -9    7.51    0.19
  -4   2   9    7.68    0.16
  -4   2   9    7.47    0.16
   3  -4  -7    0.55    0.06
   3  -4  -7    0.61    0.06
  -3   4   7    0.71    0.05
  -3   4   7    0.69    0.05
   2  -6  -5    3.89    0.11
   2  -6  -5    3.96    0.12
  -2   6   5    3.80    0.11
  -2   6   5    3.74    0.11
   1  -8  -3    0.94    0.07
   1  -8  -3    0.94    0.06
   1  -8  -3    0.85    0.06
  -1   8   3    0.89    0.06
  -1   8   3    0.92    0.06
   0 -10  -1    2.39    0.11
   0 -10  -1    2.28    0.10
   0  10   1    2.62    0.11
  -1 -12   1    1.73    0.12
   6   1 -13    3.08    0.16
   5  -1 -11    2.15    0.12
   5  -1 -11    2.11    0.12
   4  -3  -9    1.82    0.09
   4  -3  -9    1.90    0.10
  -4   3   9    1.88    0.08
  -4   3   9    2.00    0.08
   3  -5  -7    0.00    0.03
   3  -5  -7    0.01    0.02
  -3   5   7    0.02    0.03
  -3   5   7    0.01    0.02
   2  -7  -5   12.40    0.24
   2  -7  -5   12.34    0.24
  -2   7   5   12.23    0.23
  -2   7   5   12.75    0.23
   1  -9  -3    5.26    0.15
   1  -9  -3    4.86    0.14
  -1   9   3    4.94    0.13
  -1   9   3    4.97    0.13
   0 -11  -1    0.64    0.07
   0  11   1    0.43    0.05
   6   0 -13    0.10    0.05
   5  -2 -11    1.54    0.10
   5  -2 -11    1.35    0.10
  -5   2  11    1.43    0.08
  -5   2  11    1.29    0.08
   4  -4  -9    1.79    0.10
   4  -4  -9    1.66    0.09
  -4   4   9    1.75    0.09
  -4   4   9    1.73    0.08
   3  -6  -7    9.10    0.20
   3  -6  -7    9.35    0.21
  -3   6   7    9.53    0.20
  -3   6   7    9.03    0.19
   2  -8  -5    6.06    0.16
   2  -8  -5    5.83    0.16
  -2   8   5    5.90    0.15
  -2   8   5    6.13    0.15
   1 -10  -3    1.41    0.09
   1 -10  -3    1.24    0.09
  -1  10   3    1.32    0.09
  -1  10   3    1.25    0.08
   0 -12  -1    1.14    0.11
   6  -1 -13   -0.02    0.05
   5  -3 -11    0.03    0.05
   5  -3 -11    0.04    0.04
  -5   3  11    0.01    0.03
  -5   3  11    0.01    0.03
   4  -5  -9    1.74    0.10
   4  -5  -9    1.79    0.10
  -4   5   9    1.84    0.09
  -4   5   9    1.75    0.09
   3  -7  -7    3.31    0.12
   3  -7  -7    3.16    0.12
  -3   7   7    3.23    0.11
  -3   7   7    2.96    0.11
   2  -9  -5    0.95    0.08
   2  -9  -5    0.92    0.08
  -2   9   5    0.96    0.08
  -2   9   5    0.96    0.08
   1 -11  -3    1.61    0.10
   6  -2 -13    0.22    0.07
   5  -4 -11    0.56    0.07
  -5   4  11    0.57    0.06
  -5   4  11    0.42    0.05
   4  -6  -9    0.50    0.06
   4  -6  -9    0.47    0.06
  -4   6   9    0.38    0.04
  -4   6   9    0.46    0.05
   3  -8  -7    0.05    0.04
   3  -8  -7    0.03    0.04
  -3   8   7    0.04    0.03
  -3   8   7    0.02    0.04
   2 -10  -5   -0.01    0.04
  -2  10   5    0.08    0.04
   1 -12  -3    1.18    0.11
   6  -3 -13    0.13    0.06
   5  -5 -11    0.05    0.05
  -5   5  11    0.05    0.04
   4  -7  -9    1.07    0.10
  -4   7   9    1.12    0.09
   3  -9  -7   -0.04    0.04
  -3   9   7    0.06    0.04
   2 -11  -5    0.24    0.06
  -2  11   5    0.26    0.05
   6  -4 -13    1.19    0.12
  -6   4  13    1.05    0.09
   5  -6 -11    0.30    0.07
  -5   6  11    0.28    0.05
   4  -8  -9    0.48    0.07
  -4   8   9    0.43    0.06
   3 -10  -7    0.69    0.08
  -3  10   7    0.65    0.07
  -2  12   5    0.50    0.07
   5  -7 -11    2.65    0.15
  -5   7  11    2.64    0.13
   4  -9  -9    0.42    0.08
  -4   9   9    0.38    0.06
  -4  11   6    0.41    0.07
   4 -11  -6    0.50    0.08
  -5   9   8    0.48    0.07
   5  -9  -8    0.52    0.08
  -6   7  10    2.03    0.12
   6  -7 -10    2.25    0.14
   3 -12  -4    0.01    0.06
  -4  10   6    1.33    0.11
   4 -10  -6    1.31    0.11
  -5   8   8    0.02    0.04
   5  -8  -8   -0.03    0.05
  -6   6  10    5.87    0.18
   6  -6 -10    5.79    0.19
  -7   4  12    0.20    0.05
   7  -4 -12    0.15    0.06
  -3  11   4   -0.03    0.04
   3 -11  -4    0.05    0.05
  -4   9   6    2.08    0.11
   4  -9  -6    1.97    0.11
  -5   7   8    0.04    0.04
   5  -7  -8    0.05    0.05
  -6   5  10    0.21    0.05
   6  -5 -10    0.35    0.07
   7  -3 -12    1.68    0.13
   2 -12  -2    0.04    0.06
  -3  10   4    0.09    0.03
  -3  10   4    0.07    0.04
   3 -10  -4    0.16    0.05
  -4   8   6    0.25    0.04
  -4   8   6    0.29    0.05
   4  -8  -6    0.30    0.06
   4  -8  -6    0.35    0.05
  -5   6   8    0.29    0.05
  -5   6   8    0.27    0.04
   5  -6  -8    0.33    0.05
   5  -6  -8    0.35    0.06
  -6   4  10    0.72    0.08
   6  -4 -10    0.73    0.08
   7  -2 -12    0.03    0.06
   1 -13   0    0.12    0.06
   2 -11  -2    0.20    0.06
  -3   9   4    1.42    0.09
  -3   9   4    1.31    0.08
   3  -9  -4    1.41    0.09
   3  -9  -4    1.41    0.09
  -4   7   6    4.23    0.13
  -4   7   6    4.03    0.13
   4  -7  -6    4.09    0.14
   4  -7  -6    4.28    0.13
  -5   5   8    1.00    0.07
  -5   5   8    1.06    0.08
   5  -5  -8    1.02    0.08
   5  -5  -8    0.91    0.08
  -6   3  10    2.71    0.11
  -6   3  10    2.54    0.10
   6  -3 -10    2.62    0.12
   6  -3 -10    2.40    0.13
   7  -1 -12    0.12    0.06
   1 -12   0    0.03    0.05
  -2  10   2    2.39    0.10
  -2  10   2    2.43    0.10
   2 -10  -2    2.64    0.11
   2 -10  -2    2.63    0.12
  -3   8   4    4.00    0.12
  -3   8   4    4.15    0.12
   3  -8  -4    3.96    0.13
   3  -8  -4    3.67    0.12
  -4   6   6    0.94    0.07
  -4   6   6    0.96    0.07
   4  -6  -6    1.05    0.08
   4  -6  -6    1.04    0.07
  -5   4   8    2.90    0.11
  -5   4   8    2.92    0.10
   5  -4  -8    3.06    0.12
   5  -4  -8    2.80    0.11
  -6   2  10    5.56    0.15
  -6   2  10    5.58    0.15
   6  -2 -10    5.56    0.18
   6  -2 -10    5.78    0.18
   7   0 -12    3.96    0.18
   0 -13   2    0.01    0.05
  -1  11   0    3.10    0.13
   1 -11   0    3.16    0.13
  -2   9   2    0.89    0.07
  -2   9   2    0.94    0.07
   2  -9  -2    0.95    0.07
   2  -9  -2    0.95    0.08
  -3   7   4    0.96    0.06
  -3   7   4    0.85    0.06
   3  -7  -4    0.83    0.07
   3  -7  -4    0.89    0.06
  -4   5   6    0.30    0.04
  -4   5   6    0.22    0.03
   4  -5  -6    0.42    0.05
   4  -5  -6    0.34    0.04
  -5   3   8    8.68    0.18
  -5   3   8    8.51    0.18
   5  -3  -8    8.11    0.20
   5  -3  -8    8.63    0.20
   6  -1 -10    4.38    0.16
   6  -1 -10    4.43    0.16
   7   1 -12    1.66    0.13
   0 -12   2    0.46    0.07
  -1  10   0    0.03    0.03
   1 -10   0   -0.04    0.04
   1 -10   0    0.02    0.03
  -2   8   2    0.86    0.06
  -2   8   2    1.05    0.06
  -2   8   2    0.92    0.06
   2  -8  -2    0.99    0.07
   2  -8  -2    0.85    0.07
  -3   6   4    9.23    0.18
  -3   6   4    9.42    0.18
   3  -6  -4    9.10    0.19
   3  -6  -4    9.56    0.18
  -4   4   6    0.53    0.05
  -4   4   6    0.53    0.04
   4  -4  -6    0.41    0.04
   4  -4  -6    0.34    0.04
  -5   2   8   12.75    0.23
  -5   2   8   13.09    0.24
   5  -2  -8   12.87    0.26
   5  -2  -8   13.20    0.26
   6   0 -10    0.05    0.04
   6   0 -10    0.07    0.04
   7   2 -12    1.00    0.11
   0  11  -2    0.40    0.05
   0 -11   2    0.60    0.07
   0 -11   2    0.46    0.06
  -1   9   0    1.24    0.08
   1  -9   0    1.22    0.08
   1  -9   0    1.37    0.08
  -2   7   2    0.90    0.06
  -2   7   2    0.94    0.05
  -2   7   2    0.97    0.06
   2  -7  -2    0.93    0.06
   2  -7  -2    0.95    0.06
  -3   5   4    9.69    0.18
  -3   5   4    9.56    0.18
   3  -5  -4    9.35    0.18
   3  -5  -4    9.69    0.18
  -4   3   6    1.24    0.06
  -4   3   6    1.25    0.06
   4  -3  -6    1.32    0.07
   4  -3  -6    1.37    0.07
  -5   1   8    0.03    0.02
  -5   1   8    0.08    0.03
   5  -1  -8    0.04    0.03
   5  -1  -8    0.01    0.04
   6   1 -10    1.81    0.11
   6   1 -10    2.06    0.12
   7   3 -12    2.37    0.15
  -1 -12   4    0.05    0.05
   0  10  -2    1.38    0.10
   0 -10   2    1.30    0.09
   0 -10   2    1.34    0.09
  -1   8   0   10.46    0.20
  -1   8   0   10.30    0.18
  -1   8   0   10.30    0.18
   1  -8   0   10.15    0.20
   1  -8   0   10.28    0.19
  -2   6   2   12.99    0.21
  -2   6   2   12.62    0.21
  -2   6   2   12.91    0.21
   2  -6  -2   12.75    0.21
   2  -6  -2   12.61    0.22
  -3   4   4    0.06    0.02
  -3   4   4    0.05    0.01
   3  -4  -4    0.06    0.02
   3  -4  -4    0.05    0.02
  -4   2   6    3.42    0.09
  -4   2   6    3.40    0.09
   4  -2  -6    3.50    0.11
   4  -2  -6    3.31    0.10
  -5   0   8    2.06    0.07
  -5   0   8    1.93    0.07
   5   0  -8    1.97    0.10
   5   0  -8    2.06    0.10
   6   2 -10    4.15    0.16
  -7  -4  12   -0.01    0.05
  -1 -11   4    3.13    0.13
   0   9  -2    6.48    0.16
   0  -9   2    6.27    0.16
   0  -9   2    6.29    0.15
  -1   7   0    2.53    0.08
  -1   7   0    2.72    0.07
  -1   7   0    2.63    0.07
   1  -7   0    2.31    0.08
   1  -7   0    2.40    0.08
  -2   5   2   31.63    0.44
  -2   5   2   31.51    0.43
  -2   5   2   32.17    0.44
   2  -5  -2   31.75    0.43
   2  -5  -2   31.57    0.43
  -3   3   4    2.28    0.07
  -3   3   4    2.39    0.07
   3  -3  -4    2.27    0.07
   3  -3  -4    2.33    0.07
  -4   1   6   39.52    0.54
  -4   1   6   39.72    0.54
   4  -1  -6   39.80    0.55
   4  -1  -6   37.88    0.55
  -5  -1   8    2.66    0.10
   5   1  -8    2.79    0.11
  -6  -3  10    0.40    0.06
   6   3 -10    0.28    0.06
  -7  -5  12    0.67    0.08
  -2 -12   6    0.26    0.06
   1  10  -4    8.56    0.21
  -1 -10   4    8.32    0.20
  -1 -10   4    8.69    0.20
   0   8  -2    3.25    0.11
   0  -8   2    3.23    0.10
   0  -8   2    3.17    0.10
  -1   6   0   17.73    0.26
  -1   6   0   17.66    0.26
  -1   6   0   17.80    0.27
   1  -6   0   17.56    0.26
   1  -6   0   17.75    0.27
  -2   4   2   26.41    0.35
  -2   4   2   26.75    0.37
  -2   4   2   26.30    0.37
   2  -4  -2   25.70    0.35
   2  -4  -2   26.68    0.36
  -3   2   4   29.00    0.40
  -3   2   4   30.16    0.41
   3  -2  -4   28.48    0.40
   3  -2  -4   28.87    0.41
  -4   0   6    6.85    0.13
  -4   0   6    7.09    0.13
   4   0  -6    6.85    0.16
  -5  -2   8    1.98    0.09
   5   2  -8    2.24    0.11
  -6  -4  10    1.13    0.09
   6   4 -10    1.00    0.10
  -2 -11   6    0.31    0.06
   1   9  -4    1.90    0.10
  -1  -9   4    1.87    0.09
  -1  -9   4    1.79    0.08
   0   7  -2    1.97    0.08
   0   7  -2    1.93    0.05
   0  -7   2    1.86    0.07
   0  -7   2    1.87    0.07
  -1   5   0   59.32    0.76
  -1   5   0   60.24    0.76
  -1   5   0   59.30    0.76
   1  -5   0   58.01    0.73
   1  -5   0   59.38    0.74
  -2   3   2   32.38    0.43
  -2   3   2   31.54    0.42
  -2   3   2   31.98    0.41
   2  -3  -2   30.61    0.41
   2  -3  -2   32.41    0.42
  -3   1   4    0.55    0.03
  -3   1   4    0.54    0.03
   3  -1  -4    0.58    0.04
   3  -1  -4    0.59    0.04
  -4  -1   6    0.11    0.02
  -4  -1   6    0.09    0.02
  -4  -1   6    0.09    0.01
   4   1  -6    0.07    0.03
  -5  -3   8    2.61    0.10
  -5  -3   8    2.51    0.10
  -6  -5  10    1.70    0.11
   2  10  -6    1.91    0.12
  -2 -10   6    1.73    0.10
  -2 -10   6    1.98    0.10
   1   8  -4    4.25    0.12
  -1  -8   4    4.27    0.12
  -1  -8   4    4.16    0.12
   0   6  -2    0.60    0.04
   0   6  -2    0.62    0.03
   0   6  -2    0.65    0.03
   0  -6   2    0.68    0.04
   0  -6   2    0.62    0.04
  -1   4   0   14.47    0.21
  -1   4   0   14.91    0.21
  -1   4   0   14.69    0.21
   1  -4   0   15.07    0.21
   1  -4   0   14.57    0.21
  -2   2   2   36.73    0.45
  -2   2   2   35.45    0.48
  -2   2   2   37.34    0.47
   2  -2  -2   35.75    0.46
   2  -2  -2   36.01    0.46
  -3   0   4   50.32    0.64
  -3   0   4   48.64    0.62
  -3   0   4   48.90    0.64
   3   0  -4   49.46    0.61
   3   0  -4   48.98    0.63
  -4  -2   6    2.58    0.07
  -4  -2   6    2.57    0.08
  -4  -2   6    2.57    0.08
  -4  -2   6    2.55    0.06
  -5  -4   8    2.84    0.10
  -5  -4   8    2.75    0.10
  -6  -6  10    3.17    0.14
  -3 -11   8    1.37    0.11
   2   9  -6    0.95    0.09
  -2  -9   6    1.00    0.08
  -2  -9   6    0.89    0.08
   1   7  -4    2.95    0.10
  -1  -7   4    2.94    0.09
  -1  -7   4    2.93    0.09
   0   5  -2   40.94    0.52
   0   5  -2   40.67    0.52
   0   5  -2   40.67    0.55
   0  -5   2   40.62    0.52
   0  -5   2   41.18    0.53
  -1   3   0   15.09    0.21
  -1   3   0   15.20    0.21
  -1   3   0   15.59    0.21
   1  -3   0   15.48    0.21
   1  -3   0   15.18    0.20
  -2   1   2    2.68    0.06
  -2   1   2    2.74    0.06
   2  -1  -2    2.65    0.06
   2  -1  -2    2.66    0.06
  -3  -1   4    6.88    0.13
  -3  -1   4    7.13    0.12
  -3  -1   4    7.31    0.12
  -3  -1   4    7.15    0.12
   3   1  -4    6.92    0.11
  -4  -3   6    0.25    0.03
  -4  -3   6    0.24    0.03
   4   3  -6    0.20    0.02
  -5  -5   8    2.93    0.11
  -5  -5   8    2.73    0.10
  -6  -7  10    0.36    0.06
  -3 -10   8    2.24    0.12
   2   8  -6    7.65    0.18
  -2  -8   6    7.64    0.17
  -2  -8   6    7.79    0.18
   1   6  -4    4.30    0.11
  -1  -6   4    4.20    0.10
  -1  -6   4    4.25    0.10
   0   4  -2   60.39    0.76
   0   4  -2   59.65    0.77
   0  -4   2   57.49    0.72
   0  -4   2   60.82    0.73
  -1   2   0   17.57    0.23
  -1   2   0   18.05    0.23
   1  -2   0   17.43    0.22
  -2   0   2    6.22    0.10
  -2   0   2    6.30    0.10
  -2   0   2    6.33    0.10
  -2   0   2    6.24    0.08
  -3  -2   4    5.74    0.11
  -3  -2   4    5.47    0.11
  -3  -2   4    5.73    0.10
  -3  -2   4    5.59    0.10
  -3  -2   4    5.64    0.09
  -4  -4   6    0.12    0.02
  -4  -4   6    0.09    0.03
   4   4  -6    0.07    0.02
  -5  -6   8    3.65    0.13
  -5  -6   8    3.55    0.12
  -6  -8  10    0.05    0.05
   3   9  -8    2.64    0.13
  -3  -9   8    2.55    0.12
  -3  -9   8    2.51    0.11
   2   7  -6   16.13    0.28
  -2  -7   6   16.56    0.27
  -2  -7   6   16.57    0.28
   1   5  -4   37.83    0.52
  -1  -5   4   38.84    0.50
  -1  -5   4   38.09    0.50
   0   3  -2    2.93    0.04
   0   3  -2    2.76    0.06
  -1   1   0    5.52    0.08
  -1   1   0    5.55    0.08
  -2  -1   2    6.04    0.10
  -2  -1   2    5.86    0.10
  -2  -1   2    6.02    0.09
  -2  -1   2    6.00    0.09
  -2  -1   2    5.95    0.09
  -3  -3   4    5.99    0.11
  -3  -3   4    6.19    0.12
  -3  -3   4    6.06    0.10
  -3  -3   4    6.27    0.12
  -3  -3   4    6.11    0.10
  -4  -5   6    1.01    0.06
  -4  -5   6    1.16    0.07
   4   5  -6    1.08    0.07
  -5  -7   8    1.63    0.10
  -5  -7   8    1.46    0.09
  -4 -10  10    2.27    0.13
   3   8  -8    0.20    0.04
  -3  -8   8    0.21    0.04
  -3  -8   8    0.30    0.05
   2   6  -6    2.19    0.09
  -2  -6   6    2.24    0.08
  -2  -6   6    2.30    0.08
   1   4  -4   10.38    0.17
  -1  -4   4   10.33    0.16
  -1  -4   4   10.59    0.17
   0   2  -2   99.49    1.27
   0   2  -2  100.88    1.24
   0  -2   2   99.01    1.19
  -1   0   0   29.67    0.40
  -1   0   0   29.49    0.40
  -1   0   0   31.44    0.38
  -2  -2   2   18.72    0.25
  -2  -2   2   19.02    0.25
  -2  -2   2   18.76    0.25
  -2  -2   2   19.02    0.25
  -2  -2   2   18.64    0.25
  -3  -4   4   15.10    0.22
  -3  -4   4   15.15    0.23
  -3  -4   4   15.46    0.24
  -3  -4   4   15.54    0.24
  -4  -6   6    0.26    0.04
  -4  -6   6    0.32    0.04
   4   6  -6    0.24    0.03
  -5  -8   8    2.82    0.12
  -4  -9  10    2.15    0.12
   3   7  -8    1.28    0.09
  -3  -7   8    1.28    0.08
  -3  -7   8    1.20    0.08
   2   5  -6   11.42    0.20
  -2  -5   6   10.89    0.19
  -2  -5   6   11.35    0.20
   1   3  -4    0.43    0.03
  -1  -3   4    0.44    0.03
  -1  -3   4    0.42    0.03
   0   1  -2    1.01    0.03
   0  -1   2    0.81    0.01
   0  -1   2    0.81    0.02
  -1  -1   0  241.61    2.97
  -1  -1   0  234.04    3.76
  -1  -1   0  235.31    2.81
  -2  -3   2   22.59    0.30
  -2  -3   2   22.90    0.30
  -2  -3   2   22.36    0.30
  -2  -3   2   22.58    0.30
  -2  -3   2   21.92    0.30
  -3  -5   4   34.88    0.47
  -3  -5   4   34.61    0.48
  -3  -5   4   35.36    0.48
  -4  -7   6    8.13    0.18
  -4  -7   6    7.83    0.18
   4   7  -6    8.23    0.19
  -5  -9   8    1.54    0.11
  -4  -8  10    0.60    0.07
   3   6  -8    0.02    0.03
  -3  -6   8    0.04    0.03
  -3  -6   8    0.04    0.03
   2   4  -6   17.10    0.26
  -2  -4   6   17.29    0.26
  -2  -4   6   17.05    0.26
   1   2  -4    0.25    0.02
  -1  -2   4    0.26    0.02
  -1  -2   4    0.28    0.02
  -1  -2   4    0.28    0.01
   0   0  -2  164.53    2.08
   0   0  -2  161.48    2.00
   0   0   2  165.93    2.08
  -1  -2   0    0.10    0.01
  -1  -2   0    0.06    0.01
  -1  -2   0    0.06    0.01
  -2  -4   2   39.73    0.50
  -2  -4   2   39.25    0.51
  -2  -4   2   39.75    0.52
  -2  -4   2   38.86    0.51
  -3  -6   4   32.74    0.45
  -3  -6   4   33.06    0.46
  -3  -6   4   31.27    0.46
  -4  -8   6    2.18    0.10
  -4  -8   6    2.15    0.10
   4   8  -6    2.16    0.11
  -5 -10   8    0.65    0.08
  -4  -7  10    0.26    0.05
  -4  -7  10    0.24    0.04
   3   5  -8    1.27    0.07
  -3  -5   8    1.27    0.07
  -3  -5   8    1.22    0.07
   2   3  -6    9.74    0.16
  -2  -3   6    9.82    0.17
  -2  -3   6    9.61    0.13
  -2  -3   6    9.67    0.16
   1   1  -4    4.09    0.07
  -1  -1   4    3.96    0.06
  -1  -1   4    3.99    0.08
  -1  -1   4    3.92    0.07
   0  -1  -2  187.54    2.27
   0  -1  -2  189.44    2.36
   0   1   2  185.09    2.40
  -1  -3   0   50.42    0.64
  -1  -3   0   50.56    0.62
  -1  -3   0   51.41    0.62
   1   3   0   50.49    0.64
  -2  -5   2   17.31    0.26
  -2  -5   2   17.21    0.26
  -2  -5   2   16.46    0.25
   2   5  -2   17.04    0.24
   2   5  -2   17.08    0.23
  -3  -7   4    4.12    0.12
  -3  -7   4    4.23    0.12
  -4  -9   6    1.23    0.09
   4   9  -6    1.25    0.10
  -5  -8  12    1.49    0.11
  -4  -6  10    0.24    0.04
  -4  -6  10    0.29    0.05
   3   4  -8   16.70    0.27
  -3  -4   8   16.71    0.27
  -3  -4   8   16.34    0.27
   2   2  -6    0.58    0.03
  -2  -2   6    0.50    0.02
  -2  -2   6    0.52    0.02
  -2  -2   6    0.54    0.04
  -2  -2   6    0.50    0.03
   1   0  -4    0.78    0.04
   1   0  -4    0.78    0.03
  -1   0   4    0.76    0.03
  -1   0   4    0.74    0.03
   0  -2  -2   33.11    0.42
   0  -2  -2   32.91    0.41
   0  -2  -2   33.02    0.41
   0   2   2   32.27    0.43
   0   2   2   33.90    0.43
  -1  -4   0    5.87    0.11
  -1  -4   0    5.68    0.11
  -1  -4   0    5.86    0.11
   1   4   0    5.62    0.10
   1   4   0    5.88    0.10
  -2  -6   2   25.41    0.36
  -2  -6   2   25.20    0.37
  -2  -6   2   25.58    0.37
   2   6  -2   25.18    0.34
   2   6  -2   25.08    0.34
  -3  -8   4    0.02    0.03
  -3  -8   4    0.01    0.03
   3   8  -4    0.00    0.03
  -4 -10   6    2.87    0.13
  -5  -7  12    1.92    0.12
  -4  -5  10    0.00    0.03
  -4  -5  10    0.06    0.03
   3   3  -8    4.25    0.10
  -3  -3   8    4.32    0.11
  -3  -3   8    4.38    0.12
   2   1  -6    2.06    0.07
   2   1  -6    2.21    0.05
  -2  -1   6    1.89    0.06
  -2  -1   6    2.01    0.05
  -2  -1   6    1.97    0.05
   1  -1  -4  129.76    1.65
   1  -1  -4  127.97    1.64
   1  -1  -4  130.61    1.64
  -1   1   4  131.21    1.74
  -1   1   4  129.33    1.71
   0  -3  -2   41.38    0.54
   0  -3  -2   43.00    0.53
   0  -3  -2   42.64    0.53
   0   3   2   41.77    0.55
   0   3   2   43.33    0.55
  -1  -5   0    4.85    0.10
  -1  -5   0    4.97    0.10
  -1  -5   0    4.93    0.10
   1   5   0    4.91    0.09
   1   5   0    4.90    0.09
  -2  -7   2    6.49    0.15
  -2  -7   2    6.50    0.14
  -2  -7   2    6.20    0.14
  -3  -9   4    0.41    0.06
  -3  -9   4    0.32    0.04
   3   9  -4    0.38    0.05
  -4 -11   6    0.60    0.08
  -5  -6  12    0.05    0.05
  -4  -4  10    1.09    0.08
  -4  -4  10    1.07    0.08
   3   2  -8    1.81    0.08
  -3  -2   8    1.73    0.07
   2   0  -6    9.25    0.14
   2   0  -6    9.24    0.17
   2   0  -6    9.44    0.18
  -2   0   6    9.20    0.15
  -2   0   6    9.36    0.15
   1  -2  -4  229.89    2.83
   1  -2  -4  232.37    2.92
   1  -2  -4  233.79    2.89
  -1   2   4  232.46    3.07
  -1   2   4  233.87    3.02
   0  -4  -2    3.30    0.07
   0  -4  -2    3.16    0.08
   0  -4  -2    3.26    0.08
   0   4   2    3.32    0.07
   0   4   2    3.29    0.07
  -1  -6   0   31.26    0.43
  -1  -6   0   31.12    0.42
  -1  -6   0   31.08    0.43
   1   6   0   30.96    0.42
   1   6   0   30.55    0.42
  -2  -8   2    4.16    0.12
  -2  -8   2    4.03    0.12
  -2  -8   2    4.11    0.11
  -3 -10   4    1.42    0.10
  -5  -5  12    0.14    0.05
   4   3 -10    2.97    0.13
  -4  -3  10    2.87    0.11
   3   1  -8   22.59    0.36
  -3  -1   8   22.27    0.34
  -3  -1   8   22.37    0.32
  -3  -1   8   21.83    0.32
   2  -1  -6   37.75    0.47
   2  -1  -6   37.87    0.51
   2  -1  -6   37.58    0.51
  -2   1   6   37.34    0.50
  -2   1   6   37.05    0.50
   1  -3  -4    4.53    0.10
   1  -3  -4    4.54    0.10
   1  -3  -4    4.65    0.08
  -1   3   4    4.52    0.09
   0  -5  -2    5.71    0.11
   0  -5  -2    5.69    0.11
   0  -5  -2    5.56    0.12
   0   5   2    5.51    0.11
   0   5   2    5.69    0.11
  -1  -7   0   21.54    0.33
  -1  -7   0   21.39    0.32
  -1  -7   0   21.15    0.32
   1   7   0   21.35    0.31
   1   7   0   21.35    0.31
  -2  -9   2    3.54    0.12
  -2  -9   2    3.37    0.12
  -3 -11   4    2.92    0.14
  -5  -4  12    2.23    0.11
   4   2 -10    6.85    0.19
  -4  -2  10    6.73    0.17
   3   0  -8    0.06    0.03
   3   0  -8    0.04    0.03
  -3   0   8    0.05    0.02
  -3   0   8    0.04    0.01
   2  -2  -6    9.84    0.18
   2  -2  -6   10.26    0.19
   2  -2  -6   10.34    0.14
  -2   2   6   10.13    0.17
  -2   2   6   10.16    0.17
   1  -4  -4    5.68    0.12
   1  -4  -4    5.62    0.10
   1  -4  -4    5.65    0.12
  -1   4   4    5.66    0.11
  -1   4   4    5.66    0.11
   0  -6  -2   22.96    0.33
   0  -6  -2   23.34    0.34
   0  -6  -2   23.28    0.34
   0   6   2   23.01    0.33
   0   6   2   23.07    0.34
  -1  -8   0    1.82    0.08
  -1  -8   0    1.83    0.08
  -1  -8   0    1.72    0.08
   1   8   0    1.75    0.07
   1   8   0    1.80    0.07
  -2 -10   2    0.02    0.03
  -2 -10   2   -0.01    0.04
   2  10  -2   -0.02    0.03
  -3 -12   4    1.08    0.10
   5   3 -12    2.00    0.12
  -5  -3  12    2.04    0.11
   4   1 -10    0.07    0.04
   4   1 -10    0.07    0.04
   3  -1  -8    0.08    0.03
   3  -1  -8    0.07    0.03
  -3   1   8    0.05    0.02
  -3   1   8    0.05    0.02
   2  -3  -6   13.56    0.19
   2  -3  -6   13.29    0.23
   2  -3  -6   13.26    0.23
  -2   3   6   13.68    0.22
  -2   3   6   13.15    0.22
   1  -5  -4    3.26    0.08
   1  -5  -4    3.04    0.09
   1  -5  -4    3.28    0.09
  -1   5   4    3.37    0.09
  -1   5   4    3.26    0.09
   0  -7  -2   11.46    0.20
   0  -7  -2   11.62    0.21
   0  -7  -2   10.91    0.20
   0   7   2   11.60    0.20
   0   7   2   11.40    0.20
  -1  -9   0    1.35    0.08
  -1  -9   0    1.29    0.08
  -1  -9   0    1.29    0.07
  -2 -11   2    0.38    0.06
   6   4 -14    0.55    0.09
   5   2 -12    0.21    0.06
   5   2 -12    0.25    0.06
   4   0 -10    4.48    0.15
   4   0 -10    4.17    0.14
   3  -2  -8    7.60    0.17
   3  -2  -8    7.67    0.17
  -3   2   8    7.61    0.15
  -3   2   8    7.57    0.15
   2  -4  -6    9.01    0.18
   2  -4  -6    9.18    0.18
  -2   4   6    9.14    0.17
  -2   4   6    8.96    0.17
   1  -6  -4   15.02    0.26
   1  -6  -4   15.80    0.26
   1  -6  -4   15.50    0.24
  -1   6   4   15.33    0.25
  -1   6   4   15.49    0.25
   0  -8  -2    0.06    0.03
   0  -8  -2    0.10    0.02
   0  -8  -2    0.14    0.04
   0   8   2    0.05    0.02
   0   8   2    0.07    0.03
  -1 -10   0    0.35    0.05
  -1 -10   0    0.46    0.06
  -2 -12   2    0.46    0.07
   6   3 -14    1.02    0.11
   5   1 -12    3.10    0.14
   5   1 -12    3.07    0.14
   4  -1 -10    9.82    0.23
   4  -1 -10    9.71    0.22
  -4   1  10    9.60    0.19
  -4   1  10    9.67    0.19
   3  -3  -8    0.06    0.02
   3  -3  -8    0.09    0.03
  -3   3   8    0.03    0.02
  -3   3   8    0.05    0.02
   2  -5  -6    0.02    0.03
   2  -5  -6    0.08    0.03
  -2   5   6    0.06    0.02
  -2   5   6    0.06    0.02
   1  -7  -4    7.80    0.15
   1  -7  -4    8.01    0.17
   1  -7  -4    8.12    0.18
  -1   7   4    7.72    0.16
  -1   7   4    8.00    0.17
   0  -9  -2    0.84    0.06
   0  -9  -2    0.89    0.08
   0  -9  -2    1.02    0.07
   0   9   2    0.97    0.07
   0   9   2    0.97    0.07
  -1 -11   0    0.32    0.06
   6   2 -14    1.70    0.14
   5   0 -12    6.03    0.19
   5   0 -12    5.99    0.19
   4  -2 -10    1.50    0.09
   4  -2 -10    1.36    0.09
  -4   2  10    1.34    0.07
  -4   2  10    1.40    0.07
   3  -4  -8    1.31    0.08
   3  -4  -8    1.50    0.08
  -3   4   8    1.41    0.07
  -3   4   8    1.45    0.07
   2  -6  -6    2.30    0.09
   2  -6  -6    2.29    0.09
  -2   6   6    2.21    0.08
  -2   6   6    2.31    0.09
   1  -8  -4    7.29    0.15
   1  -8  -4    6.84    0.17
   1  -8  -4    7.23    0.17
  -1   8   4    7.18    0.16
  -1   8   4    7.05    0.16
   0 -10  -2    0.10    0.04
   0 -10  -2    0.09    0.04
  -1 -12   0    0.09    0.06
   6   1 -14    0.11    0.06
   5  -1 -12    1.86    0.12
   5  -1 -12    2.00    0.12
   4  -3 -10    1.52    0.10
   4  -3 -10    1.58    0.09
  -4   3  10    1.51    0.08
  -4   3  10    1.52    0.08
   3  -5  -8    5.54    0.15
   3  -5  -8    5.27    0.15
  -3   5   8    5.25    0.14
  -3   5   8    5.44    0.14
   2  -7  -6    2.80    0.10
   2  -7  -6    3.04    0.12
  -2   7   6    2.97    0.10
  -2   7   6    3.02    0.11
   1  -9  -4    0.07    0.02
   1  -9  -4    0.14    0.05
   1  -9  -4    0.14    0.04
  -1   9   4    0.12    0.03
  -1   9   4    0.10    0.04
   0 -11  -2    0.01    0.05
   6   0 -14   -0.01    0.06
   5  -2 -12    1.51    0.11
   4  -4 -10    0.03    0.03
   4  -4 -10    0.11    0.04
  -4   4  10    0.01    0.02
  -4   4  10    0.03    0.03
   3  -6  -8    0.87    0.08
   3  -6  -8    0.87    0.07
  -3   6   8    0.89    0.07
  -3   6   8    0.91    0.07
   2  -8  -6    0.16    0.05
   2  -8  -6    0.15    0.04
  -2   8   6    0.14    0.04
  -2   8   6    0.14    0.03
   1 -10  -4    0.10    0.05
  -1  10   4    0.12    0.04
  -1  10   4    0.07    0.03
   0 -12  -2    1.71    0.12
   6  -1 -14    0.35    0.07
   5  -3 -12    0.49    0.07
  -5   3  12    0.48    0.05
  -5   3  12    0.32    0.04
   4  -5 -10    0.03    0.03
   4  -5 -10    0.07    0.04
  -4   5  10    0.04    0.03
  -4   5  10    0.09    0.04
   3  -7  -8    1.53    0.09
   3  -7  -8    1.65    0.09
  -3   7   8    1.54    0.09
  -3   7   8    1.55    0.09
   2  -9  -6    0.03    0.04
   2  -9  -6   -0.02    0.03
  -2   9   6    0.03    0.04
  -2   9   6    0.00    0.03
   1 -11  -4    0.05    0.05
  -1  11   4    0.02    0.04
   6  -2 -14    1.58    0.13
   5  -4 -12    2.74    0.14
  -5   4  12    2.72    0.12
   4  -6 -10    0.07    0.05
  -4   6  10    0.05    0.04
   3  -8  -8    6.25    0.19
  -3   8   8    6.26    0.18
   2 -10  -6    0.03    0.05
  -2  10   6    0.00    0.04
   1 -12  -4    0.42    0.07
   5  -5 -12    7.40    0.22
  -5   5  12    7.06    0.20
   4  -7 -10    0.23    0.06
  -4   7  10    0.22    0.05
   3  -9  -8    0.55    0.07
  -3   9   8    0.48    0.06
   2 -11  -6    0.52    0.08
  -2  11   6    0.42    0.06
   5  -6 -12    2.78    0.15
  -5   6  12    2.92    0.14
   4  -8 -10    1.54    0.12
  -4   8  10    1.64    0.12
   3 -10  -8    0.10    0.06
  -3  10   8    0.03    0.05
  -5  10   7    0.04    0.05
   5 -10  -7    0.03    0.05
  -6   8   9    0.55    0.07
   6  -8  -9    0.73    0.09
  -4  11   5    0.17    0.05
   4 -11  -5    0.20    0.06
  -5   9   7    0.41    0.06
   5  -9  -7    0.40    0.07
  -6   7   9    0.62    0.07
   6  -7  -9    0.71    0.08
  -7   5  11    1.04    0.10
   7  -5 -11    1.11    0.11
   3 -12  -3   -0.01    0.05
  -4  10   5    0.04    0.04
   4 -10  -5    0.06    0.05
  -5   8   7    0.91    0.09
   5  -8  -7    0.93    0.09
  -6   6   9    0.79    0.08
   6  -6  -9    0.70    0.08
  -7   4  11   -0.02    0.04
   7  -4 -11   -0.02    0.05
  -3  11   3    0.35    0.05
   3 -11  -3    0.53    0.07
  -4   9   5    1.06    0.09
  -4   9   5    1.04    0.08
   4  -9  -5    1.01    0.09
   4  -9  -5    1.10    0.09
  -5   7   7    0.27    0.04
  -5   7   7    0.34    0.05
   5  -7  -7    0.44    0.06
   5  -7  -7    0.38    0.05
  -6   5   9    0.04    0.04
   6  -5  -9    0.07    0.05
  -7   3  11    0.46    0.06
   7  -3 -11    0.52    0.08
   2 -12  -1    0.74    0.08
  -3  10   3    2.63    0.11
  -3  10   3    2.42    0.10
   3 -10  -3    2.70    0.12
   3 -10  -3    2.53    0.11
  -4   8   5    3.12    0.11
  -4   8   5    3.31    0.12
   4  -8  -5    3.07    0.12
   4  -8  -5    3.23    0.12
  -5   6   7    2.18    0.10
  -5   6   7    2.11    0.10
   5  -6  -7    2.06    0.10
   5  -6  -7    2.09    0.11
  -6   4   9    0.26    0.04
  -6   4   9    0.21    0.03
   6  -4  -9    0.34    0.06
   6  -4  -9    0.19    0.05
   7  -2 -11    0.39    0.07
   1 -13   1    0.57    0.08
   2 -11  -1    0.93    0.09
  -3   9   3    2.97    0.11
  -3   9   3    3.01    0.11
   3  -9  -3    2.69    0.11
   3  -9  -3    2.73    0.11
  -4   7   5    1.10    0.07
  -4   7   5    1.13    0.07
   4  -7  -5    1.30    0.08
   4  -7  -5    1.15    0.08
  -5   5   7    1.99    0.09
  -5   5   7    1.90    0.09
   5  -5  -7    2.02    0.10
   5  -5  -7    1.86    0.10
  -6   3   9    2.47    0.10
  -6   3   9    2.44    0.10
   6  -3  -9    2.63    0.12
   6  -3  -9    2.50    0.12
   7  -1 -11    1.51    0.12
   1 -12   1    0.14    0.06
  -2  10   1    2.26    0.10
   2 -10  -1    2.29    0.11
   2 -10  -1    2.39    0.11
  -3   8   3    3.28    0.10
  -3   8   3    3.29    0.11
   3  -8  -3    3.24    0.11
   3  -8  -3    3.22    0.11
  -4   6   5    0.02    0.02
  -4   6   5    0.01    0.02
   4  -6  -5   -0.01    0.02
   4  -6  -5    0.03    0.03
  -5   4   7    5.93    0.15
  -5   4   7    6.03    0.15
   5  -4  -7    5.85    0.16
   5  -4  -7    5.91    0.16
  -6   2   9    0.22    0.03
  -6   2   9    0.24    0.04
   6  -2  -9    0.33    0.06
   6  -2  -9    0.22    0.05
   7   0 -11    4.08    0.17
   0 -13   3    0.06    0.06
  -1  11  -1    1.09    0.10
   1 -11   1    1.06    0.09
   1 -11   1    1.18    0.09
  -2   9   1    0.82    0.06
  -2   9   1    0.80    0.06
  -2   9   1    0.82    0.07
   2  -9  -1    0.94    0.07
   2  -9  -1    0.94    0.07
  -3   7   3    2.08    0.08
  -3   7   3    2.10    0.08
   3  -7  -3    2.16    0.09
   3  -7  -3    2.08    0.09
  -4   5   5    4.77    0.12
  -4   5   5    4.95    0.12
   4  -5  -5    4.83    0.13
   4  -5  -5    4.64    0.13
  -5   3   7   14.64    0.26
  -5   3   7   14.60    0.26
   5  -3  -7   14.45    0.27
   5  -3  -7   14.14    0.27
  -6   1   9    0.19    0.03
  -6   1   9    0.30    0.04
   6  -1  -9    0.26    0.05
   6  -1  -9    0.29    0.06
   7   1 -11    3.34    0.16
   0 -12   3   -0.01    0.05
  -1  10  -1    0.29    0.04
   1 -10   1    0.38    0.05
   1 -10   1    0.30    0.05
  -2   8   1    4.03    0.11
  -2   8   1    3.94    0.11
  -2   8   1    3.79    0.10
   2  -8  -1    3.86    0.11
   2  -8  -1    4.02    0.11
  -3   6   3    4.17    0.11
  -3   6   3    4.47    0.11
   3  -6  -3    4.47    0.12
   3  -6  -3    4.53    0.11
  -4   4   5    0.01    0.02
  -4   4   5    0.04    0.02
   4  -4  -5    0.07    0.03
   4  -4  -5    0.08    0.03
  -5   2   7   22.41    0.35
  -5   2   7   22.24    0.35
   5  -2  -7   22.19    0.36
   5  -2  -7   22.22    0.37
   6   0  -9    1.80    0.11
   6   0  -9    1.77    0.10
   7   2 -11    5.09    0.20
   0  11  -3    1.43    0.11
   0 -11   3    1.40    0.09
   0 -11   3    1.46    0.10
  -1   9  -1    3.21    0.11
   1  -9   1    3.19    0.11
   1  -9   1    3.11    0.11
  -2   7   1    7.80    0.15
  -2   7   1    7.57    0.15
  -2   7   1    7.43    0.15
   2  -7  -1    7.56    0.16
   2  -7  -1    7.72    0.15
  -3   5   3   14.41    0.23
  -3   5   3   14.07    0.23
   3  -5  -3   14.04    0.23
   3  -5  -3   14.42    0.23
  -4   3   5    9.19    0.17
  -4   3   5    8.94    0.17
   4  -3  -5    9.18    0.18
   4  -3  -5    9.05    0.18
  -5   1   7   10.71    0.19
  -5   1   7   10.43    0.19
   5  -1  -7   10.42    0.22
   5  -1  -7   10.40    0.22
   6   1  -9    2.46    0.12
   6   1  -9    2.47    0.12
  -1 -12   5    0.25    0.06
   0  10  -3    4.02    0.14
   0 -10   3    3.94    0.13
   0 -10   3    3.77    0.13
  -1   8  -1    0.67    0.04
  -1   8  -1    0.53    0.04
  -1   8  -1    0.68    0.06
   1  -8   1    0.68    0.06
   1  -8   1    0.66    0.06
  -2   6   1   10.25    0.18
  -2   6   1   10.34    0.18
  -2   6   1   10.51    0.18
   2  -6  -1   10.28    0.18
   2  -6  -1   10.38    0.18
  -3   4   3   18.27    0.28
  -3   4   3   17.69    0.27
  -3   4   3   18.51    0.25
   3  -4  -3   18.31    0.28
   3  -4  -3   17.99    0.27
  -4   2   5   46.44    0.63
  -4   2   5   46.99    0.63
   4  -2  -5   45.81    0.62
   4  -2  -5   46.45    0.63
  -5   0   7    3.44    0.09
  -5   0   7    3.52    0.09
   5   0  -7    3.52    0.12
   5   0  -7    3.48    0.12
  -6  -2   9    1.23    0.09
   6   2  -9    1.25    0.10
  -7  -4  11    0.04    0.05
  -1 -11   5    0.00    0.05
   0   9  -3    5.69    0.16
   0  -9   3    5.74    0.15
   0  -9   3    5.80    0.15
  -1   7  -1    0.12    0.02
  -1   7  -1    0.09    0.02
  -1   7  -1    0.09    0.02
   1  -7   1    0.12    0.03
   1  -7   1    0.10    0.02
  -2   5   1   92.36    1.17
  -2   5   1   91.57    1.18
  -2   5   1   92.81    1.19
   2  -5  -1   95.02    1.13
   2  -5  -1   93.63    1.14
  -3   3   3    4.61    0.10
  -3   3   3    4.58    0.10
  -3   3   3    4.63    0.07
   3  -3  -3    4.50    0.10
   3  -3  -3    4.55    0.10
  -4   1   5   24.88    0.36
  -4   1   5   24.95    0.36
   4  -1  -5   24.22    0.37
   4  -1  -5   24.76    0.37
  -5  -1   7    0.98    0.05
  -5  -1   7    0.92    0.06
  -5  -1   7    1.03    0.05
   5   1  -7    1.03    0.08
  -6  -3   9    4.85    0.15
   6   3  -9    4.64    0.16
  -7  -5  11    1.94    0.12
  -2 -12   7    0.09    0.06
   1  10  -5    0.40    0.05
  -1 -10   5    0.50    0.06
  -1 -10   5    0.46    0.05
   0   8  -3    1.62    0.08
   0  -8   3    1.60    0.07
   0  -8   3    1.66    0.08
  -1   6  -1    7.02    0.12
  -1   6  -1    7.10    0.14
  -1   6  -1    7.07    0.12
   1  -6   1    6.96    0.13
   1  -6   1    7.08    0.13
  -2   4   1   59.73    0.76
  -2   4   1   58.68    0.77
  -2   4   1   59.25    0.75
   2  -4  -1   59.32    0.73
   2  -4  -1   58.27    0.72
  -3   2   3   15.29    0.23
  -3   2   3   15.73    0.23
   3  -2  -3   15.46    0.23
   3  -2  -3   15.37    0.23
  -4   0   5   49.70    0.64
  -4   0   5   48.81    0.65
  -4   0   5   48.31    0.65
   4   0  -5   48.88    0.65
  -5  -2   7    1.55    0.07
  -6  -4   9    7.08    0.18
  -6  -4   9    7.19    0.19
  -7  -6  11    3.68    0.16
  -2 -11   7   -0.01    0.05
   1   9  -5    1.82    0.10
  -1  -9   5    1.68    0.08
  -1  -9   5    1.81    0.09
   0   7  -3    0.80    0.06
   0  -7   3    0.76    0.05
   0  -7   3    0.79    0.05
  -1   5  -1   17.54    0.26
  -1   5  -1   17.81    0.25
  -1   5  -1   17.92    0.25
   1  -5   1   17.94    0.25
   1  -5   1   17.36    0.25
  -2   3   1   32.36    0.42
  -2   3   1   32.27    0.43
  -2   3   1   32.55    0.43
   2  -3  -1   32.00    0.41
   2  -3  -1   32.30    0.41
  -3   1   3    9.80    0.16
  -3   1   3    9.91    0.16
   3  -1  -3    9.76    0.17
   3  -1  -3    9.66    0.16
  -4  -1   5   40.38    0.55
  -4  -1   5   41.48    0.55
  -4  -1   5   41.78    0.55
  -5  -3   7   11.98    0.23
  -5  -3   7   12.40    0.22
  -6  -5   9    1.37    0.09
  -6  -5   9    1.38    0.09
   2  10  -7    0.49    0.06
  -2 -10   7    0.62    0.07
   1   8  -5    5.23    0.14
  -1  -8   5    5.31    0.13
  -1  -8   5    4.84    0.13
   0   6  -3    2.20    0.07
   0   6  -3    2.14    0.05
   0  -6   3    2.24    0.07
   0  -6   3    2.24    0.07
  -1   4  -1  107.62    1.42
  -1   4  -1  107.33    1.35
  -1   4  -1  108.78    1.38
   1  -4   1  107.82    1.29
   1  -4   1  108.78    1.28
  -2   2   1    9.80    0.15
  -2   2   1   10.15    0.15
  -2   2   1   10.05    0.14
   2  -2  -1   10.22    0.15
   2  -2  -1   10.06    0.15
  -3   0   3    0.68    0.03
  -3   0   3    0.63    0.03
  -3   0   3    0.65    0.02
  -3   0   3    0.71    0.03
   3   0  -3    0.62    0.04
  -4  -2   5    0.63    0.04
  -4  -2   5    0.63    0.03
  -4  -2   5    0.68    0.03
  -4  -2   5    0.61    0.04
   4   2  -5    0.64    0.04
  -5  -4   7    6.99    0.16
  -5  -4   7    6.85    0.16
  -6  -6   9    2.54    0.12
  -3 -11   9    0.12    0.06
   2   9  -7    1.55    0.11
  -2  -9   7    1.41    0.08
  -2  -9   7    1.52    0.09
   1   7  -5   10.36    0.20
  -1  -7   5    9.86    0.18
  -1  -7   5    9.66    0.19
   0   5  -3   34.62    0.47
   0   5  -3   34.68    0.44
   0  -5   3   34.12    0.44
   0  -5   3   33.03    0.44
  -1   3  -1    0.07    0.01
  -1   3  -1    0.05    0.01
  -1   3  -1    0.08    0.01
   1  -3   1    0.04    0.01
   1  -3   1    0.03    0.01
  -2   1   1   20.03    0.26
  -2   1   1   19.47    0.25
  -2   1   1   19.46    0.26
   2  -1  -1   18.67    0.25
  -3  -1   3    0.28    0.02
  -3  -1   3    0.25    0.02
  -3  -1   3    0.28    0.02
  -3  -1   3    0.25    0.02
  -3  -1   3    0.23    0.02
  -4  -3   5    2.72    0.08
  -4  -3   5    2.78    0.07
  -4  -3   5    2.77    0.07
  -4  -3   5    2.79    0.08
  -5  -5   7    2.76    0.10
  -5  -5   7    2.86    0.10
  -6  -7   9    0.07    0.05
  -3 -10   9    2.00    0.12
   2   8  -7   11.47    0.24
  -2  -8   7   11.43    0.23
  -2  -8   7   10.89    0.22
   1   6  -5    2.87    0.09
  -1  -6   5    2.74    0.08
  -1  -6   5    2.72    0.08
   0   4  -3   35.14    0.48
   0   4  -3   35.61    0.45
   0  -4   3   36.04    0.45
   0  -4   3   35.60    0.45
  -1   2  -1  189.99    2.44
  -1   2  -1  189.64    2.42
   1  -2   1  190.86    2.27
  -2   0   1    1.87    0.04
  -2   0   1    1.89    0.04
  -2   0   1    1.89    0.04
  -2   0   1    1.94    0.04
  -3  -2   3   38.54    0.50
  -3  -2   3   39.36    0.50
  -3  -2   3   38.62    0.50
  -3  -2   3   38.21    0.49
  -3  -2   3   39.27    0.51
  -4  -4   5    0.40    0.04
  -4  -4   5    0.35    0.04
  -5  -6   7    1.95    0.09
  -5  -6   7    2.18    0.10
  -6  -8   9    0.04    0.05
   3   9  -9    1.52    0.12
  -3  -9   9    1.41    0.10
   2   7  -7    3.99    0.12
  -2  -7   7    3.79    0.11
  -2  -7   7    3.59    0.11
   1   5  -5    0.09    0.02
  -1  -5   5    0.15    0.02
  -1  -5   5    0.13    0.02
   0   3  -3    3.32    0.07
   0   3  -3    3.54    0.05
   0  -3   3    3.38    0.07
   0  -3   3    3.37    0.06
  -1   1  -1   76.64    1.37
  -1   1  -1   76.51    0.99
   1  -1   1   76.78    0.91
  -2  -1   1   84.05    1.07
  -2  -1   1   84.35    1.02
  -2  -1   1   83.98    1.12
  -2  -1   1   85.50    1.04
  -2  -1   1   82.54    1.09
  -3  -3   3    3.88    0.08
  -3  -3   3    3.86    0.07
  -3  -3   3    3.86    0.09
  -3  -3   3    3.90    0.08
  -3  -3   3    3.72    0.07
  -4  -5   5    0.27    0.03
  -4  -5   5    0.29    0.03
  -5  -7   7    1.93    0.10
  -5  -7   7    1.83    0.10
   3   8  -9    1.78    0.11
  -3  -8   9    1.80    0.10
  -3  -8   9    1.72    0.09
  -2  -6   7    0.33    0.04
  -2  -6   7    0.27    0.04
   1   4  -5   11.67    0.19
  -1  -4   5   11.74    0.18
  -1  -4   5   11.76    0.19
   0   2  -3   28.71    0.38
   0  -2   3   28.82    0.36
   0  -2   3   28.40    0.35
  -1   0  -1    7.67    0.11
  -1   0  -1    7.03    0.09
  -1   0  -1    7.61    0.11
  -2  -2   1    9.98    0.14
  -2  -2   1   10.00    0.15
  -2  -2   1   10.07    0.15
  -2  -2   1   10.01    0.15
  -2  -2   1    9.86    0.14
  -3  -4   3   10.74    0.18
  -3  -4   3   11.08    0.16
  -3  -4   3   10.89    0.16
  -3  -4   3   10.67    0.17
  -3  -4   3   10.53    0.18
  -4  -6   5   10.90    0.21
  -4  -6   5   10.93    0.21
  -5  -8   7    0.82    0.08
  -4  -9  11    0.76    0.08
   3   7  -9    1.99    0.10
  -3  -7   9    2.06    0.09
  -3  -7   9    2.00    0.09
   2   5  -7    5.95    0.13
  -2  -5   7    5.77    0.13
  -2  -5   7    5.77    0.13
   1   3  -5   17.98    0.26
  -1  -3   5   18.20    0.25
  -1  -3   5   18.00    0.26
   0   1  -3   68.04    0.84
   0  -1   3   67.83    0.87
   0  -1   3   66.98    0.84
  -1  -1  -1   36.89    0.47
  -1  -1  -1   36.62    0.44
  -1  -1  -1   36.61    0.48
  -2  -3   1    0.14    0.02
  -2  -3   1    0.16    0.02
  -2  -3   1    0.18    0.02
  -2  -3   1    0.14    0.02
  -2  -3   1    0.10    0.01
  -3  -5   3    0.73    0.05
  -3  -5   3    0.70    0.03
  -3  -5   3    0.81    0.05
  -3  -5   3    0.82    0.05
  -4  -7   5   13.13    0.25
  -4  -7   5   12.54    0.24
   4   7  -5   12.63    0.24
  -5  -9   7    0.08    0.05
  -4  -8  11    1.39    0.09
   3   6  -9    0.22    0.03
  -3  -6   9    0.25    0.04
  -3  -6   9    0.24    0.04
   2   4  -7    0.84    0.06
  -2  -4   7    0.84    0.05
  -2  -4   7    0.79    0.05
   1   2  -5    2.65    0.06
  -1  -2   5    2.73    0.06
  -1  -2   5    2.69    0.06
  -1  -2   5    2.70    0.05
   0   0  -3    0.99    0.03
   0   0  -3    1.05    0.03
   0   0   3    1.01    0.03
  -1  -2  -1    2.06    0.05
  -1  -2  -1    2.07    0.05
  -1  -2  -1    2.14    0.04
  -1  -2  -1    2.10    0.04
   1   2   1    2.08    0.04
  -2  -4   1   37.55    0.49
  -2  -4   1   37.52    0.48
  -2  -4   1   38.25    0.50
  -2  -4   1   37.09    0.49
   2   4  -1   37.56    0.49
  -3  -6   3   10.36    0.19
  -3  -6   3   10.86    0.20
  -3  -6   3   10.66    0.19
  -4  -8   5    1.65    0.09
  -4  -8   5    1.63    0.09
   4   8  -5    1.54    0.09
  -5 -10   7    0.43    0.07
  -4  -7  11    2.42    0.12
   3   5  -9    0.09    0.03
  -3  -5   9    0.10    0.03
  -3  -5   9    0.13    0.03
   2   3  -7    5.08    0.11
  -2  -3   7    5.04    0.11
  -2  -3   7    5.23    0.11
   1   1  -5    2.44    0.06
  -1  -1   5    2.45    0.06
  -1  -1   5    2.73    0.05
  -1  -1   5    2.34    0.05
   0  -1  -3   95.00    1.13
   0  -1  -3   94.32    1.19
   0  -1  -3   93.12    1.24
   0   1   3   96.79    1.24
   0   1   3   95.93    1.26
  -1  -3  -1   34.08    0.46
  -1  -3  -1   35.38    0.44
  -1  -3  -1   35.46    0.44
   1   3   1   35.38    0.45
   1   3   1   34.74    0.46
  -2  -5   1    0.48    0.04
  -2  -5   1    0.46    0.04
  -2  -5   1    0.50    0.04
   2   5  -1    0.47    0.03
   2   5  -1    0.50    0.03
  -3  -7   3    1.26    0.07
  -3  -7   3    1.33    0.07
  -3  -7   3    1.29    0.07
  -4  -9   5    3.17    0.12
  -4  -9   5    3.19    0.13
   4   9  -5    3.39    0.14
  -4  -6  11    0.13    0.03
  -4  -6  11    0.13    0.04
   3   4  -9   10.57    0.20
  -3  -4   9   10.56    0.20
  -3  -4   9   10.69    0.21
   2   2  -7    9.83    0.16
  -2  -2   7    9.61    0.14
  -2  -2   7    9.81    0.17
  -2  -2   7    9.52    0.15
  -2  -2   7    9.82    0.17
   1   0  -5   82.33    1.01
   1   0  -5   82.34    1.02
   1   0  -5   81.34    1.00
  -1   0   5   82.39    1.06
  -1   0   5   82.99    1.08
   0  -2  -3   49.17    0.63
   0  -2  -3   50.02    0.61
   0  -2  -3   48.81    0.60
   0   2   3   50.26    0.63
   0   2   3   49.60    0.64
  -1  -4  -1   12.07    0.18
  -1  -4  -1   11.66    0.18
  -1  -4  -1   11.86    0.18
   1   4   1   11.55    0.17
   1   4   1   11.82    0.18
  -2  -6   1   11.72    0.20
  -2  -6   1   11.49    0.20
  -2  -6   1   11.72    0.20
   2   6  -1   11.85    0.18
   2   6  -1   11.93    0.18
  -3  -8   3    2.48    0.10
  -3  -8   3    2.44    0.10
  -3  -8   3    2.43    0.09
  -4 -10   5    1.01    0.09
  -5  -7  13    2.03    0.13
  -4  -5  11    1.11    0.08
  -4  -5  11    1.07    0.08
  -3  -3   9   42.75    0.59
  -3  -3   9   43.40    0.60
   2   1  -7    5.48    0.13
   2   1  -7    5.29    0.10
  -2  -1   7    5.28    0.11
  -2  -1   7    5.34    0.10
  -2  -1   7    5.31    0.10
   1  -1  -5  117.10    1.42
   1  -1  -5  114.57    1.49
   1  -1  -5  117.25    1.43
  -1   1   5  116.98    1.53
  -1   1   5  114.39    1.54
   0  -3  -3    4.85    0.09
   0  -3  -3    4.75    0.09
   0  -3  -3    4.85    0.09
   0   3   3    4.96    0.09
   0   3   3    4.76    0.09
  -1  -5  -1   17.75    0.26
  -1  -5  -1   17.79    0.26
  -1  -5  -1   17.70    0.26
   1   5   1   17.68    0.26
   1   5   1   17.60    0.26
  -2  -7   1   23.13    0.35
  -2  -7   1   22.77    0.34
  -2  -7   1   22.75    0.35
   2   7  -1   22.96    0.33
  -3  -9   3    3.17    0.12
  -3  -9   3    3.04    0.11
  -4 -11   5   -0.03    0.05
  -5  -6  13    0.55    0.07
  -4  -4  11    3.71    0.13
   3   2  -9   47.03    0.66
  -3  -2   9   47.49    0.65
   2   0  -7    0.67    0.03
   2   0  -7    0.67    0.05
   2   0  -7    0.71    0.05
  -2   0   7    0.65    0.03
  -2   0   7    0.61    0.03
   1  -2  -5   40.93    0.53
   1  -2  -5   40.57    0.54
   1  -2  -5   41.22    0.52
  -1   2   5   41.70    0.54
  -1   2   5   40.07    0.54
   0  -4  -3    1.68    0.05
   0  -4  -3    1.58    0.05
   0  -4  -3    1.64    0.05
   0   4   3    1.64    0.05
   0   4   3    1.69    0.05
  -1  -6  -1   36.77    0.49
  -1  -6  -1   37.49    0.50
  -1  -6  -1   37.13    0.51
   1   6   1   36.98    0.50
   1   6   1   36.42    0.50
  -2  -8   1    5.86    0.15
  -2  -8   1    6.13    0.14
  -2  -8   1    5.80    0.14
  -3 -10   3    0.93    0.09
  -5  -5  13    0.84    0.08
   4   3 -11    2.99    0.13
  -4  -3  11    3.26    0.12
   3   1  -9    2.42    0.10
  -3  -1   9    2.42    0.08
   2  -1  -7    2.33    0.08
   2  -1  -7    2.51    0.09
   2  -1  -7    2.41    0.05
  -2   1   7    2.37    0.07
  -2   1   7    2.60    0.07
   1  -3  -5   10.65    0.18
   1  -3  -5   11.07    0.16
   1  -3  -5   10.85    0.18
  -1   3   5   10.62    0.18
  -1   3   5   11.07    0.18
   0  -5  -3   17.91    0.27
   0  -5  -3   18.14    0.27
   0  -5  -3   18.02    0.26
   0   5   3   18.00    0.27
   0   5   3   17.42    0.27
  -1  -7  -1   18.51    0.29
  -1  -7  -1   17.97    0.29
  -1  -7  -1   18.48    0.29
   1   7   1   18.34    0.28
   1   7   1   18.96    0.28
  -2  -9   1    0.05    0.02
  -2  -9   1    0.06    0.03
  -2  -9   1    0.04    0.04
  -3 -11   3    0.10    0.05
  -5  -4  13    0.81    0.08
   4   2 -11    5.32    0.17
   3   0  -9   12.65    0.25
   3   0  -9   12.52    0.24
  -3   0   9   12.48    0.21
  -3   0   9   12.48    0.21
   2  -2  -7   46.56    0.62
   2  -2  -7   45.99    0.63
  -2   2   7   46.33    0.62
  -2   2   7   47.41    0.63
   1  -4  -5    4.97    0.09
   1  -4  -5    5.02    0.11
   1  -4  -5    4.92    0.11
  -1   4   5    5.08    0.11
  -1   4   5    4.91    0.11
   0  -6  -3    2.89    0.09
   0  -6  -3    2.95    0.09
   0  -6  -3    2.85    0.08
   0   6   3    2.91    0.08
   0   6   3    2.93    0.08
  -1  -8  -1   13.96    0.24
  -1  -8  -1   14.08    0.25
  -1  -8  -1   13.94    0.25
   1   8   1   13.81    0.23
   1   8   1   14.05    0.23
  -2 -10   1    0.02    0.03
  -2 -10   1    0.02    0.04
  -3 -12   3    1.31    0.11
   5   3 -13    0.07    0.06
   4   1 -11   12.87    0.28
   4   1 -11   12.34    0.27
   3  -1  -9    3.33    0.12
   3  -1  -9    3.51    0.12
  -3   1   9    3.47    0.09
  -3   1   9    3.37    0.09
   2  -3  -7    9.93    0.19
   2  -3  -7   10.35    0.19
  -2   3   7   10.14    0.18
  -2   3   7    9.83    0.18
   1  -5  -5   13.34    0.23
   1  -5  -5   13.49    0.21
   1  -5  -5   13.50    0.23
  -1   5   5   13.77    0.23
  -1   5   5   13.65    0.23
   0  -7  -3    1.89    0.08
   0  -7  -3    1.93    0.08
   0  -7  -3    1.96    0.07
   0   7   3    1.94    0.07
   0   7   3    1.92    0.07
  -1  -9  -1    2.06    0.09
  -1  -9  -1    2.04    0.09
  -1  -9  -1    2.05    0.10
  -2 -11   1    0.23    0.06
   5   2 -13    1.86    0.12
   4   0 -11    2.13    0.11
   4   0 -11    2.01    0.11
   3  -2  -9   12.68    0.25
   3  -2  -9   12.66    0.24
  -3   2   9   12.36    0.22
  -3   2   9   12.56    0.22
   2  -4  -7   11.46    0.22
   2  -4  -7   11.24    0.21
  -2   4   7   11.50    0.21
  -2   4   7   11.50    0.21
   1  -6  -5   22.08    0.34
   1  -6  -5   21.59    0.32
   1  -6  -5   22.02    0.34
  -1   6   5   21.28    0.34
  -1   6   5   21.30    0.34
   0  -8  -3    4.73    0.13
   0  -8  -3    4.86    0.13
   0  -8  -3    4.87    0.12
   0   8   3    5.00    0.13
   0   8   3    4.81    0.12
  -1 -10  -1    0.23    0.04
  -1 -10  -1    0.20    0.04
  -1 -10  -1    0.16    0.03
  -2 -12   1    0.02    0.05
   5   1 -13    0.59    0.08
   4  -1 -11    0.44    0.06
   4  -1 -11    0.43    0.05
  -4   1  11    0.49    0.05
  -4   1  11    0.30    0.03
   3  -3  -9   19.17    0.33
   3  -3  -9   18.93    0.33
  -3   3   9   18.99    0.31
  -3   3   9   19.12    0.31
   2  -5  -7    3.11    0.11
   2  -5  -7    3.19    0.11
  -2   5   7    3.27    0.10
  -2   5   7    3.07    0.10
   1  -7  -5   13.39    0.22
   1  -7  -5   13.19    0.24
   1  -7  -5   13.21    0.25
  -1   7   5   13.17    0.24
  -1   7   5   12.91    0.24
   0  -9  -3    0.33    0.05
   0  -9  -3    0.25    0.03
   0  -9  -3    0.32    0.05
   0   9   3    0.34    0.04
   0   9   3    0.25    0.03
  -1 -11  -1    0.18    0.05
   5   0 -13   -0.02    0.05
   4  -2 -11    6.02    0.18
   4  -2 -11    6.12    0.18
  -4   2  11    5.88    0.15
  -4   2  11    6.07    0.15
   3  -4  -9   11.51    0.24
   3  -4  -9   11.15    0.24
  -3   4   9   11.64    0.22
  -3   4   9   11.64    0.22
   2  -6  -7    0.71    0.06
   2  -6  -7    0.73    0.07
  -2   6   7    0.74    0.06
  -2   6   7    0.79    0.06
   1  -8  -5    0.10    0.03
   1  -8  -5    0.12    0.02
   1  -8  -5    0.12    0.04
  -1   8   5    0.14    0.04
  -1   8   5    0.09    0.03
   0 -10  -3    0.56    0.06
   0 -10  -3    0.65    0.07
   0 -10  -3    0.78    0.08
   0  10   3    0.75    0.07
   0  10   3    0.67    0.07
  -1 -12  -1    0.13    0.06
   5  -1 -13    0.16    0.06
   4  -3 -11    1.83    0.10
   4  -3 -11    1.99    0.10
  -4   3  11    1.99    0.09
  -4   3  11    1.92    0.09
   3  -5  -9    0.20    0.04
   3  -5  -9    0.20    0.04
  -3   5   9    0.15    0.03
  -3   5   9    0.18    0.04
   2  -7  -7    1.00    0.08
   2  -7  -7    0.96    0.08
  -2   7   7    0.93    0.07
  -2   7   7    1.00    0.08
   1  -9  -5    0.87    0.07
   1  -9  -5    0.93    0.08
  -1   9   5    0.85    0.08
  -1   9   5    0.87    0.08
   0 -11  -3    1.32    0.10
   5  -2 -13    2.83    0.14
   4  -4 -11    0.02    0.04
   4  -4 -11   -0.01    0.03
  -4   4  11    0.00    0.03
  -4   4  11    0.04    0.04
   3  -6  -9    0.51    0.06
   3  -6  -9    0.48    0.05
  -3   6   9    0.36    0.04
  -3   6   9    0.68    0.07
   2  -8  -7    0.18    0.05
   2  -8  -7    0.18    0.04
  -2   8   7    0.15    0.03
  -2   8   7    0.21    0.04
   1 -10  -5    0.91    0.09
  -1  10   5    0.90    0.08
   0 -12  -3    0.20    0.06
   5  -3 -13    5.55    0.19
  -5   3  13    5.42    0.16
   4  -5 -11    0.33    0.06
  -4   5  11    0.28    0.05
   3  -7  -9    0.05    0.05
  -3   7   9    0.05    0.04
   2  -9  -7    0.11    0.05
  -2   9   7    0.09    0.04
   1 -11  -5    0.25    0.06
  -1  11   5    0.17    0.05
   5  -4 -13    0.12    0.06
  -5   4  13    0.07    0.04
   4  -6 -11    0.38    0.06
  -4   6  11    0.31    0.05
   3  -8  -9    0.04    0.04
  -3   8   9   -0.01    0.04
   2 -10  -7    0.50    0.07
  -2  10   7    0.40    0.06
   5  -5 -13    1.95    0.14
  -5   5  13    1.86    0.11
   4  -7 -11    1.49    0.12
  -4   7  11    1.55    0.11
   3  -9  -9    0.03    0.05
  -3   9   9    0.04    0.05
  -2  11   7    0.42    0.07
   6  -9  -8    0.28    0.07
  -4  12   4    0.13    0.05
  -5  10   6    0.05    0.05
   5 -10  -6   -0.05    0.05
  -6   8   8    4.18    0.16
   6  -8  -8    4.00    0.16
  -7   6  10   -0.04    0.04
   7  -6 -10    0.00    0.05
  -4  11   4    1.11    0.10
   4 -11  -4    0.90    0.09
  -5   9   6    0.40    0.06
   5  -9  -6    0.47    0.07
  -6   7   8    0.86    0.09
   6  -7  -8    0.75    0.08
  -7   5  10    1.84    0.11
   7  -5 -10    1.86    0.12
   3 -12  -2    0.55    0.08
  -4  10   4    0.89    0.09
   4 -10  -4    0.82    0.08
  -5   8   6    0.84    0.08
   5  -8  -6    0.89    0.09
   5  -8  -6    0.69    0.07
  -6   6   8    0.11    0.04
   6  -6  -8    0.17    0.05
  -7   4  10    0.77    0.08
   7  -4 -10    0.77    0.09
   2 -13   0    0.72    0.08
   3 -11  -2    0.48    0.07
  -4   9   4    2.52    0.11
  -4   9   4    2.50    0.10
   4  -9  -4    2.55    0.12
   4  -9  -4    2.47    0.11
  -5   7   6    0.05    0.03
  -5   7   6    0.01    0.03
   5  -7  -6    0.00    0.03
   5  -7  -6    0.03    0.04
  -6   5   8    1.32    0.09
  -6   5   8    1.30    0.09
   6  -5  -8    1.29    0.09
   6  -5  -8    1.39    0.10
  -7   3  10    2.88    0.12
   7  -3 -10    3.02    0.14
   2 -12   0    0.71    0.08
  -3  10   2    0.01    0.03
  -3  10   2    0.03    0.03
   3 -10  -2    0.08    0.04
   3 -10  -2    0.04    0.04
  -4   8   4    1.74    0.09
  -4   8   4    1.72    0.09
   4  -8  -4    1.68    0.09
   4  -8  -4    1.79    0.09
  -5   6   6    0.69    0.06
  -5   6   6    0.70    0.07
   5  -6  -6    0.88    0.07
   5  -6  -6    0.73    0.07
  -6   4   8    2.90    0.11
  -6   4   8    2.91    0.11
   6  -4  -8    3.12    0.13
   6  -4  -8    3.02    0.12
  -7   2  10    2.66    0.13
  -7   2  10    2.81    0.12
   7  -2 -10    2.73    0.14
   8   0 -12    0.67    0.10
   1 -13   2    0.72    0.08
   2 -11   0    0.13    0.05
   2 -11   0    0.16    0.04
  -3   9   2    0.07    0.03
  -3   9   2    0.07    0.03
   3  -9  -2    0.10    0.04
   3  -9  -2    0.10    0.04
  -4   7   4    1.10    0.07
  -4   7   4    1.06    0.07
   4  -7  -4    1.22    0.08
   4  -7  -4    1.08    0.07
  -5   5   6    1.67    0.08
  -5   5   6    1.52    0.08
   5  -5  -6    1.57    0.08
   5  -5  -6    1.67    0.09
  -6   3   8    5.37    0.14
  -6   3   8    5.37    0.15
   6  -3  -8    5.20    0.16
   6  -3  -8    5.17    0.16
   7  -1 -10    1.12    0.10
   8   1 -12    1.90    0.14
   1 -12   2    0.10    0.05
  -2  10   0    0.08    0.03
   2 -10   0    0.12    0.04
   2 -10   0    0.11    0.04
  -3   8   2    1.12    0.06
  -3   8   2    1.21    0.07
   3  -8  -2    1.07    0.07
   3  -8  -2    1.05    0.07
  -4   6   4    0.03    0.02
  -4   6   4    0.00    0.02
   4  -6  -4    0.06    0.03
   4  -6  -4    0.03    0.03
  -5   4   6   13.00    0.24
  -5   4   6   13.11    0.24
   5  -4  -6   13.20    0.25
   5  -4  -6   12.71    0.25
  -6   2   8    4.86    0.13
  -6   2   8    5.00    0.13
   6  -2  -8    5.13    0.16
   6  -2  -8    5.16    0.16
   7   0 -10    0.14    0.06
   0 -13   4    0.26    0.07
  -1  11  -2    0.55    0.06
   1 -11   2    0.97    0.08
   1 -11   2    0.87    0.08
  -2   9   0    2.72    0.11
  -2   9   0    2.62    0.09
  -2   9   0    2.58    0.09
   2  -9   0    2.67    0.10
   2  -9   0    2.53    0.10
  -3   7   2    8.10    0.16
  -3   7   2    8.25    0.16
   3  -7  -2    8.21    0.17
   3  -7  -2    8.21    0.17
  -4   5   4    1.95    0.08
  -4   5   4    1.89    0.08
   4  -5  -4    2.01    0.08
   4  -5  -4    2.02    0.08
   5  -3  -6    0.61    0.06
   5  -3  -6    0.48    0.05
  -6   1   8    0.74    0.06
  -6   1   8    0.76    0.06
   6  -1  -8    0.76    0.08
   6  -1  -8    0.76    0.08
   7   1 -10    0.06    0.05
   0 -12   4    0.01    0.05
  -1  10  -2    2.17    0.11
   1 -10   2    2.24    0.10
   1 -10   2    2.25    0.10
  -2   8   0    2.67    0.09
  -2   8   0    2.63    0.08
  -2   8   0    2.65    0.08
   2  -8   0    2.55    0.09
   2  -8   0    2.55    0.09
  -3   6   2    1.84    0.07
  -3   6   2    1.89    0.06
  -3   6   2    1.83    0.07
   3  -6  -2    1.84    0.07
   3  -6  -2    1.87    0.07
  -4   4   4    1.93    0.07
  -4   4   4    1.92    0.07
   4  -4  -4    1.87    0.07
   4  -4  -4    1.90    0.07
  -5   2   6    5.92    0.14
  -5   2   6    5.92    0.14
   5  -2  -6    6.13    0.15
   5  -2  -6    5.99    0.15
  -6   0   8    0.08    0.02
  -6   0   8    0.13    0.03
   6   0  -8    0.09    0.04
   6   0  -8    0.09    0.04
   7   2 -10    0.44    0.08
   0  11  -4    0.33    0.05
   0 -11   4    0.39    0.05
   0 -11   4    0.45    0.06
  -1   9  -2    0.41    0.04
   1  -9   2    0.65    0.06
   1  -9   2    0.60    0.06
  -2   7   0    6.93    0.13
  -2   7   0    6.79    0.13
  -2   7   0    6.71    0.14
   2  -7   0    6.59    0.14
   2  -7   0    6.90    0.14
  -3   5   2    0.03    0.01
  -3   5   2    0.01    0.01
  -3   5   2    0.03    0.02
   3  -5  -2    0.02    0.02
   3  -5  -2    0.01    0.02
  -4   3   4    5.59    0.12
  -4   3   4    5.48    0.12
   4  -3  -4    5.46    0.12
   4  -3  -4    5.48    0.13
  -5   1   6    0.88    0.05
   5  -1  -6    0.87    0.07
   5  -1  -6    1.03    0.07
   6   1  -8    5.49    0.17
  -7  -3  10    2.12    0.12
  -1 -12   6    0.11    0.06
   0  10  -4    1.90    0.10
   0 -10   4    1.74    0.09
   0 -10   4    2.02    0.10
  -1   8  -2    3.61    0.11
   1  -8   2    3.73    0.10
   1  -8   2    3.62    0.10
  -2   6   0    8.44    0.15
  -2   6   0    8.25    0.15
  -2   6   0    8.45    0.15
   2  -6   0    8.49    0.15
   2  -6   0    8.27    0.15
  -3   4   2    0.81    0.04
  -3   4   2    0.76    0.04
  -3   4   2    0.80    0.03
   3  -4  -2    0.78    0.04
   3  -4  -2    0.70    0.04
  -4   2   4   26.00    0.38
  -4   2   4   26.67    0.37
   4  -2  -4   25.85    0.37
   4  -2  -4   25.48    0.38
  -5   0   6    4.29    0.10
  -5   0   6    4.29    0.10
   5   0  -6    4.31    0.13
   5   0  -6    4.08    0.13
  -6  -2   8    4.64    0.14
   6   2  -8    4.66    0.16
  -7  -4  10    5.95    0.18
  -1 -11   6    0.07    0.05
   0   9  -4    3.30    0.12
   0  -9   4    3.15    0.10
   0  -9   4    3.18    0.11
  -1   7  -2    4.14    0.11
  -1   7  -2    4.28    0.09
  -1   7  -2    4.22    0.09
   1  -7   2    4.26    0.11
   1  -7   2    4.28    0.10
  -2   5   0   35.09    0.47
  -2   5   0   35.16    0.47
  -2   5   0   35.09    0.47
   2  -5   0   35.30    0.46
   2  -5   0   35.14    0.45
  -3   3   2    2.35    0.06
  -3   3   2    2.24    0.05
  -3   3   2    2.29    0.06
   3  -3  -2    2.18    0.06
   3  -3  -2    2.28    0.06
  -4   1   4   34.55    0.48
  -4   1   4   35.14    0.47
   4  -1  -4   34.90    0.47
   4  -1  -4   33.86    0.48
  -5  -1   6   22.70    0.35
  -5  -1   6   22.23    0.33
  -5  -1   6   22.14    0.33
   5   1  -6   22.81    0.36
  -6  -3   8    2.27    0.10
  -7  -5  10    1.06    0.10
  -2 -12   8    0.11    0.06
   1  10  -6    4.34    0.16
  -1 -10   6    4.49    0.14
  -1 -10   6    4.33    0.14
   0   8  -4    0.06    0.03
   0  -8   4    0.08    0.03
   0  -8   4    0.04    0.03
  -1   6  -2    2.29    0.06
  -1   6  -2    2.34    0.08
  -1   6  -2    2.34    0.06
   1  -6   2    2.33    0.07
   1  -6   2    2.34    0.07
  -2   4   0   15.13    0.22
  -2   4   0   15.28    0.22
  -2   4   0   15.51    0.22
   2  -4   0   15.17    0.22
   2  -4   0   15.36    0.22
  -3   2   2   34.66    0.42
  -3   2   2   33.77    0.46
  -3   2   2   34.12    0.45
   3  -2  -2   32.89    0.43
   3  -2  -2   33.67    0.44
  -4   0   4   23.13    0.33
  -4   0   4   22.87    0.33
  -4   0   4   22.83    0.33
   4   0  -4   23.29    0.34
  -5  -2   6    5.48    0.12
  -5  -2   6    5.60    0.13
  -5  -2   6    5.45    0.13
  -5  -2   6    5.45    0.11
  -6  -4   8    9.75    0.21
  -6  -4   8    9.63    0.22
  -7  -6  10    0.24    0.06
  -2 -11   8    0.06    0.05
   1   9  -6    4.74    0.15
  -1  -9   6    4.85    0.14
  -1  -9   6    4.42    0.13
   0   7  -4    6.75    0.15
   0  -7   4    6.74    0.14
   0  -7   4    6.89    0.14
  -1   5  -2    9.80    0.15
  -1   5  -2   10.01    0.15
  -1   5  -2    9.96    0.17
   1  -5   2    9.90    0.16
   1  -5   2   10.19    0.16
  -2   3   0    2.61    0.06
  -2   3   0    2.65    0.06
  -2   3   0    2.56    0.06
   2  -3   0    2.46    0.05
   2  -3   0    2.56    0.06
  -3   1   2    0.66    0.03
  -3   1   2    0.72    0.02
  -3   1   2    0.64    0.03
   3  -1  -2    0.65    0.03
   3  -1  -2    0.64    0.03
  -4  -1   4   17.62    0.26
  -4  -1   4   17.80    0.26
  -4  -1   4   17.91    0.26
  -4  -1   4   17.65    0.26
  -4  -1   4   17.94    0.24
  -5  -3   6    0.89    0.06
  -5  -3   6    0.83    0.06
  -6  -5   8    2.22    0.11
  -6  -5   8    2.08    0.10
  -2 -10   8    1.55    0.10
   1   8  -6    3.13    0.11
  -1  -8   6    3.31    0.11
  -1  -8   6    3.30    0.11
   0   6  -4    6.47    0.14
   0  -6   4    6.31    0.12
   0  -6   4    6.37    0.13
  -1   4  -2   35.11    0.45
  -1   4  -2   34.99    0.47
  -1   4  -2   34.87    0.45
   1  -4   2   34.29    0.44
   1  -4   2   35.16    0.44
  -2   2   0    0.37    0.02
  -2   2   0    0.38    0.02
  -2   2   0    0.39    0.02
   2  -2   0    0.40    0.02
  -3   0   2  133.78    1.70
  -3   0   2  132.78    1.76
  -3   0   2  129.84    1.67
  -3   0   2  131.87    1.74
  -4  -2   4    8.03    0.13
  -4  -2   4    8.14    0.14
  -4  -2   4    7.96    0.14
  -4  -2   4    8.09    0.15
  -4  -2   4    8.06    0.15
  -5  -4   6    0.71    0.06
  -5  -4   6    0.68    0.06
  -6  -6   8    0.05    0.04
  -3 -11  10    0.04    0.05
   2   9  -8   10.24    0.24
  -2  -9   8   10.32    0.22
  -2  -9   8   10.21    0.22
   1   7  -6    8.21    0.18
  -1  -7   6    8.14    0.17
  -1  -7   6    8.19    0.16
   0   5  -4    0.04    0.02
   0   5  -4    0.03    0.00
   0  -5   4    0.02    0.02
   0  -5   4    0.02    0.01
  -1   3  -2  129.28    1.71
  -1   3  -2  133.17    1.68
   1  -3   2  132.82    1.61
   1  -3   2  130.17    1.58
  -2   1   0   31.89    0.41
  -2   1   0   31.34    0.41
  -2   1   0   31.60    0.41
   2  -1   0   32.00    0.38
  -3  -1   2  293.23    3.76
  -3  -1   2  292.76    3.69
  -3  -1   2  293.30    3.65
  -3  -1   2  294.72    3.57
  -3  -1   2  294.94    3.80
  -4  -3   4    0.19    0.02
  -4  -3   4    0.27    0.03
  -4  -3   4    0.17    0.02
  -4  -3   4    0.29    0.03
  -4  -3   4    0.20    0.03
  -5  -5   6    0.11    0.03
  -5  -5   6    0.13    0.03
  -6  -7   8    0.66    0.07
  -3 -10  10    0.49    0.07
   2   8  -8    2.80    0.12
  -2  -8   8    2.77    0.11
  -2  -8   8    2.65    0.10
   1   6  -6    2.89    0.10
  -1  -6   6    2.96    0.09
  -1  -6   6    2.96    0.09
   0   4  -4   67.08    0.86
   0  -4   4   66.19    0.81
   0  -4   4   66.82    0.82
  -1   2  -2 1000.00   12.89
  -1   2  -2  952.07   14.13
   1  -2   2  978.03   12.28
  -2   0   0   13.05    0.18
  -2   0   0   12.91    0.18
  -2   0   0   12.85    0.18
  -2   0   0   12.86    0.16
  -3  -2   2   47.68    0.61
  -3  -2   2   47.78    0.62
  -3  -2   2   48.05    0.59
  -3  -2   2   47.74    0.60
  -4  -4   4    3.99    0.10
  -4  -4   4    4.08    0.10
  -4  -4   4    4.00    0.09
  -4  -4   4    4.04    0.09
  -5  -6   6    3.59    0.12
  -5  -6   6    3.39    0.11
   5   6  -6    3.50    0.11
  -6  -8   8    1.30    0.10
  -3  -9  10    0.27    0.06
   2   7  -8    1.53    0.09
  -2  -7   8    1.45    0.08
  -2  -7   8    1.39    0.08
   1   5  -6   25.21    0.37
  -1  -5   6   25.01    0.35
  -1  -5   6   24.89    0.35
   0   3  -4   64.26    0.82
   0  -3   4   63.36    0.77
   0  -3   4   64.29    0.78
  -1   1  -2  306.81    3.89
  -1   1  -2  301.14    4.70
   1  -1   2  313.20    3.74
  -2  -1   0    1.05    0.03
  -2  -1   0    1.08    0.03
  -2  -1   0    1.07    0.03
  -2  -1   0    1.01    0.03
  -3  -3   2    0.44    0.03
  -3  -3   2    0.41    0.03
  -3  -3   2    0.41    0.03
  -3  -3   2    0.41    0.03
  -3  -3   2    0.43    0.02
  -4  -5   4   18.88    0.29
  -4  -5   4   18.96    0.30
  -4  -5   4   18.81    0.29
  -5  -7   6    3.16    0.12
  -5  -7   6    3.19    0.12
   5   7  -6    3.30    0.12
  -6  -9   8    0.20    0.06
   3   8 -10    1.02    0.09
  -3  -8  10    0.96    0.08
  -3  -8  10    0.95    0.08
   2   6  -8    2.69    0.10
  -2  -6   8    2.60    0.09
  -2  -6   8    2.50    0.09
   1   4  -6   55.58    0.73
  -1  -4   6   56.04    0.70
  -1  -4   6   54.98    0.69
   0   2  -4    5.84    0.11
   0  -2   4    6.42    0.10
   0  -2   4    6.08    0.08
   0  -2   4    6.41    0.10
  -1   0  -2  153.61    1.97
  -1   0  -2  152.20    1.98
  -1   0  -2  154.35    1.82
  -2  -2   0   75.72    0.96
  -2  -2   0   74.66    0.90
  -2  -2   0   74.43    0.97
  -2  -2   0   75.61    0.94
  -2  -2   0   75.55    0.90
  -3  -4   2    0.16    0.02
  -3  -4   2    0.11    0.02
  -3  -4   2    0.03    0.01
  -3  -4   2    0.05    0.01
  -3  -4   2    0.06    0.01
  -4  -6   4   12.03    0.22
  -4  -6   4   11.99    0.21
  -4  -6   4   11.63    0.21
  -5  -8   6    0.67    0.07
   5   8  -6    0.55    0.05
  -4  -9  12    1.08    0.10
   3   7 -10    0.19    0.04
  -3  -7  10    0.34    0.05
  -3  -7  10    0.27    0.04
   2   5  -8    1.43    0.07
  -2  -5   8    1.49    0.07
  -2  -5   8    1.50    0.07
   1   3  -6    0.94    0.05
  -1  -3   6    0.91    0.02
  -1  -3   6    0.87    0.04
  -1  -3   6    0.88    0.04
   0   1  -4   34.12    0.45
   0  -1   4   33.71    0.42
   0  -1   4   34.69    0.43
   0  -1   4   34.25    0.43
  -1  -1  -2    0.46    0.02
  -1  -1  -2    0.44    0.02
  -1  -1  -2    0.44    0.02
  -1  -1  -2    0.47    0.02
  -2  -3   0   14.55    0.21
  -2  -3   0   14.81    0.21
  -2  -3   0   15.05    0.21
  -2  -3   0   14.78    0.22
  -2  -3   0   14.75    0.21
  -3  -5   2    0.63    0.04
  -3  -5   2    0.62    0.03
  -3  -5   2    0.61    0.04
  -3  -5   2    0.67    0.04
  -4  -7   4    2.03    0.09
  -4  -7   4    1.90    0.08
  -4  -7   4    1.95    0.09
  -5  -9   6    1.30    0.10
  -4  -8  12    1.97    0.12
   3   6 -10    1.72    0.09
  -3  -6  10    1.76    0.09
  -3  -6  10    1.65    0.09
   2   4  -8    8.79    0.17
  -2  -4   8    8.71    0.17
  -2  -4   8    8.92    0.17
   1   2  -6   12.21    0.19
  -1  -2   6   12.01    0.17
  -1  -2   6   12.09    0.19
  -1  -2   6   12.12    0.18
   0   0  -4    2.17    0.05
   0   0  -4    2.18    0.05
   0   0  -4    2.15    0.05
   0   0   4    2.28    0.05
   0   0   4    2.27    0.05
  -1  -2  -2    0.87    0.03
  -1  -2  -2    0.90    0.03
  -1  -2  -2    0.83    0.03
  -1  -2  -2    0.82    0.03
   1   2   2    0.85    0.03
  -2  -4   0    0.50    0.03
  -2  -4   0    0.48    0.03
  -2  -4   0    0.50    0.03
  -2  -4   0    0.50    0.03
   2   4   0    0.55    0.03
  -3  -6   2   11.88    0.21
  -3  -6   2   11.76    0.21
  -3  -6   2   11.92    0.21
   3   6  -2   11.80    0.19
  -4  -8   4    3.90    0.13
  -4  -8   4    4.03    0.13
  -5 -10   6    1.72    0.12
  -4  -7  12    1.20    0.10
  -3  -5  10    4.75    0.13
  -3  -5  10    4.59    0.13
   2   3  -8   34.30    0.48
  -2  -3   8   34.68    0.48
  -2  -3   8   34.53    0.47
   1   1  -6    2.02    0.07
   1   1  -6    2.08    0.06
  -1  -1   6    1.85    0.06
  -1  -1   6    2.03    0.05
  -1  -1   6    1.99    0.05
   0  -1  -4    0.83    0.03
   0  -1  -4    0.89    0.03
   0  -1  -4    0.87    0.03
   0   1   4    0.82    0.03
   0   1   4    0.86    0.03
  -1  -3  -2   10.95    0.16
  -1  -3  -2   11.01    0.16
  -1  -3  -2   11.03    0.17
   1   3   2   10.75    0.16
   1   3   2   10.71    0.16
  -2  -5   0    1.95    0.06
  -2  -5   0    1.87    0.06
  -2  -5   0    1.92    0.06
   2   5   0    1.84    0.05
   2   5   0    1.83    0.05
  -3  -7   2   24.17    0.37
  -3  -7   2   23.75    0.36
  -3  -7   2   23.50    0.36
  -4  -9   4    0.06    0.04
  -4  -9   4    0.07    0.04
   4   9  -4    0.04    0.03
  -4  -6  12    0.52    0.07
  -3  -4  10    3.87    0.12
  -3  -4  10    4.08    0.12
   2   2  -8    1.32    0.05
   2   2  -8    1.29    0.07
  -2  -2   8    1.29    0.06
   1   0  -6    8.09    0.15
   1   0  -6    8.01    0.15
   1   0  -6    8.27    0.13
  -1   0   6    8.23    0.13
  -1   0   6    8.26    0.13
   0  -2  -4   53.23    0.67
   0  -2  -4   54.68    0.68
   0  -2  -4   53.79    0.69
   0   2   4   55.02    0.70
   0   2   4   54.97    0.70
  -1  -4  -2   70.53    0.90
  -1  -4  -2   69.46    0.87
  -1  -4  -2   70.81    0.86
   1   4   2   71.17    0.90
   1   4   2   70.53    0.90
  -2  -6   0    5.48    0.12
  -2  -6   0    5.52    0.12
  -2  -6   0    5.62    0.12
   2   6   0    5.24    0.11
   2   6   0    5.45    0.11
  -3  -8   2    0.68    0.06
  -3  -8   2    0.41    0.04
  -3  -8   2    0.57    0.06
  -4 -10   4    0.27    0.06
  -4  -5  12    0.07    0.04
   3   3 -10    0.98    0.08
  -3  -3  10    1.04    0.07
   2   1  -8    1.33    0.07
   2   1  -8    1.42    0.05
  -2  -1   8    1.34    0.06
  -2  -1   8    1.27    0.04
  -2  -1   8    1.28    0.05
   1  -1  -6    4.81    0.11
   1  -1  -6    4.87    0.09
   1  -1  -6    4.66    0.11
  -1   1   6    4.78    0.09
  -1   1   6    4.81    0.09
   0  -3  -4   27.12    0.36
   0  -3  -4   26.30    0.36
   0  -3  -4   26.64    0.36
   0   3   4   26.51    0.37
   0   3   4   27.45    0.37
  -1  -5  -2    4.25    0.10
  -1  -5  -2    4.10    0.09
  -1  -5  -2    4.16    0.10
   1   5   2    4.13    0.09
   1   5   2    4.29    0.09
  -2  -7   0    5.69    0.13
  -2  -7   0    5.58    0.14
  -2  -7   0    5.59    0.13
   2   7   0    5.47    0.12
   2   7   0    5.61    0.12
  -3  -9   2    2.52    0.10
  -3  -9   2    2.50    0.10
  -3  -9   2    2.40    0.10
  -4 -11   4    1.09    0.10
  -5  -6  14    0.00    0.04
   4   4 -12    1.08    0.10
  -4  -4  12    1.19    0.09
   3   2 -10    5.24    0.16
  -3  -2  10    5.44    0.14
   2   0  -8    1.19    0.07
   2   0  -8    1.04    0.04
   2   0  -8    1.07    0.06
  -2   0   8    1.10    0.05
  -2   0   8    1.14    0.05
   1  -2  -6   18.99    0.28
   1  -2  -6   19.01    0.29
   1  -2  -6   18.89    0.26
  -1   2   6   18.86    0.28
  -1   2   6   19.14    0.28
   0  -4  -4    0.75    0.04
   0  -4  -4    0.76    0.04
   0  -4  -4    0.77    0.04
   0   4   4    0.80    0.04
   0   4   4    0.77    0.04
  -1  -6  -2   11.47    0.20
  -1  -6  -2   11.31    0.20
  -1  -6  -2   11.37    0.20
   1   6   2   11.95    0.20
   1   6   2   11.66    0.19
  -2  -8   0    2.36    0.09
  -2  -8   0    2.31    0.09
  -2  -8   0    2.25    0.09
  -3 -10   2    2.28    0.11
  -5  -5  14    0.20    0.06
   4   3 -12    2.22    0.12
  -4  -3  12    2.17    0.11
   3   1 -10    0.24    0.04
   3   1 -10    0.20    0.04
   2  -1  -8    2.29    0.09
   2  -1  -8    2.24    0.08
  -2   1   8    2.28    0.07
  -2   1   8    2.36    0.07
   1  -3  -6   52.52    0.67
   1  -3  -6   52.96    0.68
   1  -3  -6   53.11    0.67
  -1   3   6   50.89    0.69
  -1   3   6   51.83    0.70
   0  -5  -4    0.02    0.02
   0  -5  -4    0.01    0.01
   0  -5  -4    0.00    0.02
   0   5   4    0.03    0.02
   0   5   4    0.04    0.02
  -1  -7  -2   13.08    0.23
  -1  -7  -2   13.06    0.23
  -1  -7  -2   12.53    0.22
   1   7   2   13.02    0.22
   1   7   2   12.88    0.22
  -2  -9   0    0.23    0.04
  -2  -9   0    0.12    0.03
  -2  -9   0    0.23    0.05
  -3 -11   2    2.66    0.13
   4   2 -12    3.75    0.15
   4   2 -12    3.55    0.15
   3   0 -10    2.90    0.12
   3   0 -10    2.79    0.11
  -3   0  10    2.65    0.08
  -3   0  10    2.81    0.08
   2  -2  -8   22.00    0.34
   2  -2  -8   21.87    0.35
  -2   2   8   21.83    0.33
  -2   2   8   21.27    0.33
   1  -4  -6    5.00    0.10
   1  -4  -6    4.77    0.12
   1  -4  -6    4.78    0.12
  -1   4   6    5.42    0.12
  -1   4   6    5.05    0.11
   0  -6  -4    3.25    0.10
   0  -6  -4    3.24    0.09
   0  -6  -4    3.06    0.10
   0   6   4    3.22    0.09
   0   6   4    3.15    0.09
  -1  -8  -2    3.78    0.12
  -1  -8  -2    3.69    0.11
  -1  -8  -2    3.76    0.12
   1   8   2    3.68    0.11
   1   8   2    3.76    0.11
  -2 -10   0    0.23    0.05
  -2 -10   0    0.15    0.04
  -2 -10   0    0.17    0.03
  -3 -12   2    2.00    0.13
   5   3 -14    0.25    0.08
   4   1 -12    4.60    0.16
   4   1 -12    4.63    0.16
   3  -1 -10    5.31    0.15
   3  -1 -10    5.24    0.15
  -3   1  10    5.25    0.13
  -3   1  10    5.13    0.12
   2  -3  -8   11.46    0.22
   2  -3  -8   11.23    0.22
  -2   3   8   11.82    0.21
  -2   3   8   11.78    0.21
   1  -5  -6    0.03    0.02
   1  -5  -6    0.03    0.03
   1  -5  -6    0.05    0.02
  -1   5   6    0.08    0.02
  -1   5   6    0.07    0.03
   0  -7  -4    2.46    0.09
   0  -7  -4    2.55    0.09
   0  -7  -4    2.44    0.08
   0   7   4    2.33    0.09
   0   7   4    2.33    0.09
  -1  -9  -2    0.19    0.04
  -1  -9  -2    0.12    0.03
  -1  -9  -2    0.20    0.04
   1   9   2    0.14    0.04
   1   9   2    0.14    0.03
  -2 -11   0    0.55    0.07
   5   2 -14    2.69    0.15
   4   0 -12    3.41    0.14
   4   0 -12    3.69    0.15
   3  -2 -10    1.23    0.08
   3  -2 -10    1.20    0.08
  -3   2  10    1.31    0.07
  -3   2  10    1.35    0.07
   2  -4  -8    7.46    0.17
   2  -4  -8    7.37    0.17
  -2   4   8    7.63    0.16
  -2   4   8    7.73    0.16
   1  -6  -6   10.02    0.20
   1  -6  -6   10.01    0.17
   1  -6  -6    9.92    0.20
  -1   6   6    9.83    0.19
  -1   6   6   10.05    0.20
   0  -8  -4   18.71    0.32
   0  -8  -4   19.26    0.31
   0  -8  -4   19.42    0.32
   0   8   4   19.62    0.32
   0   8   4   19.11    0.32
  -1 -10  -2    0.15    0.04
  -1 -10  -2    0.06    0.04
  -1 -10  -2    0.13    0.03
  -2 -12   0    0.11    0.06
   5   1 -14    2.32    0.14
   4  -1 -12    1.93    0.11
   4  -1 -12    1.74    0.10
   3  -3 -10    1.49    0.09
   3  -3 -10    1.39    0.09
  -3   3  10    1.52    0.08
  -3   3  10    1.47    0.08
   2  -5  -8    3.42    0.12
   2  -5  -8    3.47    0.12
  -2   5   8    3.22    0.10
  -2   5   8    3.40    0.11
   1  -7  -6    0.61    0.06
   1  -7  -6    0.73    0.07
  -1   7   6    0.70    0.07
  -1   7   6    0.72    0.07
   0  -9  -4    4.00    0.12
   0  -9  -4    4.01    0.13
   0  -9  -4    4.03    0.14
   0   9   4    4.12    0.13
   0   9   4    4.04    0.13
  -1 -11  -2    0.05    0.05
   5   0 -14    3.03    0.15
   4  -2 -12    0.10    0.05
   4  -2 -12    0.07    0.04
  -4   2  12    0.05    0.03
  -4   2  12    0.03    0.02
   3  -4 -10    0.71    0.07
   3  -4 -10    0.55    0.06
  -3   4  10    0.65    0.07
  -3   4  10    0.68    0.07
   2  -6  -8    3.40    0.12
   2  -6  -8    3.18    0.12
  -2   6   8    3.14    0.11
  -2   6   8    3.21    0.11
   1  -8  -6    7.45    0.19
   1  -8  -6    7.49    0.18
  -1   8   6    7.44    0.18
  -1   8   6    7.51    0.18
   0 -10  -4    1.30    0.09
   0 -10  -4    1.15    0.08
   0  10   4    1.19    0.09
   0  10   4    1.01    0.08
  -1 -12  -2    0.10    0.06
   5  -1 -14    1.26    0.12
   4  -3 -12    2.21    0.12
   4  -3 -12    2.17    0.12
  -4   3  12    2.12    0.10
  -4   3  12    2.19    0.10
   3  -5 -10    1.14    0.09
   3  -5 -10    1.07    0.08
  -3   5  10    0.96    0.07
  -3   5  10    1.15    0.08
   2  -7  -8    0.79    0.07
   2  -7  -8    0.79    0.07
  -2   7   8    0.76    0.07
  -2   7   8    0.85    0.07
   1  -9  -6    0.40    0.05
   1  -9  -6    0.48    0.07
  -1   9   6    0.32    0.04
  -1   9   6    0.42    0.05
   0 -11  -4    0.03    0.05
   0  11   4    0.00    0.04
   5  -2 -14    1.25    0.12
   4  -4 -12    1.84    0.12
  -4   4  12    1.69    0.10
   3  -6 -10    0.52    0.07
   3  -6 -10    0.45    0.06
  -3   6  10    0.50    0.05
  -3   6  10    0.37    0.04
   2  -8  -8    1.12    0.10
  -2   8   8    1.23    0.09
   1 -10  -6    0.01    0.05
  -1  10   6   -0.02    0.04
   5  -3 -14    0.28    0.07
   4  -5 -12    1.13    0.11
  -4   5  12    1.11    0.09
   3  -7 -10    0.00    0.05
  -3   7  10    0.00    0.04
   2  -9  -8    2.99    0.14
  -2   9   8    2.83    0.13
   1 -11  -6    0.02    0.06
  -1  11   6    0.03    0.05
  -5   4  14    0.58    0.07
   4  -6 -12    2.44    0.14
  -4   6  12    2.55    0.13
   3  -8 -10    4.30    0.17
  -3   8  10    4.32    0.16
   2 -10  -8    0.14    0.06
  -2  10   8    0.07    0.05
   4  -7 -12    1.53    0.13
  -4   7  12    1.39    0.11
  -5  11   5    0.04    0.05
   5 -11  -5   -0.01    0.05
  -6   9   7    0.20    0.05
   6  -9  -7    0.17    0.06
   7  -7  -9    2.95    0.15
   4 -12  -3    0.08    0.05
  -5  10   5    0.17    0.05
   5 -10  -5    0.29    0.06
  -6   8   7    0.61    0.07
   6  -8  -7    0.75    0.08
  -7   6   9    0.46    0.06
   7  -6  -9    0.52    0.08
  -4  11   3    0.33    0.06
   4 -11  -3    0.32    0.06
  -5   9   5    0.00    0.04
   5  -9  -5    0.02    0.05
  -6   7   7    0.99    0.09
   6  -7  -7    1.08    0.09
  -7   5   9    0.12    0.04
   7  -5  -9    0.17    0.05
   8  -3 -11    0.67    0.09
   3 -12  -1    0.41    0.07
  -4  10   3    0.50    0.06
  -4  10   3    0.37    0.04
   4 -10  -3    0.46    0.06
  -5   8   5    4.17    0.14
  -5   8   5    4.22    0.14
   5  -8  -5    4.32    0.15
   5  -8  -5    4.50    0.15
  -6   6   7    2.37    0.11
   6  -6  -7    2.42    0.11
   6  -6  -7    2.20    0.11
  -7   4   9    0.95    0.08
   7  -4  -9    1.00    0.10
   8  -2 -11    1.79    0.14
   2 -13   1    0.24    0.07
   3 -11  -1    1.34    0.10
  -4   9   3    1.39    0.08
  -4   9   3    1.48    0.09
   4  -9  -3    1.33    0.09
   4  -9  -3    1.24    0.09
  -5   7   5    8.32    0.19
  -5   7   5    7.74    0.19
   5  -7  -5    8.56    0.20
   5  -7  -5    8.12    0.19
  -6   5   7    2.45    0.10
  -6   5   7    2.60    0.11
   6  -5  -7    2.64    0.12
   6  -5  -7    2.52    0.11
  -7   3   9    0.03    0.04
   7  -3  -9    0.11    0.05
   7  -3  -9    0.05    0.04
   8  -1 -11    1.37    0.12
   2 -12   1    1.25    0.10
  -3  10   1    6.60    0.16
   3 -10  -1    6.79    0.17
   3 -10  -1    6.35    0.17
  -4   8   3    0.93    0.07
  -4   8   3    0.99    0.07
   4  -8  -3    0.98    0.08
   4  -8  -3    1.02    0.07
  -5   6   5    5.85    0.15
  -5   6   5    5.89    0.15
   5  -6  -5    5.95    0.16
   5  -6  -5    6.11    0.15
  -6   4   7    0.46    0.05
  -6   4   7    0.60    0.06
   6  -4  -7    0.49    0.05
   6  -4  -7    0.45    0.06
  -7   2   9    4.90    0.15
  -7   2   9    5.19    0.15
   7  -2  -9    5.11    0.17
   7  -2  -9    5.08    0.17
   8   0 -11    1.65    0.13
   1 -13   3    1.81    0.12
  -2  11  -1    0.16    0.04
   2 -11   1    0.28    0.05
   2 -11   1    0.19    0.05
  -3   9   1    7.43    0.16
  -3   9   1    7.27    0.16
   3  -9  -1    7.40    0.17
   3  -9  -1    7.35    0.17
  -4   7   3    3.96    0.11
  -4   7   3    3.64    0.11
   4  -7  -3    3.94    0.12
   4  -7  -3    3.89    0.12
  -5   5   5    3.97    0.12
  -5   5   5    4.18    0.12
   5  -5  -5    4.21    0.12
   5  -5  -5    3.97    0.12
  -6   3   7    4.01    0.12
  -6   3   7    4.09    0.12
   6  -3  -7    3.95    0.14
   6  -3  -7    3.90    0.13
  -7   1   9    0.27    0.04
  -7   1   9    0.15    0.03
   7  -1  -9    0.24    0.05
   7  -1  -9    0.18    0.05
   8   1 -11    0.78    0.10
   1 -12   3    1.32    0.10
  -2  10  -1    0.92    0.08
   2 -10   1    0.98    0.08
   2 -10   1    1.10    0.08
  -3   8   1    1.38    0.07
  -3   8   1    1.39    0.07
   3  -8  -1    1.33    0.07
   3  -8  -1    1.35    0.07
  -4   6   3    3.34    0.10
  -4   6   3    3.51    0.10
   4  -6  -3    3.37    0.10
   4  -6  -3    3.42    0.10
  -5   4   5    0.06    0.02
  -5   4   5    0.03    0.03
   5  -4  -5    0.08    0.03
   5  -4  -5    0.05    0.03
  -6   2   7    1.49    0.07
  -6   2   7    1.55    0.08
   6  -2  -7    1.79    0.09
   6  -2  -7    1.54    0.09
   7   0  -9    0.67    0.07
   7   0  -9    0.69    0.08
   8   2 -11    2.08    0.15
   0 -13   5    0.17    0.06
  -1  11  -3    1.12    0.11
   1 -11   3    1.16    0.09
   1 -11   3    0.96    0.09
  -2   9  -1    4.15    0.13
   2  -9   1    4.10    0.12
   2  -9   1    4.16    0.12
  -3   7   1    7.04    0.14
  -3   7   1    6.98    0.14
  -3   7   1    7.00    0.14
   3  -7  -1    6.85    0.15
   3  -7  -1    6.74    0.15
  -4   5   3    0.08    0.02
  -4   5   3    0.07    0.02
   4  -5  -3    0.10    0.02
   4  -5  -3    0.08    0.03
  -5   3   5    0.95    0.06
  -5   3   5    0.94    0.06
   5  -3  -5    0.88    0.07
   5  -3  -5    0.90    0.06
  -6   1   7    2.50    0.09
  -6   1   7    2.50    0.09
   6  -1  -7    2.51    0.11
   6  -1  -7    2.49    0.11
   7   1  -9    7.26    0.22
   7   1  -9    7.56    0.21
   8   3 -11    0.72    0.10
   0 -12   5    0.76    0.08
  -1  10  -3    2.49    0.12
   1 -10   3    2.64    0.11
   1 -10   3    2.72    0.11
  -2   8  -1    4.90    0.11
  -2   8  -1    5.00    0.11
  -2   8  -1    5.04    0.13
   2  -8   1    4.81    0.12
   2  -8   1    5.01    0.12
  -3   6   1    0.23    0.03
  -3   6   1    0.19    0.02
  -3   6   1    0.17    0.02
   3  -6  -1    0.21    0.03
   3  -6  -1    0.22    0.03
  -4   4   3    3.26    0.09
  -4   4   3    3.36    0.09
   4  -4  -3    3.32    0.09
   4  -4  -3    3.27    0.09
  -5   2   5   43.64    0.61
  -5   2   5   44.05    0.61
   5  -2  -5   43.49    0.61
   5  -2  -5   43.89    0.60
  -6   0   7    2.59    0.09
  -6   0   7    2.63    0.09
   6   0  -7    2.72    0.11
   6   0  -7    2.81    0.12
   7   2  -9    5.29    0.18
   0 -11   5    2.60    0.12
   0 -11   5    2.39    0.12
  -1   9  -3    0.94    0.08
   1  -9   3    0.96    0.07
   1  -9   3    1.06    0.07
  -2   7  -1    4.82    0.10
  -2   7  -1    4.78    0.12
  -2   7  -1    4.79    0.10
   2  -7   1    4.70    0.11
   2  -7   1    4.78    0.11
  -3   5   1   10.93    0.18
  -3   5   1   10.60    0.18
  -3   5   1   10.83    0.18
   3  -5  -1   10.65    0.18
   3  -5  -1   10.78    0.18
  -4   3   3    4.44    0.10
  -4   3   3    4.17    0.10
   4  -3  -3    4.24    0.10
   4  -3  -3    4.45    0.10
  -5   1   5   78.18    1.02
  -5   1   5   77.31    1.02
   5  -1  -5   78.12    1.01
   5  -1  -5   78.02    0.99
  -6  -1   7    0.03    0.02
  -6  -1   7    0.05    0.02
  -6  -1   7    0.05    0.03
   6   1  -7    0.00    0.03
  -7  -3   9    1.77    0.10
  -1 -12   7    0.18    0.06
   0  10  -5    1.03    0.09
   0 -10   5    0.96    0.08
   0 -10   5    0.76    0.08
  -1   8  -3    0.00    0.02
   1  -8   3    0.00    0.03
   1  -8   3    0.01    0.02
  -2   6  -1    4.87    0.11
  -2   6  -1    4.81    0.10
  -2   6  -1    4.99    0.10
   2  -6   1    4.86    0.10
   2  -6   1    4.84    0.11
  -3   4   1   52.91    0.69
  -3   4   1   53.85    0.68
  -3   4   1   53.52    0.70
   3  -4  -1   51.49    0.67
   3  -4  -1   53.16    0.66
  -4   2   3   22.65    0.33
  -4   2   3   23.02    0.33
   4  -2  -3   22.64    0.33
   4  -2  -3   22.39    0.32
  -5   0   5    3.30    0.09
  -5   0   5    3.31    0.09
   5   0  -5    2.93    0.10
  -6  -2   7    3.09    0.11
   6   2  -7    3.04    0.12
  -7  -4   9    2.67    0.12
  -1 -11   7    0.04    0.05
   0   9  -5    1.99    0.10
   0  -9   5    1.90    0.09
   0  -9   5    1.98    0.09
  -1   7  -3    5.70    0.14
   1  -7   3    5.56    0.12
   1  -7   3    5.77    0.12
  -2   5  -1    6.09    0.11
  -2   5  -1    6.21    0.11
  -2   5  -1    5.91    0.12
   2  -5   1    6.17    0.11
   2  -5   1    6.09    0.11
  -3   3   1    0.42    0.02
  -3   3   1    0.40    0.03
  -3   3   1    0.47    0.03
   3  -3  -1    0.43    0.03
   3  -3  -1    0.42    0.03
  -4   1   3   28.15    0.39
  -4   1   3   28.03    0.39
   4  -1  -3   27.69    0.39
   4  -1  -3   27.49    0.39
  -5  -1   5    4.73    0.11
  -5  -1   5    4.81    0.11
  -5  -1   5    4.89    0.12
   5   1  -5    4.78    0.13
  -6  -3   7    9.40    0.20
  -6  -3   7    9.05    0.20
  -7  -5   9    1.25    0.10
   1  10  -7    0.39    0.05
  -1 -10   7    0.45    0.05
  -1 -10   7    0.59    0.07
   0   8  -5    0.98    0.08
   0  -8   5    0.94    0.06
   0  -8   5    0.92    0.06
  -1   6  -3    0.05    0.01
  -1   6  -3    0.03    0.01
  -1   6  -3    0.03    0.02
   1  -6   3    0.04    0.02
   1  -6   3    0.02    0.02
  -2   4  -1    6.74    0.11
  -2   4  -1    6.81    0.11
  -2   4  -1    6.75    0.12
   2  -4   1    6.90    0.11
   2  -4   1    6.98    0.11
  -3   2   1    1.49    0.04
  -3   2   1    1.63    0.05
  -3   2   1    1.53    0.05
   3  -2  -1    1.50    0.05
   3  -2  -1    1.49    0.05
  -4   0   3    6.56    0.10
  -4   0   3    6.58    0.12
  -4   0   3    6.42    0.12
  -4   0   3    6.49    0.12
   4   0  -3    6.46    0.13
  -5  -2   5    3.26    0.09
  -5  -2   5    3.47    0.09
  -5  -2   5    3.48    0.10
  -5  -2   5    3.33    0.08
  -6  -4   7   10.26    0.21
  -6  -4   7    9.62    0.21
  -7  -6   9    2.29    0.12
  -2 -11   9   -0.01    0.05
   1   9  -7    0.29    0.05
  -1  -9   7    0.33    0.05
  -1  -9   7    0.40    0.05
   0   7  -5    1.07    0.07
   0  -7   5    0.92    0.06
   0  -7   5    1.02    0.06
  -1   5  -3    7.31    0.11
  -1   5  -3    7.44    0.14
  -1   5  -3    7.21    0.11
   1  -5   3    7.18    0.12
   1  -5   3    7.21    0.13
  -2   3  -1   10.40    0.15
  -2   3  -1   10.15    0.15
  -2   3  -1   10.62    0.16
   2  -3   1   10.37    0.15
   2  -3   1   10.20    0.14
  -3   1   1   62.35    0.78
  -3   1   1   60.16    0.79
  -3   1   1   62.38    0.80
   3  -1  -1   60.50    0.74
   3  -1  -1   61.06    0.75
  -4  -1   3    9.71    0.16
  -4  -1   3    9.79    0.16
  -4  -1   3    9.58    0.16
  -4  -1   3    9.69    0.14
  -4  -1   3    9.46    0.16
  -5  -3   5    3.12    0.08
  -5  -3   5    3.15    0.09
  -5  -3   5    3.04    0.09
  -6  -5   7    2.13    0.10
  -6  -5   7    2.22    0.10
  -7  -7   9    2.68    0.13
  -2 -10   9    0.71    0.07
   1   8  -7    5.58    0.16
  -1  -8   7    5.54    0.14
  -1  -8   7    5.44    0.14
   0   6  -5    0.62    0.06
   0  -6   5    0.58    0.04
   0  -6   5    0.56    0.04
  -1   4  -3  103.20    1.28
  -1   4  -3   99.29    1.29
  -1   4  -3  103.22    1.29
   1  -4   3  102.32    1.21
   1  -4   3  104.09    1.23
  -2   2  -1    0.80    0.03
  -2   2  -1    0.88    0.03
  -2   2  -1    0.80    0.03
   2  -2   1    0.79    0.02
  -3   0   1   58.36    0.74
  -3   0   1   59.03    0.76
  -3   0   1   60.10    0.74
  -3   0   1   59.39    0.75
  -3   0   1   58.95    0.76
  -4  -2   3    3.14    0.08
  -4  -2   3    3.30    0.08
  -4  -2   3    3.21    0.08
  -4  -2   3    3.21    0.07
  -5  -4   5   14.54    0.25
  -5  -4   5   14.24    0.25
  -6  -6   7    0.90    0.07
  -6  -6   7    0.76    0.08
   2   9  -9    0.19    0.04
  -2  -9   9    0.26    0.05
  -2  -9   9    0.27    0.05
   1   7  -7   10.74    0.22
  -1  -7   7   10.98    0.20
  -1  -7   7   10.64    0.20
   0   5  -5    1.10    0.06
   0  -5   5    1.06    0.05
   0  -5   5    1.09    0.05
  -1   3  -3  171.75    2.18
  -1   3  -3  173.01    2.28
   1  -3   3  171.48    2.06
   1  -3   3  172.58    2.09
  -2   1  -1   34.94    0.46
  -2   1  -1   35.70    0.46
  -2   1  -1   36.49    0.46
   2  -1   1   36.24    0.42
  -3  -1   1    1.60    0.04
  -3  -1   1    1.58    0.04
  -3  -1   1    1.69    0.05
  -3  -1   1    1.68    0.05
  -3  -1   1    1.58    0.04
  -4  -3   3    3.97    0.09
  -4  -3   3    3.84    0.08
  -4  -3   3    3.41    0.08
  -4  -3   3    3.87    0.09
  -4  -3   3    3.84    0.08
  -5  -5   5    5.08    0.13
  -5  -5   5    5.13    0.12
  -5  -5   5    4.92    0.13
  -6  -7   7    1.68    0.10
  -3 -10  11    0.03    0.05
   2   8  -9    0.06    0.03
  -2  -8   9    0.00    0.04
  -2  -8   9    0.07    0.03
   1   6  -7    4.11    0.12
  -1  -6   7    4.22    0.11
  -1  -6   7    4.12    0.11
   0   4  -5   32.43    0.45
   0  -4   5   31.91    0.42
   0  -4   5   31.82    0.41
  -1   2  -3   12.32    0.17
  -1   2  -3   12.67    0.19
   1  -2   3   12.49    0.16
  -2   0  -1   12.86    0.16
  -2   0  -1   12.79    0.18
  -2   0  -1   12.96    0.18
  -2   0  -1   13.07    0.18
  -3  -2   1   60.47    0.77
  -3  -2   1   59.56    0.74
  -3  -2   1   61.16    0.78
  -3  -2   1   60.48    0.73
  -4  -4   3   12.05    0.19
  -4  -4   3   12.38    0.20
  -4  -4   3   12.42    0.19
  -4  -4   3   12.33    0.21
  -4  -4   3   12.55    0.20
  -5  -6   5    5.92    0.15
  -5  -6   5    5.64    0.15
  -5  -6   5    5.66    0.13
  -6  -8   7    0.03    0.04
  -3  -9  11    0.23    0.06
   2   7  -9    6.88    0.17
  -2  -7   9    6.83    0.16
  -2  -7   9    6.44    0.15
   1   5  -7    0.21    0.03
  -1  -5   7    0.21    0.03
  -1  -5   7    0.28    0.03
   0   3  -5   44.32    0.60
   0  -3   5   45.32    0.57
   0  -3   5   45.69    0.56
   0  -3   5   46.29    0.57
  -1   1  -3   65.11    0.85
  -1   1  -3   63.53    0.82
  -1   1  -3   64.94    0.84
  -2  -1  -1   66.70    0.85
  -2  -1  -1   65.62    0.82
  -2  -1  -1   64.82    0.82
  -2  -1  -1   64.64    0.79
  -3  -3   1   24.91    0.34
  -3  -3   1   24.50    0.33
  -3  -3   1   24.71    0.34
  -3  -3   1   24.26    0.33
  -3  -3   1   24.81    0.34
  -4  -5   3    6.74    0.14
  -4  -5   3    6.59    0.14
  -4  -5   3    6.64    0.14
  -5  -7   5    3.02    0.11
  -5  -7   5    3.04    0.11
  -6  -9   7    0.03    0.05
  -3  -8  11    2.03    0.10
   2   6  -9    3.76    0.12
  -2  -6   9    3.70    0.11
  -2  -6   9    3.61    0.11
   1   4  -7    0.04    0.02
  -1  -4   7    0.05    0.02
  -1  -4   7    0.04    0.02
   0   2  -5   54.77    0.71
   0  -2   5   54.98    0.67
   0  -2   5   54.78    0.67
   0  -2   5   55.30    0.71
  -1   0  -3    4.65    0.08
  -1   0  -3    4.58    0.08
  -1   0  -3    4.68    0.07
  -1   0  -3    4.74    0.08
  -2  -2  -1   97.15    1.17
  -2  -2  -1  100.01    1.18
  -2  -2  -1   97.08    1.31
  -2  -2  -1  101.50    1.30
  -2  -2  -1   98.27    1.27
  -3  -4   1    0.12    0.02
  -3  -4   1    0.10    0.01
  -3  -4   1    0.13    0.02
  -3  -4   1    0.12    0.02
  -3  -4   1    0.11    0.02
  -4  -6   3    0.10    0.03
  -4  -6   3    0.11    0.03
  -4  -6   3    0.12    0.02
  -5  -8   5    1.05    0.08
  -5  -8   5    0.90    0.08
   5   8  -5    1.08    0.09
  -3  -7  11    5.64    0.16
  -3  -7  11    5.68    0.16
   2   5  -9    7.39    0.16
  -2  -5   9    7.54    0.16
  -2  -5   9    7.32    0.16
   1   3  -7    7.09    0.14
  -1  -3   7    6.82    0.13
  -1  -3   7    7.13    0.13
   0   1  -5   53.80    0.70
   0   1  -5   54.66    0.67
   0  -1   5   54.54    0.68
   0  -1   5   53.58    0.68
   0  -1   5   53.13    0.66
  -1  -1  -3    8.67    0.13
  -1  -1  -3    8.39    0.12
  -1  -1  -3    8.37    0.12
  -1  -1  -3    8.29    0.13
   1   1   3    8.49    0.13
  -2  -3  -1   10.29    0.16
  -2  -3  -1   10.46    0.16
  -2  -3  -1   10.25    0.16
  -2  -3  -1   10.75    0.16
  -2  -3  -1   10.44    0.17
  -3  -5   1    0.89    0.04
  -3  -5   1    0.75    0.05
  -3  -5   1    0.82    0.05
  -3  -5   1    0.80    0.05
   3   5  -1    0.81    0.04
  -4  -7   3    0.21    0.03
  -4  -7   3    0.25    0.03
  -4  -7   3    0.23    0.04
  -5  -9   5    0.09    0.05
  -4  -8  13    1.62    0.11
  -3  -6  11    7.45    0.18
  -3  -6  11    7.74    0.19
   2   4  -9    8.23    0.17
  -2  -4   9    8.35    0.17
  -2  -4   9    8.44    0.17
   1   2  -7   16.97    0.25
  -1  -2   7   16.94    0.23
  -1  -2   7   16.18    0.23
  -1  -2   7   16.79    0.25
  -1  -2   7   16.29    0.25
   0   0  -5   12.64    0.19
   0   0  -5   12.25    0.19
   0   0  -5   12.62    0.19
   0   0   5   12.40    0.18
   0   0   5   12.45    0.18
  -1  -2  -3   24.30    0.31
  -1  -2  -3   24.10    0.32
  -1  -2  -3   24.80    0.33
  -1  -2  -3   24.85    0.33
   1   2   3   23.97    0.33
  -2  -4  -1    1.50    0.05
  -2  -4  -1    1.40    0.05
  -2  -4  -1    1.60    0.05
  -2  -4  -1    1.38    0.05
   2   4   1    1.43    0.05
  -3  -6   1   11.01    0.20
  -3  -6   1   11.16    0.20
  -3  -6   1   11.22    0.20
   3   6  -1   10.97    0.18
  -4  -8   3    1.64    0.08
  -4  -8   3    1.76    0.09
  -4  -8   3    1.61    0.09
  -5 -10   5    0.00    0.05
  -4  -7  13    0.94    0.10
  -3  -5  11    0.02    0.03
  -3  -5  11    0.01    0.03
   2   3  -9    7.94    0.16
  -2  -3   9    8.13    0.16
  -2  -3   9    8.06    0.17
   1   1  -7   12.37    0.21
   1   1  -7   11.97    0.19
  -1  -1   7   11.70    0.19
  -1  -1   7   12.05    0.18
  -1  -1   7   12.09    0.18
   0  -1  -5   65.04    0.80
   0  -1  -5   64.68    0.83
   0  -1  -5   66.89    0.82
   0   1   5   65.80    0.84
   0   1   5   67.03    0.84
  -1  -3  -3    2.63    0.06
  -1  -3  -3    2.58    0.06
  -1  -3  -3    2.46    0.06
   1   3   3    2.61    0.06
   1   3   3    2.62    0.06
  -2  -5  -1    1.20    0.05
  -2  -5  -1    1.20    0.05
  -2  -5  -1    1.16    0.05
   2   5   1    1.13    0.05
   2   5   1    1.18    0.05
  -3  -7   1   -0.01    0.02
  -3  -7   1   -0.01    0.02
  -3  -7   1    0.00    0.03
  -4  -9   3    0.05    0.04
  -4  -9   3    0.01    0.03
  -4  -9   3    0.02    0.03
  -4  -6  13    1.12    0.10
  -3  -4  11    0.14    0.04
   2   2  -9   19.61    0.32
   2   2  -9   19.54    0.29
  -2  -2   9   19.05    0.30
   1   0  -7   27.04    0.38
   1   0  -7   27.08    0.38
   1   0  -7   26.58    0.36
  -1   0   7   26.37    0.37
  -1   0   7   25.99    0.36
   0  -2  -5    3.03    0.07
   0  -2  -5    3.23    0.08
   0  -2  -5    3.18    0.07
   0   2   5    3.09    0.07
   0   2   5    3.13    0.07
  -1  -4  -3    0.02    0.02
  -1  -4  -3    0.02    0.02
  -1  -4  -3    0.03    0.01
   1   4   3    0.03    0.02
   1   4   3    0.03    0.01
  -2  -6  -1    2.22    0.07
  -2  -6  -1    2.27    0.08
  -2  -6  -1    2.26    0.08
   2   6   1    2.24    0.07
   2   6   1    2.15    0.07
  -3  -8   1    9.06    0.19
  -3  -8   1    9.08    0.19
  -3  -8   1    8.48    0.18
  -4 -10   3    2.15    0.11
  -4  -5  13    0.16    0.05
   3   3 -11   13.88    0.28
  -3  -3  11   14.53    0.27
   2   1  -9    2.84    0.08
   2   1  -9    2.87    0.10
   2   1  -9    2.82    0.10
  -2  -1   9    2.94    0.07
  -2  -1   9    2.83    0.07
   1  -1  -7    5.36    0.12
   1  -1  -7    5.22    0.12
   1  -1  -7    5.27    0.10
  -1   1   7    5.23    0.10
  -1   1   7    5.20    0.10
   0  -3  -5    6.54    0.12
   0  -3  -5    6.52    0.13
   0  -3  -5    6.46    0.12
   0   3   5    6.65    0.12
   0   3   5    6.55    0.12
  -1  -5  -3    7.97    0.15
  -1  -5  -3    7.59    0.14
  -1  -5  -3    7.80    0.15
   1   5   3    7.78    0.14
   1   5   3    7.70    0.14
  -2  -7  -1    6.49    0.14
  -2  -7  -1    6.53    0.15
  -2  -7  -1    6.59    0.15
   2   7   1    6.65    0.14
   2   7   1    6.49    0.13
  -3  -9   1    2.36    0.10
  -3  -9   1    2.62    0.11
  -3  -9   1    2.52    0.11
  -4 -11   3    0.16    0.06
  -4  -4  13    0.17    0.05
   3   2 -11    5.92    0.17
   2   0  -9    0.06    0.02
   2   0  -9    0.03    0.02
  -2   0   9    0.03    0.01
  -2   0   9    0.04    0.02
   1  -2  -7    8.79    0.17
   1  -2  -7    8.78    0.14
   1  -2  -7    8.77    0.17
  -1   2   7    8.79    0.16
  -1   2   7    8.78    0.16
   0  -4  -5   10.17    0.17
   0  -4  -5    9.92    0.17
   0  -4  -5    9.78    0.18
   0   4   5    9.96    0.17
   0   4   5    9.83    0.17
  -1  -6  -3    6.06    0.13
  -1  -6  -3    6.12    0.13
  -1  -6  -3    6.23    0.14
   1   6   3    6.25    0.13
   1   6   3    6.11    0.13
  -2  -8  -1    1.86    0.09
  -2  -8  -1    1.78    0.08
  -2  -8  -1    1.88    0.08
   2   8   1    1.83    0.07
   2   8   1    1.66    0.07
  -3 -10   1    0.55    0.07
   4   3 -13    0.33    0.06
   3   1 -11   16.05    0.31
   3   1 -11   16.93    0.32
   2  -1  -9    0.24    0.04
   2  -1  -9    0.26    0.04
  -2   1   9    0.37    0.04
  -2   1   9    0.36    0.04
   1  -3  -7   24.75    0.36
   1  -3  -7   25.16    0.37
   1  -3  -7   25.21    0.34
  -1   3   7   24.86    0.37
  -1   3   7   24.18    0.36
   0  -5  -5    1.76    0.06
   0  -5  -5    1.73    0.07
   0  -5  -5    1.59    0.07
   0   5   5    1.88    0.07
   0   5   5    1.76    0.07
  -1  -7  -3    0.10    0.03
  -1  -7  -3    0.08    0.02
  -1  -7  -3    0.13    0.03
   1   7   3    0.12    0.02
   1   7   3    0.11    0.03
  -2  -9  -1    3.62    0.12
  -2  -9  -1    3.68    0.12
  -2  -9  -1    3.49    0.12
  -3 -11   1    0.44    0.07
   5   4 -15    0.19    0.07
   4   2 -13    1.43    0.11
   4   2 -13    1.33    0.11
   3   0 -11    5.29    0.16
   3   0 -11    5.54    0.16
   2  -2  -9    6.03    0.15
   2  -2  -9    5.92    0.15
  -2   2   9    6.16    0.13
  -2   2   9    6.24    0.13
   1  -4  -7   -0.01    0.02
   1  -4  -7    0.02    0.01
   1  -4  -7    0.04    0.02
  -1   4   7    0.01    0.02
  -1   4   7    0.02    0.02
   0  -6  -5    3.09    0.10
   0  -6  -5    3.05    0.10
   0  -6  -5    2.93    0.09
   0   6   5    3.02    0.09
   0   6   5    3.01    0.09
  -1  -8  -3   11.06    0.22
  -1  -8  -3   11.27    0.21
  -1  -8  -3   11.10    0.22
   1   8   3   11.19    0.21
   1   8   3   11.18    0.21
  -2 -10  -1    1.10    0.09
  -2 -10  -1    1.09    0.09
   5   3 -15    1.42    0.13
   4   1 -13    3.50    0.15
   4   1 -13    3.49    0.15
   3  -1 -11    0.02    0.03
   3  -1 -11    0.06    0.03
  -3   1  11    0.02    0.02
  -3   1  11    0.00    0.02
   2  -3  -9    1.53    0.08
   2  -3  -9    1.51    0.08
  -2   3   9    1.70    0.07
  -2   3   9    1.57    0.07
   1  -5  -7   17.69    0.29
   1  -5  -7   17.67    0.27
   1  -5  -7   17.60    0.30
  -1   5   7   17.67    0.29
  -1   5   7   17.54    0.29
   0  -7  -5   10.74    0.22
   0  -7  -5   10.99    0.21
   0  -7  -5   10.38    0.20
   0   7   5   10.54    0.21
   0   7   5   10.77    0.21
  -1  -9  -3    5.02    0.14
  -1  -9  -3    4.59    0.14
  -1  -9  -3    4.62    0.15
   1   9   3    5.39    0.14
   1   9   3    5.18    0.14
  -2 -11  -1    1.32    0.10
   5   2 -15    0.82    0.10
   4   0 -13    0.46    0.06
   4   0 -13    0.60    0.08
   3  -2 -11    1.21    0.09
   3  -2 -11    1.20    0.09
  -3   2  11    1.14    0.07
  -3   2  11    1.23    0.07
   2  -4  -9   19.16    0.33
   2  -4  -9   19.57    0.33
  -2   4   9   19.20    0.32
  -2   4   9   18.98    0.32
   1  -6  -7    5.86    0.15
   1  -6  -7    5.72    0.15
  -1   6   7    5.51    0.14
  -1   6   7    5.66    0.14
   0  -8  -5    8.36    0.19
   0  -8  -5    8.13    0.19
   0  -8  -5    8.70    0.18
   0   8   5    8.54    0.19
   0   8   5    8.67    0.19
  -1 -10  -3    0.02    0.03
  -1 -10  -3    0.08    0.05
   1  10   3   -0.01    0.04
  -2 -12  -1    1.24    0.11
   5   1 -15   -0.03    0.06
   4  -1 -13   -0.01    0.04
   4  -1 -13    0.03    0.04
   3  -3 -11    5.55    0.17
   3  -3 -11    5.77    0.17
  -3   3  11    5.53    0.15
  -3   3  11    5.66    0.15
   2  -5  -9    3.97    0.13
   2  -5  -9    3.78    0.13
  -2   5   9    3.98    0.12
  -2   5   9    4.16    0.12
   1  -7  -7    1.19    0.08
   1  -7  -7    1.21    0.08
  -1   7   7    1.15    0.08
  -1   7   7    1.19    0.08
   0  -9  -5    4.54    0.15
   0  -9  -5    4.59    0.13
   0  -9  -5    4.82    0.15
   0   9   5    4.73    0.14
   0   9   5    4.74    0.14
  -1 -11  -3    0.43    0.07
   5   0 -15    0.31    0.07
   4  -2 -13    0.05    0.05
   3  -4 -11    3.50    0.13
   3  -4 -11    3.75    0.14
  -3   4  11    3.71    0.12
  -3   4  11    3.67    0.12
   2  -6  -9    0.45    0.06
   2  -6  -9    0.32    0.05
  -2   6   9    0.42    0.05
  -2   6   9    0.28    0.04
   1  -8  -7    0.29    0.05
   1  -8  -7    0.27    0.05
  -1   8   7    0.26    0.04
  -1   8   7    0.33    0.05
   0 -10  -5    0.71    0.08
   0  10   5    0.77    0.08
   5  -1 -15    0.19    0.07
   4  -3 -13    0.41    0.07
  -4   3  13    0.31    0.04
  -4   3  13    0.42    0.05
   3  -5 -11    0.67    0.07
   3  -5 -11    0.56    0.06
  -3   5  11    0.72    0.07
  -3   5  11    0.79    0.08
   2  -7  -9    0.09    0.04
   2  -7  -9    0.11    0.04
  -2   7   9    0.11    0.04
  -2   7   9    0.04    0.03
   1  -9  -7    1.18    0.10
  -1   9   7    1.35    0.09
   0 -11  -5    0.07    0.05
   0  11   5    0.02    0.04
   4  -4 -13    0.05    0.05
  -4   4  13   -0.03    0.04
   3  -6 -11    1.35    0.10
  -3   6  11    1.24    0.09
   2  -8  -9    0.25    0.06
  -2   8   9    0.22    0.05
   1 -10  -7    2.09    0.12
  -1  10   7    1.92    0.11
   4  -5 -13    1.82    0.13
  -4   5  13    1.83    0.11
   3  -7 -11    0.14    0.06
  -3   7  11    0.12    0.05
   2  -9  -9    1.14    0.11
  -2   9   9    1.14    0.10
  -1  11   7    0.18    0.05
   4  -6 -13    0.43    0.08
  -4   6  13    0.50    0.07
   3  -8 -11    0.34    0.07
  -3   8  11    0.22    0.06
   6 -10  -6    0.00    0.05
   7  -8  -8    2.24    0.13
  -5  11   4    0.18    0.05
   5 -11  -4    0.18    0.06
  -6   9   6    0.03    0.04
   6  -9  -6   -0.05    0.04
  -7   7   8    2.72    0.13
   7  -7  -8    2.88    0.14
   8  -5 -10    0.08    0.06
   4 -12  -2    0.25    0.06
  -5  10   4    0.34    0.06
   5 -10  -4    0.34    0.06
  -6   8   6    0.63    0.07
   6  -8  -6    0.70    0.08
  -7   6   8    0.04    0.04
   7  -6  -8   -0.01    0.05
  -8   4  10    0.22    0.05
   8  -4 -10    0.38    0.07
   3 -13   0    0.15    0.06
  -4  11   2    1.54    0.10
   4 -11  -2    1.50    0.11
  -5   9   4    0.20    0.05
   5  -9  -4    0.26    0.05
   5  -9  -4    0.26    0.06
  -6   7   6    4.37    0.15
   6  -7  -6    4.53    0.15
   6  -7  -6    4.54    0.15
  -7   5   8    0.18    0.05
   7  -5  -8    0.18    0.05
  -8   3  10    0.14    0.05
   8  -3 -10    0.26    0.07
   3 -12   0    1.27    0.10
  -4  10   2    1.50    0.08
  -4  10   2    1.48    0.09
   4 -10  -2    1.33    0.09
   4 -10  -2    1.54    0.10
  -5   8   4    1.50    0.09
  -5   8   4    1.49    0.09
   5  -8  -4    1.64    0.09
   5  -8  -4    1.59    0.09
  -6   6   6    2.24    0.10
  -6   6   6    2.24    0.10
   6  -6  -6    2.19    0.11
   6  -6  -6    2.16    0.10
  -7   4   8    3.69    0.13
   7  -4  -8    3.66    0.14
   7  -4  -8    3.80    0.14
   8  -2 -10    4.77    0.19
   2 -13   2    0.09    0.05
   3 -11   0    1.98    0.10
   3 -11   0    1.96    0.11
  -4   9   2    0.62    0.07
  -4   9   2    0.60    0.06
   4  -9  -2    0.46    0.05
   4  -9  -2    0.57    0.06
  -5   7   4    0.81    0.07
  -5   7   4    0.84    0.07
   5  -7  -4    0.75    0.07
   5  -7  -4    0.84    0.07
  -6   5   6    3.52    0.12
  -6   5   6    3.59    0.12
   6  -5  -6    3.70    0.13
   6  -5  -6    3.63    0.12
  -7   3   8    2.30    0.10
  -7   3   8    2.22    0.10
   7  -3  -8    2.22    0.11
   7  -3  -8    2.41    0.12
   8  -1 -10    3.74    0.16
   2 -12   2    0.66    0.07
   3 -10   0    0.03    0.03
   3 -10   0    0.10    0.05
  -4   8   2    1.01    0.07
  -4   8   2    0.95    0.07
   4  -8  -2    0.94    0.07
   4  -8  -2    0.81    0.07
  -5   6   4    2.88    0.10
  -5   6   4    2.92    0.10
   5  -6  -4    3.03    0.11
   5  -6  -4    2.82    0.10
  -6   4   6    2.35    0.10
  -6   4   6    2.42    0.10
   6  -4  -6    2.48    0.10
   6  -4  -6    2.41    0.10
  -7   2   8    1.86    0.09
  -7   2   8    1.90    0.09
   7  -2  -8    2.06    0.11
   7  -2  -8    1.93    0.11
   8   0 -10    0.12    0.06
   1 -13   4    0.18    0.06
  -2  11  -2    0.05    0.04
   2 -11   2    0.07    0.04
   2 -11   2    0.02    0.04
  -3   9   0    0.05    0.02
  -3   9   0    0.07    0.03
   3  -9   0    0.09    0.03
   3  -9   0    0.05    0.04
  -4   7   2    3.35    0.10
  -4   7   2    3.53    0.11
   4  -7  -2    3.39    0.10
   4  -7  -2    3.34    0.10
  -5   5   4    0.77    0.06
  -5   5   4    0.70    0.06
   5  -5  -4    0.78    0.06
   5  -5  -4    0.69    0.06
  -6   3   6    0.02    0.02
  -6   3   6    0.02    0.03
   6  -3  -6    0.02    0.03
   6  -3  -6    0.02    0.03
  -7   1   8    4.31    0.13
  -7   1   8    4.22    0.13
   7  -1  -8    4.05    0.15
   7  -1  -8    4.12    0.15
   8   1 -10    0.63    0.09
   1 -12   4    0.44    0.07
  -2  10  -2    6.35    0.17
   2 -10   2    6.46    0.16
   2 -10   2    6.42    0.16
  -3   8   0    0.08    0.02
  -3   8   0    0.05    0.02
  -3   8   0    0.03    0.02
   3  -8   0    0.07    0.03
   3  -8   0    0.04    0.03
  -4   6   2    4.17    0.11
  -4   6   2    4.09    0.11
   4  -6  -2    4.11    0.11
   4  -6  -2    4.21    0.11
  -5   4   4    0.95    0.06
  -5   4   4    0.95    0.06
   5  -4  -4    1.05    0.06
   5  -4  -4    0.97    0.06
  -6   2   6    0.08    0.02
  -6   2   6    0.19    0.03
   6  -2  -6    0.08    0.03
   6  -2  -6    0.11    0.04
   7   0  -8    5.54    0.18
   7   0  -8    5.48    0.17
   8   2 -10    0.02    0.06
   0 -13   6    1.36    0.11
  -1  11  -4    0.93    0.10
   1 -11   4    0.86    0.08
   1 -11   4    0.90    0.09
  -2   9  -2    3.88    0.13
   2  -9   2    3.94    0.11
   2  -9   2    3.67    0.11
  -3   7   0    8.00    0.16
  -3   7   0    8.26    0.16
  -3   7   0    8.25    0.16
   3  -7   0    8.08    0.16
   3  -7   0    8.11    0.16
  -4   5   2    0.52    0.05
  -4   5   2    0.54    0.04
   4  -5  -2    0.49    0.05
   4  -5  -2    0.42    0.04
  -5   3   4   16.89    0.28
  -5   3   4   16.39    0.27
   5  -3  -4   16.77    0.27
   5  -3  -4   16.71    0.28
  -6   1   6    3.35    0.10
  -6   1   6    3.48    0.10
   6  -1  -6    3.35    0.12
   6  -1  -6    3.46    0.12
   7   1  -8   -0.03    0.04
   7   1  -8    0.02    0.05
   0 -12   6    1.89    0.12
  -1  10  -4    2.36    0.12
   1 -10   4    2.26    0.10
   1 -10   4    2.31    0.10
  -2   8  -2    1.16    0.07
   2  -8   2    1.23    0.06
   2  -8   2    1.23    0.06
  -3   6   0   11.31    0.19
  -3   6   0   11.54    0.19
  -3   6   0   11.35    0.19
   3  -6   0   11.32    0.19
   3  -6   0   11.42    0.19
  -4   4   2   18.95    0.29
  -4   4   2   19.45    0.29
   4  -4  -2   19.20    0.28
   4  -4  -2   19.20    0.29
  -5   2   4    0.04    0.02
  -5   2   4    0.01    0.02
   5  -2  -4    0.06    0.02
   5  -2  -4    0.12    0.03
  -6   0   6    0.27    0.03
  -6   0   6    0.23    0.03
   6   0  -6    0.25    0.04
   6   0  -6    0.32    0.05
  -7  -2   8    0.32    0.05
   7   2  -8    0.20    0.05
  -8  -4  10    0.48    0.07
   0 -11   6    1.05    0.09
   0 -11   6    1.04    0.09
  -1   9  -4    1.02    0.08
   1  -9   4    1.04    0.07
   1  -9   4    1.05    0.07
  -2   7  -2    9.75    0.16
  -2   7  -2    9.70    0.16
  -2   7  -2    9.77    0.19
   2  -7   2    9.80    0.17
   2  -7   2    9.67    0.17
  -3   5   0    4.55    0.10
  -3   5   0    4.62    0.10
  -3   5   0    4.57    0.10
   3  -5   0    4.47    0.09
   3  -5   0    4.54    0.10
  -4   3   2    0.53    0.04
  -4   3   2    0.49    0.04
   4  -3  -2    0.47    0.04
   4  -3  -2    0.50    0.04
  -5   1   4    1.05    0.05
  -5   1   4    1.18    0.05
   5  -1  -4    1.13    0.06
   5  -1  -4    1.15    0.06
  -6  -1   6    0.42    0.05
  -6  -1   6    0.50    0.05
  -6  -1   6    0.36    0.04
   6   1  -6    0.38    0.05
  -7  -3   8    1.79    0.10
   7   3  -8    1.64    0.11
  -8  -5  10    1.69    0.12
  -1 -12   8    0.16    0.06
   0  10  -6    0.22    0.04
   0 -10   6    0.23    0.05
   0 -10   6    0.25    0.04
  -1   8  -4    0.21    0.03
   1  -8   4    0.29    0.04
   1  -8   4    0.26    0.03
  -2   6  -2    2.79    0.07
  -2   6  -2    2.71    0.07
  -2   6  -2    2.75    0.08
   2  -6   2    2.64    0.07
   2  -6   2    2.73    0.07
  -3   4   0    0.64    0.04
  -3   4   0    0.66    0.04
  -3   4   0    0.67    0.04
   3  -4   0    0.61    0.03
   3  -4   0    0.64    0.03
  -4   2   2   11.79    0.19
  -4   2   2   12.00    0.16
  -4   2   2   11.75    0.19
   4  -2  -2   11.70    0.19
   4  -2  -2   11.86    0.19
  -5   0   4    2.94    0.08
  -5   0   4    2.83    0.08
  -5   0   4    2.95    0.09
   5   0  -4    2.84    0.09
  -6  -2   6    8.75    0.19
   6   2  -6    8.91    0.20
  -7  -4   8    2.45    0.11
  -1 -11   8    0.33    0.06
   0   9  -6    2.19    0.11
   0  -9   6    2.46    0.10
   0  -9   6    2.34    0.09
  -1   7  -4    1.24    0.07
   1  -7   4    1.34    0.06
   1  -7   4    1.27    0.06
  -2   5  -2   10.59    0.16
  -2   5  -2   10.52    0.16
  -2   5  -2   10.67    0.18
   2  -5   2   10.46    0.16
   2  -5   2   10.43    0.16
  -3   3   0    0.93    0.04
  -3   3   0    0.87    0.04
  -3   3   0    0.89    0.04
   3  -3   0    0.84    0.03
   3  -3   0    0.82    0.03
  -4   1   2   15.24    0.24
  -4   1   2   15.45    0.21
  -4   1   2   15.39    0.23
   4  -1  -2   15.25    0.23
   4  -1  -2   15.53    0.23
  -5  -1   4    0.34    0.04
  -5  -1   4    0.19    0.02
  -5  -1   4    0.24    0.03
  -6  -3   6    2.80    0.10
  -6  -3   6    2.75    0.10
  -7  -5   8    2.72    0.12
   1  10  -8    0.40    0.05
  -1 -10   8    0.50    0.06
  -1 -10   8    0.44    0.05
   0   8  -6    2.97    0.11
   0  -8   6    2.97    0.10
   0  -8   6    3.10    0.10
  -1   6  -4   19.26    0.31
   1  -6   4   19.03    0.28
   1  -6   4   19.39    0.27
  -2   4  -2   14.24    0.22
  -2   4  -2   14.20    0.20
  -2   4  -2   14.04    0.20
   2  -4   2   13.93    0.20
   2  -4   2   13.88    0.19
  -3   2   0    0.12    0.01
  -3   2   0    0.15    0.02
  -3   2   0    0.10    0.01
   3  -2   0    0.19    0.02
   3  -2   0    0.18    0.02
  -4   0   2    6.21    0.11
  -4   0   2    6.12    0.10
  -4   0   2    6.07    0.12
  -4   0   2    6.13    0.12
   4   0  -2    6.22    0.12
  -5  -2   4    1.10    0.05
  -5  -2   4    1.06    0.05
  -5  -2   4    1.01    0.05
  -5  -2   4    1.04    0.05
  -6  -4   6    5.33    0.14
  -6  -4   6    5.17    0.14
  -7  -6   8    0.10    0.05
  -2 -11  10    0.17    0.06
   1   9  -8   13.37    0.28
  -1  -9   8   13.11    0.26
  -1  -9   8   13.04    0.25
   0   7  -6    0.98    0.08
   0  -7   6    1.08    0.06
   0  -7   6    1.02    0.06
  -1   5  -4    4.55    0.11
  -1   5  -4    4.37    0.07
  -1   5  -4    4.44    0.07
   1  -5   4    4.44    0.09
   1  -5   4    4.47    0.09
  -2   3  -2    7.23    0.12
  -2   3  -2    7.39    0.12
  -2   3  -2    7.47    0.13
   2  -3   2    7.53    0.11
   2  -3   2    7.26    0.11
  -3   1   0    3.01    0.06
  -3   1   0    3.00    0.07
  -3   1   0    2.94    0.07
   3  -1   0    2.98    0.06
  -4  -1   2   30.76    0.40
  -4  -1   2   30.96    0.40
  -4  -1   2   30.60    0.42
  -4  -1   2   30.67    0.42
  -4  -1   2   30.42    0.40
  -5  -3   4    1.13    0.05
  -5  -3   4    1.22    0.05
  -5  -3   4    1.17    0.06
  -5  -3   4    1.19    0.05
  -5  -3   4    1.16    0.06
  -6  -5   6    5.70    0.15
  -6  -5   6    5.90    0.15
  -7  -7   8    0.20    0.06
  -2 -10  10    0.01    0.05
   1   8  -8    4.65    0.15
  -1  -8   8    4.49    0.13
  -1  -8   8    4.63    0.13
   0   6  -6    1.86    0.08
   0  -6   6    1.90    0.07
   0  -6   6    1.88    0.07
  -1   4  -4   22.18    0.33
  -1   4  -4   22.26    0.29
   1  -4   4   22.38    0.30
   1  -4   4   22.55    0.29
  -2   2  -2    5.36    0.10
  -2   2  -2    5.63    0.09
  -2   2  -2    5.92    0.09
   2  -2   2    5.64    0.08
  -3   0   0  103.00    1.27
  -3   0   0  100.62    1.35
  -3   0   0  102.17    1.27
  -3   0   0  103.80    1.37
  -3   0   0  104.90    1.29
  -4  -2   2   13.65    0.21
  -4  -2   2   13.62    0.20
  -4  -2   2   13.78    0.20
  -4  -2   2   13.40    0.21
  -4  -2   2   13.49    0.21
  -5  -4   4    0.76    0.05
  -5  -4   4    0.70    0.05
  -5  -4   4    0.71    0.05
  -6  -6   6    2.78    0.11
  -6  -6   6    2.65    0.11
   2   9 -10   -0.04    0.04
  -2  -9  10   -0.02    0.04
  -2  -9  10    0.02    0.04
   1   7  -8    1.09    0.08
  -1  -7   8    1.14    0.07
  -1  -7   8    1.14    0.07
   0   5  -6    0.16    0.02
   0  -5   6    0.15    0.02
   0  -5   6    0.18    0.02
  -1   3  -4   93.70    1.20
  -1   3  -4   96.63    1.21
   1  -3   4   96.01    1.13
   1  -3   4   94.80    1.12
  -2   1  -2   60.18    0.78
  -2   1  -2   61.38    0.76
  -2   1  -2   59.97    0.77
  -3  -1   0   69.81    0.90
  -3  -1   0   70.07    0.85
  -3  -1   0   71.11    0.85
  -3  -1   0   70.35    0.89
  -3  -1   0   71.17    0.90
  -4  -3   2   29.21    0.40
  -4  -3   2   29.81    0.41
  -4  -3   2   29.77    0.41
  -4  -3   2   30.24    0.40
  -4  -3   2   30.21    0.41
  -5  -5   4   12.60    0.23
  -5  -5   4   12.55    0.23
  -5  -5   4   12.73    0.22
  -6  -7   6    3.80    0.13
  -3 -10  12    0.02    0.05
   2   8 -10    1.30    0.10
  -2  -8  10    1.22    0.08
  -2  -8  10    1.31    0.08
   1   6  -8    4.13    0.12
  -1  -6   8    3.98    0.11
  -1  -6   8    4.01    0.11
   0   4  -6    7.36    0.15
   0  -4   6    7.23    0.13
   0  -4   6    7.47    0.13
  -1   2  -4   33.83    0.46
  -1   2  -4   33.82    0.43
  -1   2  -4   33.50    0.43
   1  -2   4   33.59    0.41
  -2   0  -2   11.31    0.16
  -2   0  -2   11.00    0.13
  -2   0  -2   10.85    0.16
  -2   0  -2   10.75    0.17
  -3  -2   0   73.01    0.92
  -3  -2   0   72.61    0.88
  -3  -2   0   72.23    0.92
  -3  -2   0   71.44    0.86
  -3  -2   0   72.01    0.93
  -4  -4   2   26.70    0.38
  -4  -4   2   26.20    0.37
  -4  -4   2   26.34    0.37
  -4  -4   2   26.85    0.37
  -4  -4   2   27.25    0.38
  -5  -6   4   13.90    0.24
  -5  -6   4   13.85    0.25
  -5  -6   4   13.59    0.25
  -6  -8   6    0.30    0.06
  -3  -9  12   -0.01    0.04
   2   7 -10    4.32    0.14
  -2  -7  10    4.24    0.13
  -2  -7  10    4.15    0.13
   1   5  -8    0.05    0.02
  -1  -5   8    0.06    0.02
  -1  -5   8    0.10    0.03
   0   3  -6   33.60    0.47
   0  -3   6   33.29    0.44
   0  -3   6   34.10    0.44
   0  -3   6   36.45    0.44
  -1   1  -4   17.32    0.23
  -1   1  -4   16.91    0.25
  -1   1  -4   17.37    0.22
  -1   1  -4   17.33    0.23
  -2  -1  -2   87.05    1.09
  -2  -1  -2   85.70    1.12
  -2  -1  -2   85.61    1.14
  -2  -1  -2   85.48    1.03
  -3  -3   0   39.87    0.53
  -3  -3   0   39.68    0.53
  -3  -3   0   39.76    0.50
  -3  -3   0   39.58    0.53
  -3  -3   0   40.39    0.51
  -4  -5   2    3.65    0.09
  -4  -5   2    3.76    0.09
  -4  -5   2    3.75    0.10
  -4  -5   2    3.65    0.10
  -4  -5   2    3.77    0.10
  -5  -7   4    0.92    0.07
  -5  -7   4    0.89    0.07
  -5  -7   4    0.96    0.07
  -6  -9   6    0.13    0.05
  -3  -8  12    1.38    0.10
   2   6 -10    3.44    0.12
  -2  -6  10    3.58    0.11
  -2  -6  10    3.49    0.11
   1   4  -8    0.98    0.06
  -1  -4   8    0.93    0.05
  -1  -4   8    0.93    0.05
   0   2  -6    5.73    0.12
   0  -2   6    5.87    0.10
   0  -2   6    5.86    0.09
   0  -2   6    5.66    0.10
   0  -2   6    5.87    0.09
  -1   0  -4   23.12    0.32
  -1   0  -4   23.20    0.31
  -1   0  -4   23.05    0.29
  -2  -2  -2   79.25    0.99
  -2  -2  -2   79.02    0.99
  -2  -2  -2   78.50    0.94
  -2  -2  -2   76.59    1.02
  -2  -2  -2   76.49    0.93
  -3  -4   0    0.57    0.03
  -3  -4   0    0.53    0.04
  -3  -4   0    0.57    0.04
  -3  -4   0    0.59    0.04
  -3  -4   0    0.58    0.03
  -4  -6   2    1.86    0.08
  -4  -6   2    1.92    0.08
  -4  -6   2    1.92    0.08
  -5  -8   4    2.30    0.11
  -5  -8   4    2.53    0.11
  -5  -8   4    2.40    0.10
  -3  -7  12    1.09    0.09
   2   5 -10    1.42    0.08
  -2  -5  10    1.41    0.08
  -2  -5  10    1.43    0.08
   1   3  -8   10.86    0.20
  -1  -3   8   10.79    0.19
  -1  -3   8   11.21    0.19
   0   1  -6   60.68    0.74
   0   1  -6   60.22    0.78
   0  -1   6   59.28    0.74
   0  -1   6   60.01    0.76
   0  -1   6   59.88    0.76
  -1  -1  -4    3.53    0.07
  -1  -1  -4    3.51    0.07
  -1  -1  -4    3.46    0.08
  -1  -1  -4    3.63    0.07
   1   1   4    3.45    0.07
  -2  -3  -2   24.54    0.34
  -2  -3  -2   24.36    0.32
  -2  -3  -2   24.69    0.34
  -2  -3  -2   24.36    0.33
   2   3   2   24.42    0.34
  -3  -5   0    1.59    0.06
  -3  -5   0    1.57    0.06
  -3  -5   0    1.58    0.06
  -3  -5   0    1.52    0.06
   3   5   0    1.50    0.05
  -4  -7   2    0.57    0.06
  -4  -7   2    0.49    0.05
  -4  -7   2    0.49    0.05
  -5  -9   4    1.08    0.09
  -3  -6  12    0.38    0.05
  -3  -6  12    0.41    0.05
   2   4 -10    0.10    0.03
  -2  -4  10    0.12    0.03
  -2  -4  10    0.10    0.03
   1   2  -8   41.72    0.57
   1   2  -8   42.61    0.58
  -1  -2   8   43.24    0.56
  -1  -2   8   43.27    0.57
   0   0  -6   47.19    0.62
   0   0  -6   47.29    0.61
   0   0  -6   48.00    0.60
   0   0   6   47.25    0.61
   0   0   6   47.53    0.61
  -1  -2  -4   48.06    0.63
  -1  -2  -4   47.61    0.59
  -1  -2  -4   47.70    0.60
   1   2   4   47.92    0.62
   1   2   4   49.11    0.63
  -2  -4  -2    9.23    0.16
  -2  -4  -2    9.28    0.15
  -2  -4  -2    9.23    0.16
  -2  -4  -2    9.42    0.16
   2   4   2    9.39    0.15
  -3  -6   0    4.04    0.11
  -3  -6   0    4.10    0.11
  -3  -6   0    4.04    0.11
   3   6   0    3.91    0.09
   3   6   0    3.95    0.09
  -4  -8   2    7.02    0.17
  -4  -8   2    7.08    0.17
  -4  -8   2    7.04    0.17
  -5 -10   4    0.03    0.05
  -4  -7  14    0.09    0.05
  -3  -5  12    1.80    0.10
   2   3 -10    9.82    0.19
   2   3 -10   10.11    0.21
  -2  -3  10   10.05    0.20
   1   1  -8   20.41    0.32
   1   1  -8   21.26    0.32
   1   1  -8   20.84    0.31
  -1  -1   8   20.68    0.29
  -1  -1   8   20.48    0.29
   0  -1  -6    0.29    0.03
   0  -1  -6    0.23    0.02
   0  -1  -6    0.21    0.02
   0   1   6    0.14    0.02
  -1  -3  -4   20.00    0.28
  -1  -3  -4   20.44    0.28
  -1  -3  -4   20.00    0.29
   1   3   4   19.68    0.29
   1   3   4   20.49    0.29
  -2  -5  -2   13.34    0.21
  -2  -5  -2   13.19    0.22
  -2  -5  -2   12.97    0.21
   2   5   2   13.41    0.21
   2   5   2   13.38    0.21
  -3  -7   0    8.82    0.18
  -3  -7   0    9.26    0.18
  -3  -7   0    9.30    0.19
   3   7   0    9.03    0.17
   3   7   0    9.23    0.17
  -4  -9   2    2.45    0.10
  -4  -9   2    2.55    0.11
  -4  -9   2    2.49    0.11
  -4  -6  14    1.76    0.12
   3   4 -12    0.35    0.06
  -3  -4  12    0.44    0.06
   2   2 -10    7.76    0.18
  -2  -2  10    7.53    0.17
   1   0  -8    1.43    0.07
   1   0  -8    1.45    0.07
   1   0  -8    1.46    0.05
  -1   0   8    1.44    0.05
  -1   0   8    1.53    0.05
   0  -2  -6    0.16    0.02
   0  -2  -6    0.13    0.02
   0  -2  -6    0.21    0.03
   0   2   6    0.15    0.02
   0   2   6    0.18    0.02
  -1  -4  -4   41.25    0.54
  -1  -4  -4   41.82    0.56
  -1  -4  -4   41.53    0.53
   1   4   4   40.49    0.55
   1   4   4   41.34    0.56
  -2  -6  -2    0.02    0.02
  -2  -6  -2    0.02    0.02
  -2  -6  -2    0.05    0.02
   2   6   2    0.02    0.02
   2   6   2    0.01    0.02
  -3  -8   0    1.09    0.07
  -3  -8   0    1.14    0.07
  -3  -8   0    1.08    0.07
  -4 -10   2    0.68    0.07
  -4  -5  14    1.01    0.10
   3   3 -12    0.02    0.04
  -3  -3  12    0.10    0.04
   2   1 -10    1.12    0.07
   2   1 -10    1.18    0.08
   1  -1  -8    6.96    0.15
   1  -1  -8    6.91    0.13
   1  -1  -8    7.01    0.15
  -1   1   8    6.93    0.13
  -1   1   8    6.81    0.13
   0  -3  -6    0.08    0.01
   0  -3  -6    0.08    0.02
   0  -3  -6    0.08    0.02
   0   3   6    0.04    0.02
   0   3   6    0.06    0.02
  -1  -5  -4    2.61    0.08
  -1  -5  -4    2.57    0.08
  -1  -5  -4    2.61    0.08
   1   5   4    2.61    0.08
   1   5   4    2.63    0.08
  -2  -7  -2    0.98    0.06
  -2  -7  -2    1.00    0.06
  -2  -7  -2    1.08    0.07
   2   7   2    0.88    0.06
   2   7   2    0.93    0.06
  -3  -9   0    1.00    0.08
  -3  -9   0    0.98    0.08
  -3  -9   0    0.95    0.08
  -4 -11   2    0.62    0.08
   3   2 -12    3.36    0.14
   3   2 -12    3.58    0.14
   2   0 -10    7.03    0.17
   2   0 -10    6.94    0.17
  -2   0  10    6.88    0.14
  -2   0  10    6.84    0.14
   1  -2  -8    0.02    0.02
   1  -2  -8    0.03    0.01
   1  -2  -8    0.02    0.02
  -1   2   8    0.01    0.02
  -1   2   8    0.05    0.02
   0  -4  -6    9.29    0.17
   0  -4  -6    9.20    0.17
   0  -4  -6    9.14    0.16
   0   4   6    8.99    0.17
   0   4   6    9.34    0.17
  -1  -6  -4    0.02    0.02
  -1  -6  -4    0.07    0.02
  -1  -6  -4    0.09    0.03
   1   6   4    0.07    0.02
   1   6   4    0.08    0.02
  -2  -8  -2    1.01    0.07
  -2  -8  -2    0.92    0.07
  -2  -8  -2    0.98    0.07
   2   8   2    0.97    0.06
   2   8   2    0.97    0.07
  -3 -10   0    1.62    0.10
   4   3 -14    1.73    0.13
   3   1 -12    6.84    0.19
   3   1 -12    6.79    0.19
   2  -1 -10    1.37    0.08
   2  -1 -10    1.31    0.08
  -2   1  10    1.28    0.06
  -2   1  10    1.27    0.06
   1  -3  -8   11.25    0.21
   1  -3  -8   11.11    0.21
   1  -3  -8   11.48    0.19
  -1   3   8   11.50    0.20
  -1   3   8   11.30    0.20
   0  -5  -6    0.02    0.02
   0  -5  -6    0.03    0.02
   0  -5  -6    0.03    0.02
   0   5   6    0.03    0.03
   0   5   6    0.01    0.02
  -1  -7  -4    1.57    0.08
  -1  -7  -4    1.42    0.07
  -1  -7  -4    1.58    0.07
   1   7   4    1.52    0.07
   1   7   4    1.46    0.07
  -2  -9  -2    4.23    0.13
  -2  -9  -2    4.55    0.13
  -2  -9  -2    4.40    0.14
   2   9   2    4.60    0.13
  -3 -11   0    0.13    0.05
   4   2 -14    4.89    0.19
   3   0 -12    0.26    0.05
   3   0 -12    0.28    0.05
   2  -2 -10    0.91    0.07
   2  -2 -10    0.91    0.07
  -2   2  10    0.93    0.06
  -2   2  10    0.94    0.06
   1  -4  -8    0.93    0.06
   1  -4  -8    0.95    0.06
  -1   4   8    0.95    0.06
  -1   4   8    0.89    0.06
   0  -6  -6   18.13    0.30
   0  -6  -6   18.66    0.29
   0  -6  -6   18.89    0.30
   0   6   6   17.74    0.30
   0   6   6   18.68    0.31
  -1  -8  -4    0.82    0.07
  -1  -8  -4    0.84    0.07
  -1  -8  -4    0.93    0.07
   1   8   4    0.79    0.07
   1   8   4    0.80    0.07
  -2 -10  -2    0.03    0.04
   4   1 -14    3.83    0.16
   3  -1 -12    0.05    0.03
   3  -1 -12    0.07    0.04
   2  -3 -10   10.02    0.21
   2  -3 -10   10.08    0.22
  -2   3  10    9.77    0.20
  -2   3  10   10.06    0.20
   1  -5  -8    2.24    0.09
   1  -5  -8    2.13    0.09
  -1   5   8    2.20    0.09
  -1   5   8    2.21    0.09
   0  -7  -6    0.00    0.02
   0  -7  -6    0.00    0.03
   0  -7  -6   -0.01    0.03
   0   7   6   -0.01    0.03
   0   7   6    0.01    0.02
  -1  -9  -4    0.28    0.04
  -1  -9  -4    0.38    0.06
  -1  -9  -4    0.35    0.05
   1   9   4    0.39    0.05
   1   9   4    0.30    0.04
  -2 -11  -2    0.03    0.05
   4   0 -14    0.40    0.07
   3  -2 -12    0.27    0.05
   3  -2 -12    0.26    0.05
  -3   2  12    0.21    0.03
  -3   2  12    0.20    0.04
   2  -4 -10    5.05    0.15
   2  -4 -10    5.05    0.15
  -2   4  10    5.07    0.14
  -2   4  10    5.04    0.14
   1  -6  -8    0.18    0.04
   1  -6  -8    0.21    0.04
  -1   6   8    0.18    0.04
  -1   6   8    0.14    0.03
   0  -8  -6    1.29    0.08
   0  -8  -6    1.32    0.09
   0  -8  -6    1.35    0.07
   0   8   6    1.28    0.08
   0   8   6    1.27    0.08
  -1 -10  -4    2.18    0.12
   1  10   4    2.20    0.11
   1  10   4    2.01    0.10
   4  -1 -14    0.18    0.06
   3  -3 -12    0.01    0.03
   3  -3 -12    0.05    0.04
  -3   3  12    0.03    0.03
  -3   3  12    0.02    0.03
   2  -5 -10    1.67    0.09
   2  -5 -10    1.54    0.09
  -2   5  10    1.53    0.09
  -2   5  10    1.45    0.08
   1  -7  -8   -0.01    0.03
   1  -7  -8    0.00    0.04
  -1   7   8    0.00    0.03
  -1   7   8    0.01    0.03
   0  -9  -6    0.71    0.07
   0   9   6    0.80    0.08
   0   9   6    0.94    0.08
  -1 -11  -4    0.95    0.10
   4  -2 -14    0.43    0.07
   3  -4 -12    4.19    0.15
   3  -4 -12    3.87    0.15
  -3   4  12    3.96    0.13
  -3   4  12    4.00    0.14
   2  -6 -10    4.05    0.14
   2  -6 -10    3.87    0.14
  -2   6  10    4.01    0.14
  -2   6  10    4.06    0.13
   1  -8  -8    0.10    0.05
  -1   8   8    0.11    0.04
   0 -10  -6    0.01    0.04
   0  10   6    0.00    0.04
   4  -3 -14    6.08    0.20
   3  -5 -12    0.20    0.06
  -3   5  12    0.21    0.05
   2  -7 -10    1.04    0.09
  -2   7  10    1.11    0.09
   1  -9  -8    1.18    0.10
  -1   9   8    1.12    0.10
   0 -11  -6    0.50    0.08
   0  11   6    0.48    0.07
   4  -4 -14    4.94    0.19
  -4   4  14    4.91    0.17
   3  -6 -12    1.26    0.10
  -3   6  12    1.35    0.10
   2  -8 -10   -0.08    0.04
  -2   8  10    0.03    0.05
   1 -10  -8    2.08    0.13
  -1  10   8    2.28    0.13
  -4   5  14    0.52    0.07
   3  -7 -12    1.21    0.11
  -3   7  12    1.07    0.11
   2  -9 -10    0.38    0.07
  -2   9  10    0.28    0.06
  -6  10   5    0.21    0.05
   6 -10  -5    0.15    0.06
  -7   8   7   -0.01    0.04
  -5  11   3   -0.02    0.05
   5 -11  -3    0.01    0.05
  -6   9   5    0.17    0.05
   6  -9  -5    0.21    0.05
  -7   7   7    0.52    0.07
   7  -7  -7    0.61    0.07
  -8   5   9   -0.01    0.04
   4 -12  -1    1.54    0.12
  -5  10   3    1.17    0.09
   5 -10  -3    1.11    0.09
  -6   8   5    0.21    0.05
   6  -8  -5    0.25    0.05
   6  -8  -5    0.19    0.05
  -7   6   7    0.78    0.08
   7  -6  -7    0.65    0.07
  -8   4   9    0.32    0.05
   8  -4  -9    0.45    0.07
   3 -13   1    0.12    0.06
   4 -11  -1    1.89    0.11
  -5   9   3    0.06    0.03
  -5   9   3    0.07    0.04
   5  -9  -3    0.05    0.04
   5  -9  -3    0.02    0.03
  -6   7   5    5.44    0.16
  -6   7   5    5.46    0.16
   6  -7  -5    5.68    0.16
   6  -7  -5    5.56    0.16
  -7   5   7    0.13    0.04
   7  -5  -7    0.09    0.05
   7  -5  -7    0.07    0.04
  -8   3   9    1.55    0.10
   8  -3  -9    1.47    0.12
   3 -12   1    0.50    0.07
  -4  10   1    0.97    0.08
  -4  10   1    1.01    0.07
   4 -10  -1    1.05    0.09
   4 -10  -1    1.18    0.09
  -5   8   3    0.00    0.02
  -5   8   3    0.01    0.03
   5  -8  -3    0.05    0.04
   5  -8  -3    0.00    0.03
  -6   6   5    4.39    0.14
  -6   6   5    4.29    0.13
   6  -6  -5    4.47    0.14
   6  -6  -5    4.60    0.14
  -7   4   7    0.12    0.03
  -7   4   7    0.14    0.04
   7  -4  -7    0.17    0.04
   7  -4  -7    0.12    0.05
  -8   2   9    4.27    0.14
   8  -2  -9    4.36    0.17
   2 -13   3    0.00    0.05
   3 -11   1    0.59    0.07
   3 -11   1    0.52    0.06
  -4   9   1    0.63    0.07
  -4   9   1    0.36    0.04
   4  -9  -1    0.50    0.06
   4  -9  -1    0.52    0.05
  -5   7   3    2.53    0.10
  -5   7   3    2.55    0.10
   5  -7  -3    2.54    0.10
   5  -7  -3    2.44    0.09
  -6   5   5    8.18    0.19
  -6   5   5    8.49    0.19
   6  -5  -5    8.61    0.19
   6  -5  -5    8.14    0.19
  -7   3   7    0.02    0.03
  -7   3   7    0.00    0.02
   7  -3  -7    0.07    0.04
   7  -3  -7    0.05    0.04
   8  -1  -9    7.46    0.22
   2 -12   3    0.40    0.06
   3 -10   1    0.28    0.05
   3 -10   1    0.26    0.04
  -4   8   1    0.95    0.07
  -4   8   1    0.90    0.06
   4  -8  -1    0.92    0.07
   4  -8  -1    0.86    0.06
  -5   6   3    6.84    0.16
  -5   6   3    6.68    0.16
   5  -6  -3    6.71    0.15
   5  -6  -3    6.64    0.15
  -6   4   5    6.57    0.16
  -6   4   5    6.51    0.16
   6  -4  -5    6.67    0.16
   6  -4  -5    6.60    0.16
  -7   2   7    3.43    0.12
  -7   2   7    3.31    0.12
   7  -2  -7    3.16    0.13
   7  -2  -7    3.25    0.12
   8   0  -9    3.07    0.15
   1 -13   5    0.02    0.05
  -2  11  -3    1.10    0.10
   2 -11   3    1.27    0.09
   2 -11   3    1.28    0.09
  -3   9  -1   10.31    0.21
  -3   9  -1   10.07    0.19
   3  -9   1   10.42    0.20
   3  -9   1   10.23    0.21
  -4   7   1    1.28    0.07
  -4   7   1    1.28    0.07
   4  -7  -1    1.34    0.07
   4  -7  -1    1.28    0.06
  -5   5   3    9.97    0.20
  -5   5   3    9.64    0.19
   5  -5  -3   10.28    0.19
   5  -5  -3    9.95    0.19
  -6   3   5    1.55    0.08
  -6   3   5    1.58    0.07
   6  -3  -5    1.47    0.08
   6  -3  -5    1.57    0.08
  -7   1   7    5.74    0.15
  -7   1   7    5.78    0.15
   7  -1  -7    5.97    0.17
   7  -1  -7    5.81    0.17
   8   1  -9    0.13    0.06
   1 -12   5    1.61    0.11
  -2  10  -3    1.17    0.10
   2 -10   3    1.32    0.08
   2 -10   3    1.36    0.08
  -3   8  -1    2.96    0.09
  -3   8  -1    3.09    0.09
  -3   8  -1    3.05    0.10
   3  -8   1    2.96    0.10
   3  -8   1    3.05    0.10
  -4   6   1   20.14    0.32
  -4   6   1   20.24    0.32
   4  -6  -1   20.09    0.30
   4  -6  -1   20.28    0.31
  -5   4   3   10.81    0.20
  -5   4   3   11.16    0.20
   5  -4  -3   11.05    0.20
   5  -4  -3   11.12    0.20
  -6   2   5    1.40    0.07
  -6   2   5    1.42    0.07
   6  -2  -5    1.50    0.08
   6  -2  -5    1.29    0.08
  -7   0   7    4.35    0.13
  -7   0   7    4.74    0.13
   7   0  -7    4.99    0.16
   7   0  -7    4.71    0.16
   8   2  -9    0.51    0.08
   0 -13   7    0.20    0.07
  -1  11  -5    1.38    0.11
   1 -11   5    1.41    0.09
   1 -11   5    1.31    0.09
  -2   9  -3    2.55    0.11
   2  -9   3    2.58    0.09
   2  -9   3    2.53    0.09
  -3   7  -1    9.90    0.19
  -3   7  -1    9.78    0.18
  -3   7  -1    9.83    0.18
   3  -7   1    9.70    0.18
   3  -7   1   10.19    0.18
  -4   5   1    3.65    0.10
  -4   5   1    3.50    0.09
   4  -5  -1    3.51    0.09
   4  -5  -1    3.55    0.09
  -5   3   3   22.67    0.35
  -5   3   3   22.59    0.35
   5  -3  -3   22.50    0.34
   5  -3  -3   22.90    0.33
  -6   1   5    1.20    0.06
  -6   1   5    1.21    0.06
   6  -1  -5    1.26    0.07
   6  -1  -5    1.28    0.07
   7   1  -7    2.82    0.13
   7   1  -7    2.81    0.12
  -8  -3   9    1.37    0.10
   0 -12   7    0.06    0.05
  -1  10  -5    1.66    0.11
   1 -10   5    1.53    0.08
   1 -10   5    1.47    0.09
  -2   8  -3    2.14    0.09
   2  -8   3    2.09    0.08
   2  -8   3    2.17    0.08
  -3   6  -1   23.00    0.34
  -3   6  -1   22.15    0.33
  -3   6  -1   22.29    0.33
   3  -6   1   21.96    0.31
   3  -6   1   22.19    0.32
  -4   4   1   18.99    0.29
  -4   4   1   18.84    0.27
  -4   4   1   19.06    0.29
   4  -4  -1   18.76    0.27
   4  -4  -1   18.59    0.27
  -5   2   3    3.17    0.09
  -5   2   3    3.03    0.09
   5  -2  -3    3.12    0.09
   5  -2  -3    3.25    0.09
  -6   0   5   11.62    0.21
  -6   0   5   11.52    0.21
   6   0  -5   11.86    0.23
   6   0  -5   11.28    0.23
  -7  -2   7    2.56    0.11
   7   2  -7    2.54    0.12
  -8  -4   9    5.95    0.19
   0 -11   7    0.67    0.07
  -1   9  -5    0.24    0.04
   1  -9   5    0.35    0.05
   1  -9   5    0.37    0.04
  -2   7  -3    3.75    0.11
  -2   7  -3    3.56    0.08
  -2   7  -3    3.67    0.08
   2  -7   3    3.74    0.09
   2  -7   3    3.63    0.09
  -3   5  -1   10.16    0.18
  -3   5  -1   10.39    0.17
  -3   5  -1   10.05    0.17
   3  -5   1   10.42    0.16
   3  -5   1   10.37    0.16
  -4   3   1    9.22    0.16
  -4   3   1    8.94    0.16
  -4   3   1    9.11    0.14
   4  -3  -1    8.99    0.15
   4  -3  -1    9.00    0.15
  -5   1   3   22.77    0.33
  -5   1   3   22.15    0.33
   5  -1  -3   21.70    0.33
   5  -1  -3   22.36    0.34
  -6  -1   5    6.60    0.14
  -6  -1   5    6.76    0.14
  -6  -1   5    6.82    0.15
   6   1  -5    7.03    0.17
  -7  -3   7    1.17    0.08
   7   3  -7    1.06    0.10
  -8  -5   9    6.31    0.20
  -1 -12   9    0.15    0.06
   0  10  -7    1.09    0.10
   0 -10   7    1.24    0.09
   0 -10   7    1.14    0.08
  -1   8  -5    3.07    0.11
   1  -8   5    3.07    0.10
   1  -8   5    3.07    0.09
  -2   6  -3    9.98    0.16
  -2   6  -3    9.81    0.16
  -2   6  -3    9.88    0.19
   2  -6   3    9.88    0.16
   2  -6   3   10.05    0.16
  -3   4  -1    6.89    0.12
  -3   4  -1    6.95    0.13
  -3   4  -1    6.85    0.12
   3  -4   1    6.95    0.11
   3  -4   1    6.95    0.11
  -4   2   1    2.13    0.06
  -4   2   1    2.15    0.06
  -4   2   1    2.24    0.05
   4  -2  -1    2.22    0.06
   4  -2  -1    2.18    0.06
  -5   0   3    0.09    0.02
  -5   0   3    0.10    0.02
  -5   0   3    0.14    0.02
   5   0  -3    0.08    0.02
  -6  -2   5   11.21    0.20
  -6  -2   5   11.24    0.20
  -6  -2   5   11.41    0.21
  -7  -4   7    1.44    0.09
  -7  -4   7    1.40    0.09
  -1 -11   9    0.79    0.08
   0   9  -7    2.30    0.12
   0  -9   7    2.35    0.10
   0  -9   7    2.27    0.10
  -1   7  -5    3.68    0.11
   1  -7   5    3.95    0.10
   1  -7   5    3.87    0.10
  -2   5  -3    3.31    0.07
  -2   5  -3    3.47    0.07
  -2   5  -3    3.50    0.09
   2  -5   3    3.45    0.07
   2  -5   3    3.44    0.08
  -3   3  -1    1.99    0.06
  -3   3  -1    2.00    0.06
  -3   3  -1    2.07    0.06
   3  -3   1    2.01    0.04
   3  -3   1    2.02    0.05
  -4   1   1    1.50    0.05
  -4   1   1    1.57    0.04
  -4   1   1    1.43    0.05
   4  -1  -1    1.54    0.05
   4  -1  -1    1.52    0.05
  -5  -1   3    1.37    0.06
  -5  -1   3    1.49    0.06
  -5  -1   3    1.50    0.06
  -5  -1   3    1.48    0.06
  -6  -3   5    3.82    0.11
  -6  -3   5    3.82    0.11
  -7  -5   7    0.46    0.06
  -7  -5   7    0.40    0.05
  -1 -10   9    1.43    0.10
  -1 -10   9    1.21    0.09
   0   8  -7    4.37    0.14
   0  -8   7    4.39    0.12
   0  -8   7    4.55    0.12
  -1   6  -5    1.41    0.07
   1  -6   5    1.42    0.05
   1  -6   5    1.47    0.06
  -2   4  -3   35.06    0.46
  -2   4  -3   35.07    0.46
  -2   4  -3   35.64    0.48
   2  -4   3   35.25    0.44
   2  -4   3   34.68    0.43
  -3   2  -1    2.36    0.06
  -3   2  -1    2.32    0.06
  -3   2  -1    2.34    0.06
   3  -2   1    2.35    0.04
  -4   0   1   23.30    0.33
  -4   0   1   23.93    0.31
  -4   0   1   23.70    0.32
  -4   0   1   23.62    0.34
  -5  -2   3    5.95    0.12
  -5  -2   3    6.03    0.12
  -5  -2   3    6.28    0.13
  -5  -2   3    6.02    0.12
  -5  -2   3    5.94    0.11
  -6  -4   5    0.36    0.04
  -6  -4   5    0.39    0.04
  -7  -6   7    0.23    0.05
  -2 -11  11    0.42    0.07
   1   9  -9    2.21    0.12
  -1  -9   9    2.37    0.11
  -1  -9   9    2.25    0.10
   0   7  -7    0.82    0.07
   0  -7   7    0.81    0.06
   0  -7   7    0.89    0.06
  -1   5  -5    6.34    0.09
  -1   5  -5    6.16    0.14
   1  -5   5    6.37    0.11
   1  -5   5    6.16    0.11
  -2   3  -3   25.95    0.35
  -2   3  -3   26.32    0.37
  -2   3  -3   26.22    0.35
   2  -3   3   25.71    0.32
  -3   1  -1   10.20    0.16
  -3   1  -1   10.43    0.16
  -3   1  -1   10.22    0.16
   3  -1   1   10.32    0.14
  -4  -1   1   18.78    0.26
  -4  -1   1   18.82    0.26
  -4  -1   1   18.97    0.27
  -4  -1   1   18.69    0.28
  -4  -1   1   18.59    0.25
  -5  -3   3    0.07    0.02
  -5  -3   3    0.07    0.02
  -5  -3   3    0.08    0.02
  -5  -3   3    0.06    0.02
  -5  -3   3    0.07    0.02
  -6  -5   5    5.37    0.14
  -6  -5   5    5.54    0.15
  -7  -7   7    2.27    0.12
  -2 -10  11    0.00    0.04
   1   8  -9    0.08    0.04
  -1  -8   9    0.13    0.03
  -1  -8   9    0.10    0.03
   0   6  -7    1.21    0.07
   0  -6   7    1.33    0.06
   0  -6   7    1.32    0.06
  -1   4  -5    7.54    0.11
  -1   4  -5    7.64    0.15
   1  -4   5    7.51    0.12
   1  -4   5    7.51    0.12
  -2   2  -3   14.09    0.20
  -2   2  -3   14.44    0.20
  -2   2  -3   14.39    0.22
   2  -2   3   14.91    0.18
  -3   0  -1   30.00    0.40
  -3   0  -1   30.06    0.40
  -3   0  -1   29.63    0.40
  -3   0  -1   29.41    0.36
  -4  -2   1    6.93    0.12
  -4  -2   1    6.88    0.12
  -4  -2   1    6.69    0.12
  -4  -2   1    6.66    0.13
  -5  -4   3   14.76    0.23
  -5  -4   3   14.61    0.24
  -5  -4   3   14.65    0.24
  -5  -4   3   14.61    0.23
  -5  -4   3   14.40    0.24
  -6  -6   5    2.07    0.10
  -6  -6   5    2.04    0.10
  -7  -8   7    1.15    0.10
  -2  -9  11    0.58    0.07
   1   7  -9    1.51    0.09
  -1  -7   9    1.47    0.08
  -1  -7   9    1.51    0.08
   0   5  -7    2.29    0.08
   0  -5   7    2.39    0.07
   0  -5   7    2.29    0.07
  -1   3  -5    0.07    0.01
  -1   3  -5    0.10    0.01
  -1   3  -5    0.11    0.02
   1  -3   5    0.08    0.01
   1  -3   5    0.07    0.01
  -2   1  -3    0.64    0.03
  -2   1  -3    0.68    0.03
  -2   1  -3    0.62    0.03
  -3  -1  -1   17.26    0.25
  -3  -1  -1   16.98    0.24
  -3  -1  -1   16.69    0.24
  -3  -1  -1   16.63    0.22
  -3  -1  -1   17.02    0.22
  -4  -3   1    8.30    0.15
  -4  -3   1    8.51    0.14
  -4  -3   1    8.29    0.15
  -4  -3   1    8.34    0.15
  -4  -3   1    8.51    0.15
  -5  -5   3   21.94    0.34
  -5  -5   3   21.53    0.33
  -5  -5   3   21.75    0.33
  -6  -7   5    0.08    0.04
  -6  -7   5    0.04    0.03
   2   8 -11    1.11    0.10
  -2  -8  11    1.28    0.09
  -2  -8  11    1.13    0.09
   1   6  -9    0.08    0.03
  -1  -6   9    0.14    0.03
  -1  -6   9    0.22    0.03
   0   4  -7    0.45    0.05
   0  -4   7    0.47    0.03
   0  -4   7    0.41    0.03
  -1   2  -5    3.01    0.08
  -1   2  -5    2.98    0.06
  -1   2  -5    2.99    0.06
   1  -2   5    2.97    0.06
   1  -2   5    2.91    0.06
  -2   0  -3    7.08    0.12
  -2   0  -3    7.28    0.12
  -2   0  -3    6.95    0.12
  -2   0  -3    7.02    0.09
  -3  -2  -1   57.19    0.73
  -3  -2  -1   56.03    0.68
  -3  -2  -1   56.48    0.74
  -3  -2  -1   57.16    0.73
  -3  -2  -1   56.12    0.69
  -4  -4   1   15.57    0.24
  -4  -4   1   15.46    0.24
  -4  -4   1   15.53    0.24
  -4  -4   1   15.56    0.24
  -4  -4   1   16.11    0.25
  -5  -6   3    5.45    0.13
  -5  -6   3    5.34    0.14
  -5  -6   3    5.44    0.14
  -6  -8   5    0.07    0.05
  -3  -9  13    0.09    0.05
   2   7 -11    1.66    0.11
  -2  -7  11    1.58    0.09
  -2  -7  11    1.65    0.09
  -1  -5   9    0.55    0.05
  -1  -5   9    0.61    0.05
   0   3  -7   14.01    0.23
   0  -3   7   14.21    0.21
   0  -3   7   13.98    0.21
   0  -3   7   14.26    0.19
  -1   1  -5    6.62    0.11
  -1   1  -5    6.48    0.11
  -1   1  -5    6.49    0.11
  -1   1  -5    6.80    0.11
  -1   1  -5    6.74    0.12
  -2  -1  -3    0.40    0.03
  -2  -1  -3    0.37    0.03
  -2  -1  -3    0.37    0.02
  -2  -1  -3    0.36    0.03
  -2  -1  -3    0.41    0.02
  -3  -3  -1   11.68    0.18
  -3  -3  -1   11.65    0.19
  -3  -3  -1   11.63    0.19
  -3  -3  -1   11.68    0.19
  -3  -3  -1   11.64    0.17
  -4  -5   1    2.43    0.08
  -4  -5   1    2.37    0.07
  -4  -5   1    2.47    0.08
  -4  -5   1    2.40    0.07
  -4  -5   1    2.43    0.08
  -5  -7   3    7.93    0.18
  -5  -7   3    8.04    0.18
  -5  -7   3    8.08    0.18
  -6  -9   5    2.13    0.12
  -3  -8  13    0.46    0.06
   2   6 -11    4.13    0.14
  -2  -6  11    4.29    0.13
  -2  -6  11    4.18    0.13
   1   4  -9    3.23    0.10
  -1  -4   9    3.34    0.10
  -1  -4   9    3.23    0.09
   0   2  -7   69.63    0.85
   0   2  -7   67.22    0.89
   0  -2   7   67.60    0.85
   0  -2   7   68.18    0.86
   0  -2   7   69.00    0.86
  -1   0  -5   23.15    0.30
  -1   0  -5   23.04    0.31
  -1   0  -5   22.87    0.30
  -1   0  -5   22.62    0.32
   1   0   5   22.36    0.31
  -2  -2  -3    2.22    0.06
  -2  -2  -3    2.31    0.06
  -2  -2  -3    2.30    0.05
  -2  -2  -3    2.18    0.06
  -2  -2  -3    2.24    0.05
  -3  -4  -1    1.66    0.06
  -3  -4  -1    1.83    0.06
  -3  -4  -1    1.75    0.06
  -3  -4  -1    1.65    0.06
  -3  -4  -1    1.64    0.06
  -4  -6   1   20.90    0.33
  -4  -6   1   20.97    0.32
  -4  -6   1   20.96    0.33
   4   6  -1   20.85    0.31
  -5  -8   3    1.16    0.08
  -5  -8   3    1.20    0.09
  -5  -8   3    1.20    0.09
  -3  -7  13    0.17    0.05
   2   5 -11   11.75    0.24
  -2  -5  11   11.97    0.23
  -2  -5  11   12.27    0.23
   1   3  -9    4.59    0.12
  -1  -3   9    4.53    0.11
   0   1  -7   91.78    1.14
   0   1  -7   92.56    1.18
   0   1  -7   92.40    1.12
   0  -1   7   91.57    1.16
   0  -1   7   93.29    1.16
  -1  -1  -5    0.02    0.01
  -1  -1  -5    0.05    0.01
  -1  -1  -5    0.01    0.01
   1   1   5    0.01    0.01
  -2  -3  -3   88.98    1.12
  -2  -3  -3   87.89    1.12
  -2  -3  -3   87.46    1.06
  -2  -3  -3   87.65    1.07
   2   3   3   89.07    1.12
  -3  -5  -1   10.56    0.19
  -3  -5  -1   10.64    0.18
  -3  -5  -1   10.69    0.19
  -3  -5  -1   10.79    0.18
   3   5   1   10.62    0.18
  -4  -7   1    3.98    0.12
  -4  -7   1    4.06    0.12
  -4  -7   1    3.87    0.12
  -5  -9   3    0.07    0.04
  -3  -6  13    1.23    0.09
   2   4 -11    9.45    0.20
  -2  -4  11    9.41    0.20
   1   2  -9   11.53    0.20
   1   2  -9   11.13    0.21
  -1  -2   9   11.31    0.20
   0   0  -7    8.57    0.15
   0   0  -7    8.56    0.15
   0   0  -7    8.56    0.15
   0   0   7    8.49    0.14
   0   0   7    8.39    0.14
  -1  -2  -5   17.10    0.24
  -1  -2  -5   16.93    0.24
  -1  -2  -5   16.41    0.25
   1   2   5   17.14    0.25
   1   2   5   17.36    0.25
  -2  -4  -3   37.06    0.48
  -2  -4  -3   37.03    0.51
  -2  -4  -3   36.90    0.49
   2   4   3   36.84    0.50
  -3  -6  -1    3.44    0.10
  -3  -6  -1    3.37    0.10
  -3  -6  -1    3.44    0.10
   3   6   1    3.37    0.09
   3   6   1    3.42    0.09
  -4  -8   1    5.38    0.15
  -4  -8   1    5.49    0.15
  -4  -8   1    5.64    0.15
  -5 -10   3   -0.05    0.04
   3   5 -13    3.53    0.15
  -3  -5  13    3.56    0.14
   2   3 -11    0.81    0.08
  -2  -3  11    0.78    0.06
   1   1  -9   14.48    0.25
   1   1  -9   14.71    0.26
   1   1  -9   14.78    0.24
  -1  -1   9   14.67    0.22
  -1  -1   9   14.57    0.22
   0  -1  -7    0.03    0.02
   0  -1  -7    0.06    0.01
   0  -1  -7    0.07    0.02
   0   1   7    0.05    0.02
   0   1   7    0.08    0.02
  -1  -3  -5   25.91    0.36
  -1  -3  -5   26.69    0.36
  -1  -3  -5   26.40    0.37
   1   3   5   26.12    0.37
   1   3   5   26.83    0.37
  -2  -5  -3    8.84    0.16
  -2  -5  -3    9.13    0.17
  -2  -5  -3    8.91    0.16
   2   5   3    8.84    0.16
   2   5   3    8.69    0.16
  -3  -7  -1    0.65    0.06
  -3  -7  -1    0.64    0.06
  -3  -7  -1    0.68    0.06
   3   7   1    0.63    0.05
   3   7   1    0.71    0.05
  -4  -9   1    0.10    0.04
  -4  -9   1    0.17    0.04
  -4  -6  15    0.66    0.08
   3   4 -13    0.62    0.07
  -3  -4  13    0.95    0.09
   2   2 -11    0.03    0.03
   2   2 -11    0.09    0.04
   1   0  -9   11.32    0.21
   1   0  -9   11.47    0.19
   1   0  -9   11.28    0.21
  -1   0   9   11.70    0.19
  -1   0   9   11.66    0.19
   0  -2  -7    0.67    0.04
   0  -2  -7    0.71    0.05
   0  -2  -7    0.73    0.04
  -1  -4  -5   23.50    0.34
  -1  -4  -5   23.36    0.34
  -1  -4  -5   23.60    0.33
   1   4   5   22.65    0.34
   1   4   5   23.68    0.34
  -2  -6  -3    4.31    0.11
  -2  -6  -3    4.56    0.11
  -2  -6  -3    4.44    0.11
   2   6   3    4.40    0.11
   2   6   3    4.23    0.11
  -3  -8  -1    0.54    0.06
  -3  -8  -1    0.60    0.06
  -3  -8  -1    0.47    0.05
   3   8   1    0.44    0.04
  -4 -10   1    0.06    0.05
   3   3 -13    3.34    0.15
   3   3 -13    3.60    0.15
   2   1 -11    0.92    0.07
   2   1 -11    0.84    0.07
   1  -1  -9   14.09    0.24
   1  -1  -9   13.16    0.24
   1  -1  -9   13.99    0.22
  -1   1   9   13.89    0.23
  -1   1   9   13.95    0.23
   0  -3  -7   10.73    0.18
   0  -3  -7   10.74    0.19
   0  -3  -7   10.28    0.19
   0   3   7   10.78    0.19
   0   3   7   10.70    0.19
  -1  -5  -5    0.72    0.05
  -1  -5  -5    0.73    0.05
  -1  -5  -5    0.64    0.05
   1   5   5    0.70    0.05
   1   5   5    0.68    0.05
  -2  -7  -3    3.42    0.11
  -2  -7  -3    3.58    0.11
  -2  -7  -3    3.53    0.11
   2   7   3    3.48    0.10
   2   7   3    3.36    0.10
  -3  -9  -1    0.46    0.05
  -3  -9  -1    0.41    0.04
  -3  -9  -1    0.53    0.06
  -4 -11   1    0.49    0.07
   4   4 -15    0.17    0.07
   3   2 -13    4.47    0.16
   3   2 -13    4.63    0.17
   2   0 -11   18.32    0.32
   2   0 -11   17.63    0.32
   1  -2  -9    0.16    0.03
   1  -2  -9    0.08    0.02
   1  -2  -9    0.12    0.03
  -1   2   9    0.19    0.03
  -1   2   9    0.07    0.03
   0  -4  -7   66.69    0.87
   0  -4  -7   66.72    0.85
   0  -4  -7   67.48    0.86
   0   4   7   67.67    0.89
   0   4   7   65.13    0.89
  -1  -6  -5    0.11    0.03
  -1  -6  -5    0.10    0.02
  -1  -6  -5    0.11    0.03
   1   6   5    0.07    0.02
   1   6   5    0.15    0.03
  -2  -8  -3    0.07    0.03
  -2  -8  -3    0.08    0.03
  -2  -8  -3    0.08    0.04
   2   8   3    0.02    0.02
   2   8   3    0.04    0.03
  -3 -10  -1    0.19    0.05
   4   3 -15    0.33    0.08
   3   1 -13    0.55    0.06
   3   1 -13    0.78    0.08
   2  -1 -11    7.99    0.19
   2  -1 -11    8.07    0.19
  -2   1  11    8.06    0.17
  -2   1  11    8.10    0.16
   1  -3  -9    9.30    0.19
   1  -3  -9    9.77    0.20
  -1   3   9    9.43    0.18
  -1   3   9    9.63    0.19
   0  -5  -7    7.85    0.17
   0  -5  -7    8.04    0.16
   0  -5  -7    7.79    0.17
   0   5   7    7.67    0.16
   0   5   7    7.60    0.16
  -1  -7  -5    0.27    0.04
  -1  -7  -5    0.33    0.04
  -1  -7  -5    0.21    0.03
   1   7   5    0.20    0.03
   1   7   5    0.23    0.04
  -2  -9  -3    0.22    0.05
  -2  -9  -3    0.21    0.04
  -2  -9  -3    0.15    0.03
   2   9   3    0.16    0.04
   2   9   3    0.19    0.03
  -3 -11  -1    0.39    0.07
   4   2 -15    0.00    0.06
   3   0 -13    3.62    0.15
   3   0 -13    3.55    0.14
   2  -2 -11    6.83    0.17
   2  -2 -11    7.03    0.18
  -2   2  11    6.90    0.16
  -2   2  11    6.99    0.16
   1  -4  -9    0.71    0.06
   1  -4  -9    0.69    0.06
  -1   4   9    0.67    0.06
  -1   4   9    0.62    0.06
   0  -6  -7    0.37    0.05
   0  -6  -7    0.25    0.04
   0  -6  -7    0.22    0.03
   0   6   7    0.30    0.04
   0   6   7    0.28    0.03
  -1  -8  -5    0.18    0.03
  -1  -8  -5    0.23    0.05
  -1  -8  -5    0.22    0.04
   1   8   5    0.20    0.03
   1   8   5    0.21    0.04
  -2 -10  -3    0.29    0.06
   4   1 -15    0.07    0.06
   3  -1 -13    0.45    0.07
   3  -1 -13    0.43    0.06
   2  -3 -11    0.34    0.05
   2  -3 -11    0.20    0.04
  -2   3  11    0.27    0.04
  -2   3  11    0.20    0.03
   1  -5  -9    3.18    0.12
   1  -5  -9    3.52    0.12
  -1   5   9    3.33    0.11
  -1   5   9    3.41    0.11
   0  -7  -7    0.03    0.02
   0  -7  -7    0.02    0.03
   0  -7  -7    0.03    0.03
   0   7   7    0.03    0.03
   0   7   7   -0.03    0.02
  -1  -9  -5    4.99    0.15
  -1  -9  -5    4.99    0.15
  -1  -9  -5    5.04    0.16
   1   9   5    5.00    0.15
   1   9   5    5.01    0.15
  -2 -11  -3    1.98    0.12
   4   0 -15    0.60    0.08
   3  -2 -13    0.03    0.05
   3  -2 -13    0.00    0.03
  -3   2  13    0.01    0.03
   2  -4 -11    1.71    0.10
   2  -4 -11    1.67    0.10
  -2   4  11    1.70    0.09
  -2   4  11    1.75    0.09
   1  -6  -9    0.04    0.03
   1  -6  -9    0.03    0.03
  -1   6   9    0.06    0.03
  -1   6   9    0.01    0.03
   0  -8  -7    1.07    0.09
   0  -8  -7    1.03    0.08
   0   8   7    1.06    0.08
   0   8   7    0.96    0.08
  -1 -10  -5    1.15    0.10
   1  10   5    0.87    0.09
   4  -1 -15    4.79    0.19
   3  -3 -13    0.04    0.04
  -3   3  13    0.03    0.03
  -3   3  13    0.03    0.03
   2  -5 -11    0.99    0.08
   2  -5 -11    1.05    0.09
  -2   5  11    0.88    0.08
  -2   5  11    1.01    0.08
   1  -7  -9    0.25    0.05
   1  -7  -9    0.27    0.05
  -1   7   9    0.17    0.04
  -1   7   9    0.26    0.05
   0  -9  -7    1.91    0.11
   0   9   7    1.90    0.11
  -1 -11  -5    0.05    0.05
   1  11   5    0.06    0.05
   4  -2 -15   -0.06    0.06
   3  -4 -13    0.23    0.06
  -3   4  13    0.22    0.05
   2  -6 -11    1.08    0.10
  -2   6  11    1.09    0.09
   1  -8  -9    1.26    0.10
  -1   8   9    1.30    0.10
   0 -10  -7    2.18    0.13
   0  10   7    2.17    0.12
   4  -3 -15    3.15    0.16
   3  -5 -13    1.22    0.11
  -3   5  13    1.29    0.10
   2  -7 -11   -0.02    0.05
  -2   7  11    0.04    0.05
   1  -9  -9    1.74    0.12
  -1   9   9    1.81    0.12
   3  -6 -13    6.53    0.21
  -3   6  13    6.02    0.19
   2  -8 -11    0.03    0.05
  -2   8  11    0.08    0.05
  -6  10   4    0.04    0.05
  -7   8   6    0.03    0.04
  -8   6   8    1.70    0.11
  -5  11   2    0.93    0.10
  -6   9   4    0.18    0.05
  -7   7   6    0.31    0.05
  -8   5   8    0.64    0.07
   4 -12   0    0.14    0.06
  -5  10   2    1.02    0.09
   5 -10  -2    0.87    0.09
  -6   8   4    0.01    0.04
   6  -8  -4    0.03    0.04
  -7   6   6    4.72    0.15
  -8   4   8    0.57    0.06
   3 -13   2    0.05    0.05
   4 -11   0    0.92    0.09
  -5   9   2   -0.03    0.02
  -5   9   2   -0.01    0.03
   5  -9  -2    0.00    0.04
   5  -9  -2    0.00    0.03
  -6   7   4    1.80    0.10
  -6   7   4    1.89    0.10
   6  -7  -4    1.92    0.09
  -7   5   6    1.60    0.10
   7  -5  -6    1.71    0.10
  -8   3   8    2.03    0.11
   3 -12   2    0.07    0.05
  -4  10   0    0.50    0.05
   4 -10   0    0.47    0.05
   4 -10   0    0.57    0.06
  -5   8   2    0.01    0.02
  -5   8   2    0.07    0.03
   5  -8  -2    0.04    0.03
   5  -8  -2    0.06    0.03
  -6   6   4    9.36    0.21
  -6   6   4    9.36    0.21
   6  -6  -4    9.55    0.20
   6  -6  -4    9.50    0.20
  -7   4   6    3.04    0.11
  -7   4   6    3.05    0.12
   7  -4  -6    3.02    0.12
  -8   2   8    0.11    0.04
   2 -13   4   -0.02    0.05
   3 -11   2    0.09    0.04
   3 -11   2    0.08    0.04
  -4   9   0    0.78    0.06
  -4   9   0    0.76    0.07
   4  -9   0    0.78    0.07
   4  -9   0    0.83    0.07
  -5   7   2    0.76    0.06
  -5   7   2    0.79    0.06
   5  -7  -2    0.79    0.06
   5  -7  -2    0.82    0.06
  -6   5   4    2.85    0.11
  -6   5   4    2.85    0.11
   6  -5  -4    2.91    0.10
   6  -5  -4    2.90    0.10
  -7   3   6    0.14    0.03
  -7   3   6    0.13    0.03
   7  -3  -6    0.18    0.04
   7  -3  -6    0.16    0.04
  -8   1   8    0.33    0.05
   2 -12   4    0.17    0.05
   3 -10   2    0.76    0.08
   3 -10   2    0.79    0.07
  -4   8   0    1.25    0.07
  -4   8   0    1.28    0.07
   4  -8   0    1.22    0.07
   4  -8   0    1.25    0.07
  -5   6   2    3.42    0.11
  -5   6   2    3.34    0.11
   5  -6  -2    3.54    0.10
   5  -6  -2    3.43    0.10
  -6   4   4    4.16    0.12
  -6   4   4    4.03    0.12
   6  -4  -4    4.32    0.12
   6  -4  -4    4.36    0.12
  -7   2   6    0.37    0.04
  -7   2   6    0.32    0.04
   7  -2  -6    0.38    0.05
   7  -2  -6    0.44    0.05
   8   0  -8    0.57    0.08
   1 -13   6   -0.06    0.05
  -2  11  -4    0.93    0.10
   2 -11   4    1.17    0.08
   2 -11   4    1.06    0.08
  -3   9  -2    4.97    0.15
   3  -9   2    5.03    0.13
   3  -9   2    5.25    0.13
  -4   7   0    2.93    0.09
  -4   7   0    2.98    0.09
   4  -7   0    2.84    0.09
   4  -7   0    2.94    0.09
  -5   5   2   21.05    0.34
  -5   5   2   23.05    0.35
   5  -5  -2   21.90    0.32
   5  -5  -2   22.25    0.33
  -6   3   4    4.97    0.13
  -6   3   4    5.17    0.13
   6  -3  -4    4.96    0.13
   6  -3  -4    4.97    0.13
  -7   1   6    8.74    0.19
  -7   1   6    9.16    0.19
   7  -1  -6    8.81    0.21
   7  -1  -6    9.05    0.21
   8   1  -8    0.99    0.10
   1 -12   6    0.37    0.06
  -2  10  -4    0.52    0.05
   2 -10   4    0.90    0.07
   2 -10   4    0.80    0.07
  -3   8  -2    3.11    0.09
  -3   8  -2    3.18    0.09
  -3   8  -2    3.09    0.11
   3  -8   2    3.35    0.10
   3  -8   2    3.10    0.10
  -4   6   0    3.39    0.10
  -4   6   0    3.45    0.10
  -4   6   0    3.53    0.10
   4  -6   0    3.43    0.09
   4  -6   0    3.39    0.09
  -5   4   2    7.35    0.15
  -5   4   2    7.05    0.15
   5  -4  -2    7.08    0.14
   5  -4  -2    7.14    0.14
  -6   2   4    3.23    0.10
  -6   2   4    3.32    0.10
   6  -2  -4    3.15    0.11
   6  -2  -4    3.43    0.11
  -7   0   6   10.52    0.21
  -7   0   6   11.14    0.22
   7   0  -6   11.05    0.24
   7   0  -6   10.97    0.24
   8   2  -8    1.44    0.11
   0 -13   8    0.12    0.06
   1 -11   6    0.21    0.05
   1 -11   6    0.22    0.05
  -2   9  -4    6.34    0.17
   2  -9   4    6.35    0.15
   2  -9   4    6.33    0.15
  -3   7  -2    3.58    0.09
  -3   7  -2    3.45    0.11
  -3   7  -2    3.52    0.09
   3  -7   2    3.63    0.09
   3  -7   2    3.49    0.09
  -4   5   0    9.98    0.18
  -4   5   0    9.82    0.18
  -4   5   0    9.95    0.17
   4  -5   0    9.67    0.16
   4  -5   0    9.80    0.16
  -5   3   2   20.62    0.32
  -5   3   2   20.42    0.32
   5  -3  -2   20.33    0.30
   5  -3  -2   20.63    0.30
  -6   1   4    6.11    0.14
  -6   1   4    6.05    0.14
   6  -1  -4    5.85    0.15
   6  -1  -4    5.77    0.14
  -7  -1   6    2.65    0.10
  -7  -1   6    2.73    0.10
   7   1  -6    2.74    0.12
  -8  -3   8    1.66    0.11
   0 -12   8    0.43    0.07
  -1  10  -6    0.31    0.05
   1 -10   6    0.39    0.05
   1 -10   6    0.41    0.05
  -2   8  -4    3.29    0.12
   2  -8   4    3.29    0.09
   2  -8   4    3.34    0.10
  -3   6  -2    5.35    0.11
  -3   6  -2    5.14    0.12
  -3   6  -2    4.99    0.11
   3  -6   2    5.03    0.10
   3  -6   2    5.11    0.10
  -4   4   0   26.80    0.38
  -4   4   0   27.07    0.39
  -4   4   0   27.15    0.38
   4  -4   0   26.68    0.36
   4  -4   0   26.96    0.35
  -5   2   2    0.11    0.02
  -5   2   2    0.11    0.02
   5  -2  -2    0.11    0.02
   5  -2  -2    0.18    0.03
  -6   0   4   28.50    0.42
  -6   0   4   28.12    0.42
   6   0  -4   28.98    0.43
  -7  -2   6    2.70    0.10
   7   2  -6    2.63    0.12
  -8  -4   8    0.32    0.06
   0 -11   8    1.57    0.11
  -1   9  -6    2.12    0.11
   1  -9   6    2.10    0.09
   1  -9   6    2.17    0.09
  -2   7  -4    3.82    0.12
   2  -7   4    3.88    0.10
   2  -7   4    3.74    0.09
  -3   5  -2    0.75    0.04
  -3   5  -2    0.80    0.04
  -3   5  -2    0.90    0.05
   3  -5   2    0.76    0.04
   3  -5   2    0.81    0.04
  -4   3   0    6.18    0.12
  -4   3   0    6.13    0.12
  -4   3   0    6.06    0.11
   4  -3   0    6.07    0.11
   4  -3   0    6.00    0.10
  -5   1   2    1.64    0.06
  -5   1   2    1.62    0.06
   5  -1  -2    1.66    0.06
   5  -1  -2    1.64    0.06
  -6  -1   4    3.66    0.10
  -6  -1   4    3.57    0.10
  -6  -1   4    3.69    0.10
   6   1  -4    3.81    0.12
  -7  -3   6    1.28    0.08
  -8  -5   8    0.01    0.04
  -1 -12  10    0.07    0.05
   0  10  -8    1.55    0.12
   0 -10   8    1.52    0.09
   0 -10   8    1.49    0.09
  -1   8  -6    7.07    0.18
   1  -8   6    7.13    0.15
   1  -8   6    6.81    0.15
  -2   6  -4    2.41    0.06
  -2   6  -4    2.32    0.08
  -2   6  -4    2.32    0.06
   2  -6   4    2.35    0.07
   2  -6   4    2.38    0.07
  -3   4  -2    4.43    0.09
  -3   4  -2    4.53    0.10
  -3   4  -2    4.43    0.09
   3  -4   2    4.43    0.08
   3  -4   2    4.32    0.08
  -4   2   0   20.32    0.28
  -4   2   0   20.41    0.30
  -4   2   0   20.28    0.30
   4  -2   0   20.23    0.27
   4  -2   0   20.00    0.27
  -5   0   2    7.43    0.14
  -5   0   2    7.61    0.15
  -5   0   2    7.71    0.15
   5   0  -2    7.65    0.15
  -6  -2   4    0.02    0.02
  -6  -2   4    0.01    0.02
  -6  -2   4    0.05    0.02
  -6  -2   4    0.01    0.02
  -7  -4   6    0.19    0.04
  -7  -4   6    0.22    0.04
  -8  -6   8    0.29    0.07
  -1 -11  10    3.86    0.15
   0  -9   8    0.92    0.07
   0  -9   8    0.91    0.07
  -1   7  -6    2.72    0.10
   1  -7   6    2.74    0.08
   1  -7   6    2.47    0.08
  -2   5  -4   28.49    0.38
  -2   5  -4   29.29    0.42
  -2   5  -4   28.06    0.38
   2  -5   4   28.22    0.37
   2  -5   4   28.84    0.37
  -3   3  -2    7.77    0.13
  -3   3  -2    8.44    0.14
  -3   3  -2    7.77    0.14
   3  -3   2    7.83    0.11
  -4   1   0   88.66    1.14
  -4   1   0   92.28    1.15
  -4   1   0   90.62    1.16
   4  -1   0   88.39    1.08
   4  -1   0   88.17    1.07
  -5  -1   2    0.46    0.04
  -5  -1   2    0.54    0.03
  -5  -1   2    0.48    0.04
  -5  -1   2    0.54    0.04
  -5  -1   2    0.50    0.03
  -6  -3   4    0.05    0.02
  -6  -3   4    0.05    0.02
  -6  -3   4    0.07    0.03
  -6  -3   4    0.05    0.02
  -7  -5   6    0.47    0.06
  -7  -5   6    0.36    0.05
  -1 -10  10    1.23    0.09
   0   8  -8    6.57    0.18
   0  -8   8    6.89    0.16
   0  -8   8    6.62    0.15
  -1   6  -6    2.85    0.10
   1  -6   6    2.80    0.08
   1  -6   6    2.91    0.08
  -2   4  -4  133.60    1.71
  -2   4  -4  137.52    1.74
  -2   4  -4  135.81    1.74
   2  -4   4  137.80    1.59
   2  -4   4  135.35    1.61
  -3   2  -2   26.52    0.37
  -3   2  -2   26.48    0.36
  -3   2  -2   26.60    0.36
   3  -2   2   26.12    0.31
  -4   0   0   12.24    0.19
  -4   0   0   12.03    0.19
  -4   0   0   12.01    0.19
  -4   0   0   12.25    0.17
  -4   0   0   11.96    0.17
  -5  -2   2    0.64    0.04
  -5  -2   2    0.68    0.04
  -5  -2   2    0.64    0.04
  -5  -2   2    0.77    0.04
  -5  -2   2    0.70    0.04
  -6  -4   4    0.35    0.04
  -6  -4   4    0.48    0.05
  -7  -6   6    4.76    0.15
   1   9 -10    0.10    0.04
  -1  -9  10    0.17    0.05
  -1  -9  10    0.18    0.04
   0   7  -8    3.09    0.12
   0  -7   8    3.17    0.10
   0  -7   8    3.22    0.10
  -1   5  -6   17.64    0.29
   1  -5   6   17.93    0.25
   1  -5   6   18.10    0.26
  -2   3  -4  111.55    1.46
  -2   3  -4  114.66    1.44
  -2   3  -4  113.90    1.46
   2  -3   4  112.71    1.32
  -3   1  -2    3.66    0.08
  -3   1  -2    3.62    0.08
  -3   1  -2    3.70    0.08
  -4  -1   0    5.73    0.11
  -4  -1   0    5.26    0.09
  -4  -1   0    5.29    0.10
  -4  -1   0    5.31    0.09
  -4  -1   0    5.37    0.11
  -5  -3   2   10.13    0.18
  -5  -3   2   10.11    0.18
  -5  -3   2   10.31    0.18
  -5  -3   2   10.32    0.18
  -5  -3   2   10.37    0.18
  -6  -5   4    4.21    0.12
  -6  -5   4    4.24    0.12
  -7  -7   6    0.74    0.07
  -2 -10  12    0.07    0.05
   1   8 -10    1.73    0.11
  -1  -8  10    1.67    0.09
  -1  -8  10    1.67    0.09
   0   6  -8    8.37    0.19
   0  -6   8    8.15    0.16
   0  -6   8    8.29    0.16
  -1   4  -6    0.61    0.05
  -1   4  -6    0.63    0.02
  -1   4  -6    0.63    0.02
   1  -4   6    0.60    0.03
   1  -4   6    0.59    0.03
  -2   2  -4   16.45    0.23
  -2   2  -4   16.25    0.25
  -2   2  -4   15.80    0.23
   2  -2   4   15.50    0.20
  -3   0  -2   29.75    0.41
  -3   0  -2   30.63    0.36
  -3   0  -2   31.26    0.41
  -3   0  -2   29.67    0.41
  -4  -2   0    0.05    0.02
  -4  -2   0    0.04    0.01
  -4  -2   0    0.02    0.01
  -4  -2   0    0.04    0.01
  -4  -2   0    0.02    0.01
  -5  -4   2   20.67    0.31
  -5  -4   2   20.50    0.31
  -5  -4   2   20.43    0.31
  -5  -4   2   20.31    0.31
  -5  -4   2   20.41    0.31
  -6  -6   4    2.19    0.10
  -6  -6   4    2.35    0.10
  -7  -8   6    0.98    0.09
  -2  -9  12    0.06    0.05
   1   7 -10    0.81    0.09
  -1  -7  10    0.90    0.07
  -1  -7  10    0.90    0.07
   0   5  -8    0.29    0.03
   0  -5   8    0.44    0.04
   0  -5   8    0.50    0.04
  -1   3  -6   13.97    0.23
  -1   3  -6   13.88    0.19
  -1   3  -6   14.18    0.19
   1  -3   6   13.76    0.19
   1  -3   6   13.68    0.20
  -2   1  -4    7.73    0.14
  -2   1  -4    7.61    0.13
  -2   1  -4    7.65    0.12
  -2   1  -4    7.68    0.10
  -3  -1  -2   25.52    0.36
  -3  -1  -2   26.46    0.36
  -3  -1  -2   25.78    0.36
  -3  -1  -2   26.26    0.32
  -3  -1  -2   25.65    0.32
  -4  -3   0    0.38    0.03
  -4  -3   0    0.45    0.03
  -4  -3   0    0.46    0.03
  -4  -3   0    0.40    0.04
  -4  -3   0    0.41    0.03
  -5  -5   2    3.19    0.10
  -5  -5   2    3.06    0.09
  -5  -5   2    2.99    0.10
  -6  -7   4    4.56    0.14
  -6  -7   4    4.76    0.15
   2   8 -12    0.29    0.05
  -2  -8  12    0.40    0.06
   1   6 -10    2.13    0.10
  -1  -6  10    2.25    0.09
  -1  -6  10    2.02    0.08
   0   4  -8    0.08    0.02
   0  -4   8    0.11    0.02
   0  -4   8    0.10    0.02
  -1   2  -6   21.82    0.33
  -1   2  -6   21.94    0.29
  -1   2  -6   21.83    0.29
   1  -2   6   21.45    0.29
  -2   0  -4    2.27    0.04
  -2   0  -4    2.33    0.06
  -2   0  -4    2.28    0.06
  -2   0  -4    2.32    0.06
  -3  -2  -2    3.75    0.07
  -3  -2  -2    3.79    0.09
  -3  -2  -2    3.66    0.08
  -3  -2  -2    3.66    0.07
  -3  -2  -2    3.66    0.08
  -4  -4   0   28.75    0.41
  -4  -4   0   28.59    0.41
  -4  -4   0   28.86    0.40
  -4  -4   0   28.82    0.39
  -4  -4   0   29.10    0.41
  -5  -6   2    6.12    0.15
  -5  -6   2    5.91    0.15
  -5  -6   2    6.03    0.14
  -6  -8   4    2.73    0.12
   2   7 -12    5.33    0.17
  -2  -7  12    5.21    0.15
  -2  -7  12    5.49    0.16
   1   5 -10    5.16    0.14
  -1  -5  10    5.15    0.13
  -1  -5  10    5.00    0.13
   0   3  -8    8.33    0.17
   0  -3   8    8.37    0.15
   0  -3   8    8.52    0.15
  -1   1  -6    4.75    0.09
  -1   1  -6    4.75    0.10
  -1   1  -6    4.74    0.09
  -1   1  -6    4.65    0.09
   1  -1   6    4.71    0.08
  -2  -1  -4   32.91    0.45
  -2  -1  -4   33.23    0.45
  -2  -1  -4   33.23    0.41
  -2  -1  -4   34.11    0.46
  -2  -1  -4   33.73    0.42
  -3  -3  -2   10.05    0.17
  -3  -3  -2    9.72    0.17
  -3  -3  -2    9.66    0.15
  -3  -3  -2    9.77    0.15
  -3  -3  -2    9.64    0.17
  -4  -5   0   22.14    0.34
  -4  -5   0   22.61    0.33
  -4  -5   0   21.93    0.33
  -4  -5   0   22.49    0.33
  -5  -7   2    1.03    0.07
  -5  -7   2    1.06    0.07
  -5  -7   2    1.05    0.07
  -6  -9   4    0.14    0.05
  -3  -8  14    0.09    0.05
   2   6 -12    1.38    0.10
  -2  -6  12    1.47    0.09
  -2  -6  12    1.39    0.09
   1   4 -10    0.18    0.03
  -1  -4  10    0.24    0.03
  -1  -4  10    0.24    0.04
   0   2  -8    1.93    0.07
   0   2  -8    2.04    0.07
   0  -2   8    1.91    0.05
   0  -2   8    1.93    0.06
   0  -2   8    1.98    0.05
  -1   0  -6   25.41    0.34
  -1   0  -6   24.91    0.36
  -1   0  -6   24.86    0.33
  -1   0  -6   25.08    0.34
   1   0   6   25.28    0.34
  -2  -2  -4   83.15    1.06
  -2  -2  -4   83.56    1.06
  -2  -2  -4   81.89    0.99
  -2  -2  -4   83.97    1.01
   2   2   4   84.05    1.06
  -3  -4  -2    6.69    0.13
  -3  -4  -2    6.62    0.13
  -3  -4  -2    6.61    0.14
  -3  -4  -2    6.76    0.12
   3   4   2    6.64    0.13
  -4  -6   0    6.80    0.15
  -4  -6   0    6.83    0.14
  -4  -6   0    7.03    0.15
  -4  -6   0    6.57    0.15
   4   6   0    7.10    0.14
  -5  -8   2    0.02    0.03
  -5  -8   2    0.05    0.03
  -5  -8   2    0.05    0.04
  -3  -7  14    0.24    0.06
  -2  -5  12    0.23    0.05
   1   3 -10    0.11    0.03
   1   3 -10    0.11    0.03
  -1  -3  10    0.14    0.03
   0   1  -8    1.20    0.06
   0   1  -8    1.24    0.06
   0   1  -8    1.31    0.06
   0  -1   8    1.23    0.05
   0  -1   8    1.19    0.04
  -1  -1  -6    4.84    0.10
  -1  -1  -6    4.81    0.09
  -1  -1  -6    4.75    0.10
   1   1   6    4.91    0.10
   1   1   6    4.74    0.10
  -2  -3  -4   49.69    0.66
  -2  -3  -4   49.67    0.65
  -2  -3  -4   48.84    0.62
  -2  -3  -4   49.10    0.61
   2   3   4   47.83    0.65
  -3  -5  -2    1.53    0.06
  -3  -5  -2    1.57    0.07
  -3  -5  -2    1.52    0.06
  -3  -5  -2    1.51    0.06
   3   5   2    1.61    0.06
  -4  -7   0    3.68    0.11
  -4  -7   0    3.82    0.12
  -4  -7   0    3.71    0.12
   4   7   0    3.72    0.11
  -5  -9   2    3.21    0.13
  -3  -6  14    1.06    0.10
   2   4 -12    1.80    0.11
  -2  -4  12    1.90    0.10
   1   2 -10    6.93    0.15
   1   2 -10    7.03    0.16
   0   0  -8    1.53    0.06
   0   0  -8    1.54    0.06
   0   0  -8    1.56    0.06
  -1  -2  -6    5.55    0.12
  -1  -2  -6    5.62    0.11
  -1  -2  -6    5.58    0.11
   1   2   6    5.71    0.11
   1   2   6    5.87    0.11
  -2  -4  -4   14.49    0.22
  -2  -4  -4   14.31    0.22
  -2  -4  -4   14.42    0.24
   2   4   4   14.57    0.23
   2   4   4   14.65    0.23
  -3  -6  -2    3.20    0.10
  -3  -6  -2    3.14    0.10
  -3  -6  -2    3.12    0.09
   3   6   2    3.27    0.09
   3   6   2    3.19    0.09
  -4  -8   0    6.57    0.16
  -4  -8   0    6.49    0.16
  -4  -8   0    6.71    0.17
  -5 -10   2    0.46    0.07
  -3  -5  14    2.83    0.13
   2   3 -12    5.97    0.17
  -2  -3  12    6.17    0.16
   1   1 -10    4.62    0.11
   1   1 -10    4.54    0.13
   1   1 -10    4.72    0.13
  -1  -1  10    4.50    0.10
   0  -1  -8   13.64    0.22
   0  -1  -8   13.57    0.22
   0  -1  -8   13.26    0.22
   0   1   8   13.38    0.21
   0   1   8   13.43    0.22
  -1  -3  -6    9.74    0.17
  -1  -3  -6    9.70    0.17
  -1  -3  -6    9.95    0.17
   1   3   6    9.93    0.17
   1   3   6   10.19    0.17
  -2  -5  -4   16.15    0.27
  -2  -5  -4   16.35    0.25
  -2  -5  -4   16.42    0.26
   2   5   4   16.58    0.26
   2   5   4   16.68    0.26
  -3  -7  -2    0.07    0.03
  -3  -7  -2    0.03    0.03
  -3  -7  -2    0.08    0.03
   3   7   2    0.03    0.02
   3   7   2    0.10    0.03
  -4  -9   0    3.70    0.13
  -4  -9   0    3.71    0.13
   2   2 -12    3.55    0.14
   2   2 -12    3.60    0.13
   1   0 -10    4.61    0.13
   1   0 -10    4.63    0.11
   1   0 -10    4.63    0.13
  -1   0  10    4.74    0.11
  -1   0  10    4.65    0.11
   0  -2  -8    9.61    0.17
   0  -2  -8    9.64    0.18
   0  -2  -8    9.77    0.18
   0   2   8    9.70    0.17
   0   2   8    9.63    0.17
  -1  -4  -6    0.68    0.05
  -1  -4  -6    0.72    0.05
  -1  -4  -6    0.69    0.05
   1   4   6    0.70    0.05
   1   4   6    0.76    0.05
  -2  -6  -4    0.28    0.03
  -2  -6  -4    0.24    0.03
  -2  -6  -4    0.28    0.04
   2   6   4    0.30    0.04
   2   6   4    0.21    0.03
  -3  -8  -2    1.68    0.09
  -3  -8  -2    1.64    0.08
  -3  -8  -2    1.59    0.09
   3   8   2    1.52    0.07
   3   8   2    1.56    0.08
  -4 -10   0    2.65    0.12
   4   5 -16    0.39    0.09
   3   3 -14    0.11    0.05
   3   3 -14    0.18    0.06
   2   1 -12   10.60    0.23
   2   1 -12   10.22    0.23
   1  -1 -10   19.91    0.32
   1  -1 -10   19.93    0.33
  -1   1  10   18.85    0.30
  -1   1  10   19.35    0.30
   0  -3  -8    3.07    0.09
   0  -3  -8    2.75    0.08
   0  -3  -8    2.88    0.09
   0   3   8    2.99    0.09
   0   3   8    2.83    0.09
  -1  -5  -6    1.48    0.07
  -1  -5  -6    1.59    0.07
  -1  -5  -6    1.62    0.07
   1   5   6    1.46    0.07
   1   5   6    1.55    0.07
  -2  -7  -4    0.01    0.02
  -2  -7  -4   -0.02    0.03
  -2  -7  -4    0.00    0.02
   2   7   4    0.01    0.03
   2   7   4    0.03    0.02
  -3  -9  -2    2.27    0.10
  -3  -9  -2    2.33    0.11
  -4 -11   0    0.05    0.05
   4   4 -16    0.97    0.11
   3   2 -14    1.81    0.12
   3   2 -14    1.51    0.11
   2   0 -12    3.65    0.13
   2   0 -12    3.79    0.13
   1  -2 -10    0.19    0.03
   1  -2 -10    0.18    0.04
  -1   2  10    0.20    0.03
  -1   2  10    0.32    0.03
   0  -4  -8    0.03    0.02
   0  -4  -8    0.03    0.02
   0  -4  -8    0.03    0.02
   0   4   8    0.05    0.03
   0   4   8    0.03    0.02
  -1  -6  -6   13.14    0.24
  -1  -6  -6   13.28    0.24
  -1  -6  -6   13.54    0.24
   1   6   6   13.42    0.24
   1   6   6   13.30    0.24
  -2  -8  -4    0.03    0.03
  -2  -8  -4    0.09    0.04
  -2  -8  -4    0.06    0.03
   2   8   4    0.06    0.03
   2   8   4    0.03    0.03
  -3 -10  -2    1.04    0.09
   4   3 -16    0.75    0.10
   3   1 -14    1.47    0.11
   3   1 -14    1.56    0.11
   2  -1 -12    0.82    0.08
   2  -1 -12    0.72    0.07
  -2   1  12    0.64    0.06
  -2   1  12    0.81    0.06
   1  -3 -10    3.48    0.11
   1  -3 -10    3.58    0.12
  -1   3  10    3.39    0.10
  -1   3  10    3.31    0.11
   0  -5  -8   -0.05    0.02
   0  -5  -8    0.04    0.02
   0  -5  -8   -0.04    0.03
   0   5   8    0.03    0.02
   0   5   8    0.01    0.03
  -1  -7  -6    5.69    0.15
  -1  -7  -6    5.85    0.15
  -1  -7  -6    5.77    0.15
   1   7   6    5.56    0.15
   1   7   6    5.51    0.15
  -2  -9  -4    0.55    0.06
  -2  -9  -4    0.39    0.04
  -2  -9  -4    0.44    0.05
   2   9   4    0.48    0.06
   2   9   4    0.37    0.04
  -3 -11  -2    0.19    0.06
   4   2 -16    0.41    0.08
   3   0 -14    0.44    0.06
   3   0 -14    0.39    0.07
   2  -2 -12    0.09    0.03
   2  -2 -12    0.09    0.04
  -2   2  12    0.07    0.02
  -2   2  12    0.10    0.03
   1  -4 -10    4.35    0.13
   1  -4 -10    4.25    0.13
  -1   4  10    4.27    0.13
  -1   4  10    4.16    0.13
   0  -6  -8    8.16    0.19
   0  -6  -8    8.31    0.19
   0  -6  -8    8.25    0.17
   0   6   8    8.10    0.18
   0   6   8    8.26    0.18
  -1  -8  -6    0.07    0.03
  -1  -8  -6    0.04    0.02
  -1  -8  -6    0.08    0.04
   1   8   6    0.04    0.03
   1   8   6    0.04    0.04
  -2 -10  -4    1.42    0.10
   2  10   4    1.51    0.10
   4   1 -16    2.30    0.15
   3  -1 -14    0.31    0.06
   2  -3 -12    0.09    0.04
   2  -3 -12    0.05    0.04
  -2   3  12    0.10    0.04
  -2   3  12    0.05    0.03
   1  -5 -10    1.58    0.09
   1  -5 -10    1.59    0.09
  -1   5  10    1.46    0.08
  -1   5  10    1.49    0.08
   0  -7  -8    0.36    0.05
   0  -7  -8    0.41    0.05
   0   7   8    0.36    0.05
   0   7   8    0.36    0.04
  -1  -9  -6    0.29    0.04
  -1  -9  -6    0.33    0.06
   1   9   6    0.30    0.05
  -2 -11  -4    0.10    0.05
   4   0 -16    1.27    0.13
   3  -2 -14    1.71    0.12
   2  -4 -12    0.24    0.05
   2  -4 -12    0.20    0.04
  -2   4  12    0.20    0.04
  -2   4  12    0.11    0.03
   1  -6 -10    1.10    0.08
   1  -6 -10    1.16    0.09
  -1   6  10    0.99    0.08
  -1   6  10    1.18    0.09
   0  -8  -8    0.41    0.06
   0  -8  -8    0.33    0.06
   0   8   8    0.38    0.05
  -1 -10  -6    0.08    0.05
   1  10   6    0.01    0.04
   4  -1 -16    0.17    0.07
   3  -3 -14    0.01    0.05
  -3   3  14   -0.01    0.04
   2  -5 -12    1.45    0.10
  -2   5  12    1.31    0.10
   1  -7 -10    2.03    0.11
  -1   7  10    2.08    0.11
   0  -9  -8    0.04    0.05
   0   9   8   -0.02    0.04
   1  11   6    0.16    0.06
   3  -4 -14    3.27    0.15
  -3   4  14    3.11    0.13
   2  -6 -12    2.67    0.13
  -2   6  12    2.74    0.13
   1  -8 -10    0.27    0.06
  -1   8  10    0.22    0.06
   0 -10  -8    0.08    0.05
   0  10   8   -0.02    0.05
   3  -5 -14    3.63    0.16
  -3   5  14    3.47    0.15
   2  -7 -12    2.28    0.13
  -2   7  12    2.32    0.13
   1  -9 -10    0.07    0.06
  -1   9  10   -0.03    0.05
  -6  11   3    0.56    0.07
  -7   9   5    0.05    0.05
  -6  10   3    0.55    0.07
  -7   8   5    0.42    0.06
  -8   6   7    0.02    0.04
  -6   9   3    3.28    0.13
  -7   7   5    0.27    0.05
  -8   5   7    0.52    0.06
  -9   3   9    0.65    0.08
  -5  10   1    0.60    0.06
  -5  10   1    0.87    0.08
  -6   8   3    0.85    0.08
  -6   8   3    0.91    0.08
  -7   6   5    3.34    0.13
  -8   4   7    0.89    0.09
  -5   9   1    0.30    0.04
  -5   9   1    0.31    0.05
  -6   7   3    1.49    0.09
  -6   7   3    1.41    0.09
  -7   5   5    1.66    0.09
  -7   5   5    1.63    0.09
  -8   3   7    0.43    0.05
  -5   8   1    0.28    0.03
  -5   8   1    0.28    0.04
  -6   6   3    0.46    0.05
  -6   6   3    0.63    0.06
  -7   4   5    0.33    0.04
  -7   4   5    0.44    0.05
  -8   2   7    0.12    0.04
  -3  11  -3    2.79    0.13
   3 -11   3    2.88    0.11
  -4   9  -1    0.28    0.04
  -4   9  -1    0.20    0.03
   4  -9   1    0.24    0.04
  -5   7   1    0.10    0.03
  -5   7   1    0.16    0.03
  -6   5   3    0.03    0.03
  -6   5   3    0.01    0.02
  -7   3   5    0.24    0.03
  -7   3   5    0.34    0.05
  -8   1   7    8.44    0.20
  -8   1   7    8.82    0.20
   2 -12   5    0.01    0.05
  -3  10  -3    4.15    0.15
   3 -10   3    4.35    0.13
   3 -10   3    4.44    0.13
  -4   8  -1    0.15    0.03
  -4   8  -1    0.19    0.03
   4  -8   1    0.22    0.04
   4  -8   1    0.24    0.03
  -5   6   1    0.53    0.05
  -5   6   1    0.57    0.05
   5  -6  -1    0.55    0.05
   5  -6  -1    0.55    0.05
  -6   4   3   21.10    0.35
  -6   4   3   21.75    0.35
  -7   2   5    1.74    0.08
  -7   2   5    1.65    0.08
  -8   0   7    8.07    0.19
   1 -13   7    0.37    0.07
  -2  11  -5    0.30    0.05
   2 -11   5    0.43    0.05
   2 -11   5    0.43    0.06
  -3   9  -3    2.77    0.11
   3  -9   3    2.99    0.10
   3  -9   3    2.90    0.10
  -4   7  -1    0.10    0.03
  -4   7  -1    0.08    0.02
  -4   7  -1    0.09    0.02
   4  -7   1    0.13    0.03
   4  -7   1    0.14    0.03
  -5   5   1   27.74    0.41
  -5   5   1   28.06    0.42
   5  -5  -1   27.65    0.38
   5  -5  -1   27.62    0.39
  -6   3   3   20.98    0.33
  -6   3   3   20.18    0.33
  -7   1   5    1.33    0.07
  -7   1   5    1.31    0.07
   1 -12   7    0.11    0.05
  -2  10  -5    0.05    0.03
   2 -10   5    0.07    0.03
   2 -10   5    0.04    0.04
  -3   8  -3    4.02    0.12
   3  -8   3    3.91    0.11
   3  -8   3    4.02    0.10
  -4   6  -1   15.60    0.26
  -4   6  -1   15.92    0.25
  -4   6  -1   15.88    0.25
   4  -6   1   15.72    0.23
   4  -6   1   15.69    0.24
  -5   4   1    4.41    0.11
  -5   4   1    4.37    0.11
   5  -4  -1    4.23    0.10
   5  -4  -1    4.14    0.10
  -6   2   3    8.87    0.18
  -6   2   3    8.56    0.18
   6  -2  -3    8.66    0.18
   6  -2  -3    8.78    0.17
  -7   0   5    6.90    0.16
  -7   0   5    6.91    0.16
   7   0  -5    6.92    0.19
   1 -11   7   -0.05    0.04
   1 -11   7   -0.03    0.03
  -2   9  -5    0.12    0.04
   2  -9   5    0.20    0.04
   2  -9   5    0.12    0.03
  -3   7  -3    0.05    0.02
  -3   7  -3    0.07    0.02
  -3   7  -3    0.06    0.02
   3  -7   3    0.08    0.02
   3  -7   3    0.04    0.02
  -4   5  -1   12.05    0.20
  -4   5  -1   12.22    0.20
  -4   5  -1   11.81    0.21
   4  -5   1   12.11    0.19
   4  -5   1   12.33    0.18
  -5   3   1   21.00    0.33
  -5   3   1   22.11    0.33
   5  -3  -1   21.90    0.30
   5  -3  -1   21.62    0.31
  -6   1   3    0.18    0.03
  -6   1   3    0.14    0.02
   6  -1  -3    0.15    0.03
   6  -1  -3    0.12    0.03
  -7  -1   5   17.25    0.29
  -7  -1   5   16.58    0.29
   0 -12   9   -0.03    0.05
  -1  10  -7    0.22    0.05
   1 -10   7    0.33    0.05
   1 -10   7    0.32    0.05
  -2   8  -5    0.31    0.04
   2  -8   5    0.54    0.05
   2  -8   5    0.39    0.04
  -3   6  -3    0.36    0.03
  -3   6  -3    0.24    0.03
  -3   6  -3    0.39    0.04
   3  -6   3    0.33    0.03
   3  -6   3    0.35    0.03
  -4   4  -1   14.83    0.24
  -4   4  -1   14.86    0.24
  -4   4  -1   14.76    0.24
   4  -4   1   14.92    0.21
   4  -4   1   15.11    0.21
  -5   2   1    0.75    0.05
  -5   2   1    0.69    0.04
   5  -2  -1    0.68    0.04
   5  -2  -1    0.65    0.04
  -6   0   3   14.44    0.24
  -6   0   3   14.03    0.24
   6   0  -3   14.32    0.25
  -7  -2   5    3.79    0.11
  -7  -2   5    3.59    0.11
   0 -11   9    0.02    0.05
  -1   9  -7    1.20    0.09
   1  -9   7    1.15    0.07
   1  -9   7    1.15    0.07
  -2   7  -5    6.88    0.17
   2  -7   5    6.83    0.13
   2  -7   5    6.98    0.13
  -3   5  -3    5.58    0.13
  -3   5  -3    5.62    0.11
  -3   5  -3    5.58    0.11
   3  -5   3    5.55    0.10
   3  -5   3    5.51    0.10
  -4   3  -1   41.66    0.56
  -4   3  -1   41.44    0.55
  -4   3  -1   41.33    0.56
   4  -3   1   41.08    0.50
   4  -3   1   41.36    0.51
  -5   1   1    0.09    0.01
  -5   1   1    0.10    0.02
  -5   1   1    0.07    0.02
   5  -1  -1    0.10    0.02
   5  -1  -1    0.11    0.02
  -6  -1   3   11.23    0.21
  -6  -1   3   11.49    0.21
  -6  -1   3   11.88    0.20
   6   1  -3   11.56    0.22
   0 -10   9    2.87    0.11
   0 -10   9    2.99    0.12
  -1   8  -7    1.35    0.09
   1  -8   7    1.43    0.07
   1  -8   7    1.40    0.07
  -2   6  -5    9.67    0.20
   2  -6   5    9.86    0.16
   2  -6   5   10.06    0.16
  -3   4  -3   14.65    0.22
  -3   4  -3   14.73    0.22
  -3   4  -3   14.83    0.24
   3  -4   3   14.43    0.19
   3  -4   3   14.46    0.20
  -4   2  -1   14.92    0.23
  -4   2  -1   14.86    0.23
  -4   2  -1   14.83    0.23
   4  -2   1   14.85    0.19
  -5   0   1    2.89    0.08
  -5   0   1    2.95    0.07
  -5   0   1    2.95    0.07
  -5   0   1    2.91    0.08
   5   0  -1    2.91    0.08
  -6  -2   3   13.39    0.23
  -6  -2   3   13.22    0.22
  -6  -2   3   13.36    0.23
  -6  -2   3   13.63    0.23
  -7  -4   5    0.06    0.03
  -1 -11  11    0.40    0.07
   0   9  -9    1.02    0.10
   0  -9   9    1.22    0.08
   0  -9   9    1.24    0.08
  -1   7  -7    5.49    0.15
   1  -7   7    5.57    0.12
   1  -7   7    5.45    0.12
  -2   5  -5   28.06    0.38
  -2   5  -5   28.53    0.38
  -2   5  -5   29.39    0.43
   2  -5   5   28.74    0.38
   2  -5   5   29.06    0.37
  -3   3  -3   11.84    0.20
  -3   3  -3   11.89    0.18
  -3   3  -3   11.76    0.18
   3  -3   3   11.68    0.15
  -4   1  -1    0.14    0.02
  -4   1  -1    0.19    0.02
  -4   1  -1    0.13    0.02
   4  -1   1    0.20    0.02
  -5  -1   1    8.07    0.14
  -5  -1   1    8.13    0.14
  -5  -1   1    8.10    0.14
  -5  -1   1    8.12    0.15
  -5  -1   1    8.34    0.16
  -6  -3   3    4.95    0.12
  -6  -3   3    5.05    0.12
  -6  -3   3    4.97    0.12
  -6  -3   3    4.99    0.12
  -7  -5   5    0.41    0.05
  -1 -10  11    0.02    0.04
   0   8  -9    3.72    0.14
   0  -8   9    3.90    0.12
   0  -8   9    3.97    0.12
  -1   6  -7    2.45    0.09
   1  -6   7    2.18    0.07
   1  -6   7    2.13    0.07
  -2   4  -5    0.79    0.03
  -2   4  -5    0.83    0.05
   2  -4   5    0.80    0.03
   2  -4   5    0.78    0.03
  -3   2  -3   47.10    0.61
  -3   2  -3   47.22    0.63
  -3   2  -3   46.47    0.62
  -4   0  -1    0.10    0.02
  -4   0  -1    0.11    0.01
  -4   0  -1    0.12    0.01
  -4   0  -1    0.07    0.01
  -4   0  -1    0.10    0.02
  -5  -2   1   17.44    0.27
  -5  -2   1   17.52    0.26
  -5  -2   1   17.75    0.27
  -5  -2   1   17.59    0.25
  -6  -4   3    0.71    0.05
  -6  -4   3    0.69    0.05
  -7  -6   5    1.37    0.09
  -1  -9  11    0.47    0.06
  -1  -9  11    0.46    0.05
   0   7  -9    0.25    0.04
   0  -7   9    0.29    0.04
   0  -7   9    0.33    0.04
  -1   5  -7   15.40    0.27
   1  -5   7   15.84    0.23
   1  -5   7   16.06    0.23
  -2   3  -5   14.91    0.21
  -2   3  -5   14.62    0.21
  -2   3  -5   14.78    0.24
   2  -3   5   14.56    0.19
   2  -3   5   14.41    0.19
  -3   1  -3    4.66    0.09
  -3   1  -3    4.59    0.09
  -3   1  -3    4.69    0.10
  -4  -1  -1   16.21    0.25
  -4  -1  -1   16.15    0.22
  -4  -1  -1   16.59    0.25
  -4  -1  -1   16.28    0.22
  -4  -1  -1   16.35    0.25
  -5  -3   1    9.08    0.17
  -5  -3   1    9.26    0.17
  -5  -3   1    9.40    0.16
  -5  -3   1    9.13    0.16
  -5  -3   1    8.94    0.17
  -6  -5   3    3.09    0.11
  -6  -5   3    3.02    0.10
  -6  -5   3    3.08    0.10
  -7  -7   5    0.13    0.05
  -2 -10  13    0.42    0.07
   1   8 -11    2.91    0.14
  -1  -8  11    2.94    0.12
  -1  -8  11    2.98    0.12
   0   6  -9   -0.02    0.02
   0  -6   9    0.04    0.02
   0  -6   9    0.01    0.02
  -1   4  -7   11.86    0.22
   1  -4   7   12.67    0.19
   1  -4   7   12.65    0.19
  -2   2  -5    0.08    0.02
  -2   2  -5    0.06    0.01
  -3   0  -3   15.77    0.23
  -3   0  -3   15.57    0.19
  -3   0  -3   15.72    0.24
  -3   0  -3   15.35    0.23
  -4  -2  -1    1.97    0.06
  -4  -2  -1    1.95    0.05
  -4  -2  -1    1.90    0.05
  -4  -2  -1    1.99    0.06
  -4  -2  -1    1.90    0.06
  -5  -4   1    0.01    0.02
  -5  -4   1    0.01    0.02
  -5  -4   1   -0.01    0.02
  -5  -4   1    0.02    0.02
  -5  -4   1   -0.01    0.02
  -6  -6   3    0.92    0.07
  -6  -6   3    1.01    0.07
  -6  -6   3    0.89    0.07
  -7  -8   5    0.53    0.08
  -2  -9  13    1.45    0.11
   1   7 -11    3.20    0.13
  -1  -7  11    3.26    0.12
  -1  -7  11    3.27    0.11
   0   5  -9    0.75    0.07
   0  -5   9    0.76    0.05
   0  -5   9    0.80    0.05
  -1   3  -7    4.53    0.11
  -1   3  -7    4.67    0.08
   1  -3   7    4.66    0.09
   1  -3   7    4.65    0.08
   1  -3   7    4.70    0.09
  -2   1  -5    0.42    0.03
  -2   1  -5    0.49    0.03
  -2   1  -5    0.46    0.02
  -2   1  -5    0.44    0.04
  -3  -1  -3    9.42    0.16
  -3  -1  -3    9.44    0.16
  -3  -1  -3    9.62    0.16
  -3  -1  -3    9.21    0.13
  -3  -1  -3    9.32    0.13
  -4  -3  -1    0.09    0.02
  -4  -3  -1    0.09    0.02
  -4  -3  -1    0.11    0.02
  -4  -3  -1    0.12    0.02
  -4  -3  -1    0.11    0.02
  -5  -5   1    0.20    0.03
  -5  -5   1    0.09    0.03
  -5  -5   1    0.12    0.03
  -5  -5   1    0.07    0.02
  -5  -5   1    0.17    0.02
  -6  -7   3    0.34    0.04
  -6  -7   3    0.41    0.05
  -6  -7   3    0.39    0.05
  -2  -8  13    1.86    0.11
   1   6 -11    3.64    0.13
  -1  -6  11    3.66    0.11
  -1  -6  11    3.67    0.12
   0   4  -9    2.07    0.09
   0  -4   9    2.13    0.07
   0  -4   9    2.14    0.07
  -1   2  -7   14.36    0.24
  -1   2  -7   14.38    0.22
  -1   2  -7   14.43    0.21
   1  -2   7   14.28    0.20
   1  -2   7   14.24    0.21
  -2   0  -5    0.01    0.01
  -2   0  -5    0.02    0.01
  -2   0  -5    0.03    0.01
  -2   0  -5    0.02    0.01
  -2   0  -5    0.04    0.01
  -3  -2  -3    0.84    0.04
  -3  -2  -3    0.83    0.03
  -3  -2  -3    0.88    0.04
  -3  -2  -3    0.89    0.03
  -3  -2  -3    0.80    0.04
  -4  -4  -1    2.45    0.08
  -4  -4  -1    2.50    0.07
  -4  -4  -1    2.51    0.07
  -4  -4  -1    2.45    0.08
  -4  -4  -1    2.49    0.08
  -5  -6   1    0.70    0.06
  -5  -6   1    0.69    0.06
  -5  -6   1    0.64    0.06
  -6  -8   3    0.04    0.04
  -2  -7  13    0.95    0.09
   1   5 -11    0.30    0.04
  -1  -5  11    0.39    0.05
  -1  -5  11    0.35    0.04
   0   3  -9    6.77    0.15
   0   3  -9    6.81    0.15
   0  -3   9    6.68    0.14
  -1   1  -7   13.12    0.20
  -1   1  -7   13.16    0.20
  -1   1  -7   12.69    0.22
   1  -1   7   13.26    0.19
  -2  -1  -5   11.59    0.19
  -2  -1  -5   11.40    0.16
  -2  -1  -5   11.58    0.19
  -2  -1  -5   11.57    0.17
  -3  -3  -3    0.95    0.05
  -3  -3  -3    0.89    0.05
  -3  -3  -3    0.95    0.04
  -3  -3  -3    0.88    0.04
  -3  -3  -3    0.93    0.04
  -4  -5  -1    3.62    0.10
  -4  -5  -1    3.64    0.10
  -4  -5  -1    3.66    0.11
  -4  -5  -1    3.73    0.10
  -5  -7   1    3.52    0.11
  -5  -7   1    3.50    0.12
  -5  -7   1    3.59    0.12
  -6  -9   3    0.20    0.06
  -3  -8  15   -0.01    0.05
  -2  -6  13    0.17    0.05
   1   4 -11    3.53    0.12
   1   4 -11    3.54    0.12
  -1  -4  11    3.63    0.11
   0   2  -9   13.64    0.24
   0   2  -9   13.46    0.23
   0  -2   9   13.70    0.20
  -1   0  -7    1.93    0.06
  -1   0  -7    1.93    0.07
  -1   0  -7    1.97    0.06
   1   0   7    1.86    0.05
   1   0   7    1.94    0.06
  -2  -2  -5    0.08    0.02
   2   2   5    0.12    0.02
  -3  -4  -3    8.33    0.16
  -3  -4  -3    8.22    0.15
  -3  -4  -3    8.45    0.16
  -3  -4  -3    8.17    0.14
   3   4   3    8.38    0.15
  -4  -6  -1   16.11    0.26
  -4  -6  -1   16.09    0.27
  -4  -6  -1   16.42    0.27
  -4  -6  -1   16.35    0.28
   4   6   1   16.18    0.26
  -5  -8   1    2.09    0.10
  -5  -8   1    1.90    0.10
  -5  -8   1    2.01    0.10
  -3  -7  15    0.63    0.08
   2   5 -13    3.52    0.14
  -2  -5  13    3.65    0.14
   1   3 -11    0.55    0.06
   1   3 -11    0.51    0.05
  -1  -3  11    0.54    0.05
   0   1  -9   10.55    0.19
   0   1  -9   10.25    0.19
   0   1  -9   10.54    0.19
   0  -1   9   10.46    0.17
   0  -1   9   10.30    0.17
  -1  -1  -7    0.05    0.01
  -1  -1  -7    0.03    0.02
  -1  -1  -7    0.02    0.01
   1   1   7    0.03    0.02
   1   1   7    0.02    0.02
  -2  -3  -5   22.71    0.31
  -2  -3  -5   22.53    0.34
  -2  -3  -5   22.78    0.32
   2   3   5   22.77    0.33
  -3  -5  -3    4.85    0.11
  -3  -5  -3    5.01    0.12
  -3  -5  -3    4.85    0.11
   3   5   3    4.86    0.11
  -4  -7  -1    7.65    0.17
  -4  -7  -1    7.61    0.18
  -4  -7  -1    7.61    0.17
   4   7   1    7.83    0.16
   4   7   1    7.41    0.16
  -5  -9   1    1.12    0.09
  -3  -6  15    0.46    0.07
   2   4 -13    2.31    0.12
  -2  -4  13    2.44    0.11
   1   2 -11    0.07    0.04
   1   2 -11    0.05    0.02
   1   2 -11    0.13    0.04
   0   0  -9    9.41    0.17
   0   0  -9    9.30    0.18
   0   0  -9    9.33    0.18
   0   0   9    9.31    0.16
   0   0   9    9.57    0.16
  -1  -2  -7   11.86    0.20
  -1  -2  -7   11.95    0.19
  -1  -2  -7   11.83    0.20
   1   2   7   12.16    0.20
   1   2   7   12.27    0.20
  -2  -4  -5   11.97    0.20
  -2  -4  -5   11.98    0.21
  -2  -4  -5   11.98    0.20
   2   4   5   11.83    0.20
   2   4   5   11.89    0.20
  -3  -6  -3    1.76    0.07
  -3  -6  -3    1.71    0.08
  -3  -6  -3    1.71    0.08
   3   6   3    1.76    0.07
   3   6   3    1.71    0.07
  -4  -8  -1    0.96    0.08
  -4  -8  -1    0.98    0.08
  -4  -8  -1    0.99    0.07
  -5 -10   1    0.45    0.06
   2   3 -13    1.98    0.11
   2   3 -13    1.84    0.11
   1   1 -11    7.83    0.16
   1   1 -11    7.23    0.18
   1   1 -11    7.59    0.18
   0  -1  -9    2.68    0.09
   0  -1  -9    2.74    0.09
   0  -1  -9    2.63    0.08
   0   1   9    2.84    0.08
   0   1   9    2.64    0.08
  -1  -3  -7    0.05    0.02
  -1  -3  -7    0.10    0.02
  -1  -3  -7    0.04    0.02
   1   3   7    0.03    0.02
   1   3   7    0.01    0.02
  -2  -5  -5    0.08    0.03
  -2  -5  -5    0.08    0.02
  -2  -5  -5    0.08    0.02
   2   5   5    0.07    0.03
   2   5   5    0.05    0.02
  -3  -7  -3    4.26    0.12
  -3  -7  -3    4.49    0.13
  -3  -7  -3    4.19    0.12
   3   7   3    4.24    0.12
   3   7   3    4.06    0.12
  -4  -9  -1    1.93    0.10
  -4  -9  -1    2.05    0.11
   3   4 -15    1.50    0.12
   2   2 -13    4.48    0.15
   2   2 -13    4.16    0.15
   1   0 -11    2.46    0.10
   1   0 -11    2.51    0.10
  -1   0  11    2.60    0.08
  -1   0  11    2.31    0.08
   0  -2  -9    0.65    0.05
   0  -2  -9    0.66    0.05
   0  -2  -9    0.63    0.05
   0   2   9    0.68    0.05
   0   2   9    0.64    0.05
  -1  -4  -7    6.55    0.14
  -1  -4  -7    6.57    0.14
  -1  -4  -7    6.66    0.14
   1   4   7    6.59    0.14
   1   4   7    6.67    0.14
  -2  -6  -5    3.80    0.11
  -2  -6  -5    3.63    0.11
  -2  -6  -5    3.61    0.11
   2   6   5    3.54    0.11
   2   6   5    3.65    0.11
  -3  -8  -3    6.26    0.16
  -3  -8  -3    6.21    0.16
  -3  -8  -3    6.39    0.16
   3   8   3    5.91    0.15
   3   8   3    6.22    0.15
  -4 -10  -1    0.18    0.05
   3   3 -15    0.26    0.07
   2   1 -13    0.31    0.05
   2   1 -13    0.45    0.06
   1  -1 -11    4.58    0.13
   1  -1 -11    4.70    0.14
  -1   1  11    4.53    0.12
  -1   1  11    4.70    0.12
   0  -3  -9    2.50    0.08
   0  -3  -9    2.38    0.09
   0  -3  -9    2.46    0.09
   0   3   9    2.40    0.09
   0   3   9    2.41    0.08
  -1  -5  -7   35.94    0.51
  -1  -5  -7   36.19    0.51
  -1  -5  -7   36.12    0.50
   1   5   7   35.19    0.52
   1   5   7   35.68    0.52
  -2  -7  -5    6.55    0.16
  -2  -7  -5    6.82    0.16
  -2  -7  -5    6.83    0.16
   2   7   5    6.75    0.16
   2   7   5    6.81    0.16
  -3  -9  -3    1.13    0.09
  -3  -9  -3    1.20    0.09
   3   9   3    1.16    0.08
  -4 -11  -1   -0.02    0.05
   3   2 -15    0.20    0.06
   2   0 -13    2.31    0.11
   2   0 -13    2.11    0.11
   1  -2 -11    5.66    0.15
   1  -2 -11    5.58    0.15
  -1   2  11    5.45    0.14
  -1   2  11    5.69    0.14
   0  -4  -9   24.88    0.37
   0  -4  -9   25.19    0.39
   0  -4  -9   24.58    0.38
   0   4   9   25.15    0.39
   0   4   9   24.95    0.39
  -1  -6  -7    3.82    0.12
  -1  -6  -7    3.88    0.11
  -1  -6  -7    3.94    0.12
   1   6   7    3.84    0.12
   1   6   7    4.02    0.12
  -2  -8  -5   -0.02    0.03
  -2  -8  -5    0.03    0.02
  -2  -8  -5   -0.02    0.03
   2   8   5   -0.02    0.03
   2   8   5   -0.02    0.03
  -3 -10  -3    3.47    0.14
   3   1 -15    0.02    0.05
   2  -1 -13    6.91    0.19
   2  -1 -13    6.56    0.19
   1  -3 -11    1.97    0.09
   1  -3 -11    2.01    0.10
  -1   3  11    2.07    0.09
  -1   3  11    1.91    0.09
   0  -5  -9    3.70    0.12
   0  -5  -9    3.50    0.12
   0  -5  -9    3.64    0.12
   0   5   9    3.64    0.12
   0   5   9    3.58    0.12
  -1  -7  -7    3.18    0.11
  -1  -7  -7    3.20    0.11
  -1  -7  -7    3.20    0.12
   1   7   7    3.15    0.12
   1   7   7    3.11    0.11
  -2  -9  -5    0.45    0.06
   2   9   5    0.29    0.04
   2   9   5    0.32    0.05
  -3 -11  -3    1.16    0.10
   3   0 -15    0.15    0.06
   2  -2 -13    1.22    0.09
   2  -2 -13    1.10    0.09
  -2   2  13    1.15    0.08
  -2   2  13    1.10    0.07
   1  -4 -11    0.27    0.04
   1  -4 -11    0.37    0.05
  -1   4  11    0.31    0.05
  -1   4  11    0.22    0.04
   0  -6  -9    0.95    0.08
   0  -6  -9    1.08    0.08
   0   6   9    1.18    0.08
   0   6   9    1.07    0.08
  -1  -8  -7    0.30    0.05
  -1  -8  -7    0.32    0.05
  -1  -8  -7    0.27    0.04
   1   8   7    0.38    0.05
   1   8   7    0.25    0.04
  -2 -10  -5    2.11    0.12
   2  10   5    2.03    0.11
   3  -1 -15    0.09    0.06
   2  -3 -13    0.67    0.07
   2  -3 -13    0.87    0.08
  -2   3  13    0.70    0.07
  -2   3  13    0.71    0.08
   1  -5 -11   -0.01    0.04
   1  -5 -11    0.05    0.03
  -1   5  11   -0.02    0.03
  -1   5  11    0.03    0.04
   0  -7  -9    0.86    0.08
   0  -7  -9    0.89    0.08
   0   7   9    0.69    0.07
  -1  -9  -7    0.02    0.05
   1   9   7    0.00    0.04
  -2 -11  -5    0.16    0.06
   3  -2 -15    0.43    0.07
   2  -4 -13    0.22    0.06
  -2   4  13    0.15    0.05
   1  -6 -11    0.93    0.09
  -1   6  11    0.98    0.09
   0  -8  -9    0.91    0.09
   0   8   9    0.91    0.09
  -1 -10  -7    0.15    0.06
   1  10   7    0.14    0.06
   3  -3 -15    0.19    0.07
   2  -5 -13    1.05    0.10
  -2   5  13    1.12    0.10
   1  -7 -11    0.28    0.06
  -1   7  11    0.22    0.05
   0  -9  -9    0.59    0.08
   0   9   9    0.43    0.07
   3  -4 -15    0.32    0.08
  -3   4  15    0.29    0.06
   2  -6 -13    0.13    0.06
  -2   6  13    0.22    0.06
   1  -8 -11    0.11    0.06
  -1   8  11    0.07    0.05
  -6  11   2    1.04    0.10
  -7   9   4    0.98    0.10
  -8   7   6    0.00    0.04
  -6  10   2    0.87    0.09
  -7   8   4    1.49    0.10
  -8   6   6    1.94    0.11
  -6   9   2    1.02    0.09
  -7   7   4    0.03    0.04
  -8   5   6    5.82    0.18
  -9   3   8    1.15    0.10
  -5  10   0    1.30    0.09
  -6   8   2    0.07    0.03
  -6   8   2    0.08    0.04
  -7   6   4    1.85    0.10
  -7   6   4    1.79    0.10
  -8   4   6    0.49    0.06
  -9   2   8    0.07    0.04
  -5   9   0    0.95    0.07
  -5   9   0    1.02    0.07
  -6   7   2   -0.01    0.03
  -6   7   2   -0.01    0.02
  -7   5   4    1.08    0.08
  -7   5   4    1.09    0.08
  -8   3   6    2.00    0.10
  -5   8   0    0.16    0.03
  -5   8   0    0.23    0.04
  -6   6   2    0.30    0.04
  -6   6   2    0.41    0.05
  -7   4   4    0.20    0.03
  -7   4   4    0.26    0.04
  -8   2   6    1.27    0.08
  -8   2   6    1.40    0.09
  -3  11  -4    1.22    0.10
  -5   7   0    0.53    0.05
  -5   7   0    0.41    0.04
  -6   5   2    5.77    0.14
  -6   5   2    5.99    0.15
  -7   3   4    0.60    0.06
  -7   3   4    0.45    0.05
  -8   1   6    0.12    0.03
  -8   1   6    0.18    0.04
  -3  10  -4    1.59    0.10
  -4   8  -2    3.44    0.12
  -4   8  -2    3.43    0.10
  -4   8  -2    3.38    0.10
  -6   4   2    6.60    0.15
  -6   4   2    6.41    0.15
  -7   2   4    0.02    0.03
  -7   2   4    0.01    0.02
  -8   0   6    0.34    0.05
  -8   0   6    0.25    0.04
  -3   9  -4    1.56    0.10
  -4   7  -2    0.04    0.02
  -4   7  -2    0.02    0.02
  -4   7  -2    0.03    0.02
  -5   5   0   15.17    0.25
  -5   5   0   14.84    0.25
  -6   3   2    3.02    0.10
  -6   3   2    3.05    0.10
  -7   1   4    1.47    0.08
  -7   1   4    1.51    0.08
  -2  10  -6    0.01    0.03
   2 -10   6    0.07    0.04
  -3   8  -4    2.99    0.11
  -4   6  -2    1.11    0.06
  -4   6  -2    0.99    0.05
  -4   6  -2    1.03    0.06
  -5   4   0    9.06    0.17
  -5   4   0    9.25    0.18
  -6   2   2    2.68    0.09
  -6   2   2    2.66    0.09
  -7   0   4    7.82    0.17
  -7   0   4    7.89    0.17
   1 -11   8   -0.06    0.04
  -2   9  -6    2.22    0.11
   2  -9   6    2.20    0.09
   2  -9   6    2.31    0.09
  -3   7  -4    0.30    0.03
   3  -7   4    0.44    0.04
  -4   5  -2    1.17    0.05
  -4   5  -2    1.12    0.05
  -4   5  -2    1.09    0.06
  -5   3   0   13.17    0.22
  -5   3   0   13.32    0.23
  -5   3   0   13.39    0.21
  -6   1   2    0.58    0.05
  -6   1   2    0.57    0.05
  -7  -1   4   14.01    0.25
  -7  -1   4   13.84    0.25
   0 -12  10    0.29    0.07
  -1  10  -8    0.27    0.05
   1 -10   8    0.35    0.05
   1 -10   8    0.28    0.04
  -2   8  -6    9.32    0.21
   2  -8   6    9.04    0.17
   2  -8   6    8.97    0.17
  -3   6  -4    1.39    0.05
  -3   6  -4    1.27    0.07
  -3   6  -4    1.37    0.05
   3  -6   4    1.44    0.05
  -4   4  -2    8.76    0.17
  -4   4  -2    8.71    0.16
  -4   4  -2    8.36    0.15
  -5   2   0    0.68    0.04
  -5   2   0    0.64    0.04
  -5   2   0    0.69    0.05
  -6   0   2    3.76    0.10
  -6   0   2    3.76    0.10
  -7  -2   4    3.90    0.11
  -7  -2   4    4.07    0.12
   0 -11  10    0.99    0.09
  -1   9  -8    1.41    0.11
   1  -9   8    1.45    0.08
   1  -9   8    1.44    0.08
  -2   7  -6    5.81    0.16
   2  -7   6    6.01    0.12
   2  -7   6    6.01    0.12
  -3   5  -4    0.01    0.01
  -3   5  -4   -0.01    0.01
  -3   5  -4    0.02    0.02
   3  -5   4    0.02    0.01
  -4   3  -2   27.39    0.39
  -4   3  -2   27.22    0.39
  -4   3  -2   26.92    0.38
  -5   1   0    3.42    0.09
  -5   1   0    3.64    0.08
  -5   1   0    3.67    0.09
  -6  -1   2   15.36    0.26
  -6  -1   2   15.65    0.26
   0 -10  10    3.11    0.12
   0 -10  10    3.18    0.13
  -1   8  -8    0.21    0.04
   1  -8   8    0.34    0.04
   1  -8   8    0.31    0.04
  -2   6  -6    2.53    0.10
   2  -6   6    2.50    0.07
   2  -6   6    2.50    0.07
  -3   4  -4   23.85    0.36
  -3   4  -4   23.90    0.34
  -3   4  -4   23.95    0.33
   3  -4   4   24.09    0.30
  -4   2  -2   29.31    0.41
  -4   2  -2   29.24    0.41
  -4   2  -2   29.33    0.41
  -5   0   0    7.98    0.15
  -5   0   0    8.02    0.14
  -5   0   0    7.91    0.15
  -6  -2   2    2.91    0.09
  -6  -2   2    2.86    0.09
  -1 -11  12    0.03    0.05
   0   9 -10    0.00    0.04
   0  -9  10   -0.01    0.04
   0  -9  10    0.03    0.03
  -1   7  -8    7.32    0.18
   1  -7   8    7.23    0.15
   1  -7   8    7.20    0.15
  -2   5  -6   11.24    0.17
  -2   5  -6   10.95    0.21
   2  -5   6   11.10    0.17
   2  -5   6   11.12    0.17
  -3   3  -4   37.98    0.51
  -3   3  -4   38.26    0.51
  -3   3  -4   38.09    0.53
  -4   1  -2   27.73    0.39
  -4   1  -2   28.54    0.39
  -4   1  -2   27.79    0.39
  -5  -1   0   21.00    0.31
  -5  -1   0   20.57    0.32
  -5  -1   0   21.23    0.32
  -6  -3   2    8.43    0.17
  -6  -3   2    8.41    0.17
  -1 -10  12    0.55    0.07
   0   8 -10    1.51    0.11
   0  -8  10    1.64    0.08
   0  -8  10    1.80    0.08
  -1   6  -8    2.04    0.10
   1  -6   8    1.91    0.07
   1  -6   8    1.99    0.07
  -2   4  -6   12.46    0.18
  -2   4  -6   12.45    0.18
  -2   4  -6   12.35    0.22
   2  -4   6   12.15    0.18
   2  -4   6   12.29    0.17
  -3   2  -4   31.56    0.45
  -3   2  -4   32.46    0.43
  -3   2  -4   32.03    0.44
  -4   0  -2    4.16    0.10
  -4   0  -2    4.37    0.10
  -4   0  -2    4.03    0.09
  -5  -2   0   56.52    0.74
  -5  -2   0   55.88    0.75
  -5  -2   0   56.15    0.75
  -6  -4   2    7.20    0.16
  -6  -4   2    7.20    0.16
  -6  -4   2    7.65    0.16
  -1  -9  12    1.13    0.09
   0   7 -10    1.56    0.09
   0  -7  10    1.63    0.08
   0  -7  10    1.65    0.08
  -1   5  -8    6.51    0.16
   1  -5   8    6.55    0.13
   1  -5   8    6.36    0.12
  -2   3  -6    8.84    0.14
  -2   3  -6    8.77    0.17
  -2   3  -6    8.90    0.14
   2  -3   6    8.73    0.13
   2  -3   6    8.58    0.13
  -3   1  -4   28.58    0.40
  -3   1  -4   27.63    0.39
  -3   1  -4   28.68    0.39
  -4  -1  -2   17.50    0.23
  -4  -1  -2   17.40    0.27
  -4  -1  -2   17.04    0.26
  -4  -1  -2   17.62    0.27
  -5  -3   0    6.26    0.13
  -5  -3   0    6.27    0.12
  -5  -3   0    6.37    0.14
  -5  -3   0    6.20    0.13
  -6  -5   2    0.02    0.02
  -1  -8  12    1.01    0.08
  -1  -8  12    1.08    0.08
   0  -6  10    0.66    0.05
   0  -6  10    0.68    0.05
  -1   4  -8    3.54    0.11
   1  -4   8    3.63    0.09
   1  -4   8    3.66    0.08
  -2   2  -6   21.61    0.30
  -2   2  -6   21.89    0.28
  -2   2  -6   22.02    0.33
  -2   2  -6   21.61    0.30
  -3   0  -4   14.73    0.23
  -3   0  -4   15.43    0.24
  -3   0  -4   15.14    0.18
  -3   0  -4   14.78    0.23
  -4  -2  -2    3.48    0.09
  -4  -2  -2    3.37    0.07
  -4  -2  -2    3.58    0.09
  -4  -2  -2    3.46    0.09
  -5  -4   0    0.00    0.02
  -5  -4   0    0.07    0.02
  -5  -4   0    0.03    0.02
  -5  -4   0    0.01    0.02
  -5  -4   0    0.02    0.02
  -6  -6   2    0.32    0.04
  -2  -9  14    0.44    0.07
   1   7 -12    0.45    0.05
  -1  -7  12    0.79    0.07
  -1  -7  12    0.75    0.07
   0   5 -10    5.45    0.15
   0  -5  10    5.67    0.13
   0  -5  10    5.47    0.13
  -1   3  -8    6.14    0.14
  -1   3  -8    6.18    0.13
   1  -3   8    6.22    0.10
   1  -3   8    5.99    0.12
  -2   1  -6   12.08    0.21
  -2   1  -6   11.90    0.19
  -2   1  -6   12.07    0.19
  -2   1  -6   12.40    0.17
  -2   1  -6   11.93    0.17
  -3  -1  -4    1.18    0.05
  -3  -1  -4    1.13    0.03
  -3  -1  -4    1.11    0.05
  -3  -1  -4    1.08    0.05
  -4  -3  -2    0.07    0.02
  -4  -3  -2    0.07    0.02
  -4  -3  -2    0.07    0.02
  -4  -3  -2    0.07    0.02
  -4  -3  -2    0.07    0.02
  -5  -5   0    1.43    0.06
  -5  -5   0    1.37    0.07
  -5  -5   0    1.45    0.07
  -5  -5   0    1.36    0.06
  -5  -5   0    1.48    0.07
  -6  -7   2    3.75    0.12
  -2  -8  14   -0.02    0.04
   1   6 -12    0.46    0.05
  -1  -6  12    0.51    0.05
  -1  -6  12    0.52    0.06
   0   4 -10   10.24    0.21
   0  -4  10    9.46    0.18
  -1   2  -8   22.93    0.33
  -1   2  -8   23.13    0.33
  -1   2  -8   23.23    0.36
   1  -2   8   23.14    0.32
  -2   0  -6    4.50    0.08
  -2   0  -6    4.44    0.08
  -2   0  -6    4.59    0.11
  -2   0  -6    4.54    0.09
  -2   0  -6    4.58    0.10
  -3  -2  -4    5.12    0.11
  -3  -2  -4    5.11    0.12
  -3  -2  -4    5.12    0.09
  -3  -2  -4    5.08    0.09
  -3  -2  -4    5.12    0.11
  -4  -4  -2   13.23    0.23
  -4  -4  -2   13.30    0.22
  -4  -4  -2   13.42    0.23
  -4  -4  -2   13.00    0.21
  -4  -4  -2   12.97    0.21
  -5  -6   0    1.31    0.07
  -5  -6   0    1.33    0.07
  -5  -6   0    1.34    0.08
  -5  -6   0    1.28    0.07
   5   6   0    1.28    0.07
  -2  -7  14    0.63    0.07
   1   5 -12    1.00    0.08
  -1  -5  12    0.95    0.07
   0   3 -10    6.19    0.15
   0   3 -10    6.08    0.15
   0  -3  10    6.33    0.14
  -1   1  -8    0.88    0.05
  -1   1  -8    0.91    0.05
  -1   1  -8    0.95    0.05
   1  -1   8    0.84    0.04
   1  -1   8    0.88    0.04
  -2  -1  -6   19.06    0.29
  -2  -1  -6   19.29    0.26
  -2  -1  -6   19.09    0.26
  -2  -1  -6   19.16    0.30
   2   1   6   20.03    0.28
  -3  -3  -4    7.76    0.13
  -3  -3  -4    7.71    0.13
  -3  -3  -4    7.69    0.15
  -3  -3  -4    7.57    0.15
   3   3   4    7.71    0.14
  -4  -5  -2    6.46    0.15
  -4  -5  -2    6.62    0.14
  -4  -5  -2    6.61    0.14
  -4  -5  -2    6.46    0.14
   4   5   2    6.50    0.14
  -5  -7   0    6.98    0.16
  -5  -7   0    7.00    0.17
  -5  -7   0    6.93    0.17
  -2  -6  14    1.08    0.09
   1   4 -12    2.78    0.11
   1   4 -12    2.62    0.12
  -1  -4  12    2.78    0.10
   0   2 -10    1.09    0.06
   0   2 -10    1.02    0.07
   0   2 -10    1.12    0.06
  -1   0  -8    0.09    0.02
  -1   0  -8    0.07    0.02
  -1   0  -8    0.05    0.02
   1   0   8    0.06    0.02
   1   0   8    0.06    0.02
  -2  -2  -6   14.44    0.21
  -2  -2  -6   14.00    0.24
  -2  -2  -6   14.52    0.23
  -2  -2  -6   14.34    0.21
   2   2   6   14.40    0.23
  -3  -4  -4    0.49    0.04
  -3  -4  -4    0.53    0.05
  -3  -4  -4    0.58    0.05
  -3  -4  -4    0.44    0.04
   3   4   4    0.50    0.04
  -4  -6  -2    1.41    0.07
  -4  -6  -2    1.38    0.07
  -4  -6  -2    1.44    0.07
  -4  -6  -2    1.38    0.08
   4   6   2    1.34    0.07
  -5  -8   0    1.74    0.09
   2   5 -14   -0.02    0.05
  -2  -5  14    0.05    0.04
   1   3 -12    0.39    0.05
   1   3 -12    0.24    0.03
   1   3 -12    0.20    0.04
   0   1 -10    3.51    0.10
   0   1 -10    3.32    0.10
   0   1 -10    3.50    0.11
   0  -1  10    3.31    0.08
   0  -1  10    3.26    0.08
  -1  -1  -8    0.68    0.04
  -1  -1  -8    0.70    0.04
  -1  -1  -8    0.75    0.05
   1   1   8    0.72    0.05
   1   1   8    0.74    0.05
  -2  -3  -6    7.17    0.13
  -2  -3  -6    7.23    0.15
  -2  -3  -6    7.07    0.13
   2   3   6    7.24    0.14
   2   3   6    7.37    0.14
  -3  -5  -4    1.49    0.07
  -3  -5  -4    1.44    0.07
  -3  -5  -4    1.51    0.06
   3   5   4    1.58    0.07
   3   5   4    1.58    0.07
  -4  -7  -2    2.13    0.10
  -4  -7  -2    2.09    0.09
  -4  -7  -2    2.07    0.09
   4   7   2    2.06    0.08
   4   7   2    2.23    0.09
  -5  -9   0    1.16    0.10
   2   4 -14    0.67    0.07
   1   2 -12   -0.01    0.03
   1   2 -12    0.02    0.04
   0   0 -10    1.44    0.07
   0   0 -10    1.26    0.06
   0   0 -10    1.36    0.07
   0   0  10    1.33    0.06
   0   0  10    1.30    0.06
  -1  -2  -8    6.38    0.14
  -1  -2  -8    6.43    0.13
  -1  -2  -8    6.36    0.13
   1   2   8    6.40    0.13
   1   2   8    6.36    0.13
  -2  -4  -6    0.03    0.02
  -2  -4  -6    0.05    0.02
  -2  -4  -6    0.04    0.02
   2   4   6    0.02    0.02
   2   4   6    0.03    0.02
  -3  -6  -4    1.44    0.07
  -3  -6  -4    1.36    0.07
  -3  -6  -4    1.40    0.08
   3   6   4    1.34    0.07
   3   6   4    1.44    0.07
  -4  -8  -2    3.56    0.13
  -4  -8  -2    3.48    0.12
  -4  -8  -2    3.57    0.12
   4   8   2    3.67    0.12
  -5 -10   0    0.97    0.10
   3   5 -16    0.52    0.09
   2   3 -14    1.13    0.10
   2   3 -14    1.13    0.10
   1   1 -12    2.73    0.11
   1   1 -12    2.75    0.11
   0  -1 -10    0.08    0.03
   0  -1 -10    0.08    0.03
   0  -1 -10    0.05    0.02
   0   1  10    0.04    0.02
   0   1  10    0.06    0.03
  -1  -3  -8    0.58    0.05
  -1  -3  -8    0.58    0.05
  -1  -3  -8    0.56    0.05
   1   3   8    0.56    0.05
   1   3   8    0.49    0.05
  -2  -5  -6    3.93    0.11
  -2  -5  -6    4.12    0.11
  -2  -5  -6    3.77    0.11
   2   5   6    3.87    0.11
   2   5   6    3.91    0.11
  -3  -7  -4    3.50    0.11
  -3  -7  -4    3.53    0.12
  -3  -7  -4    3.40    0.11
   3   7   4    3.57    0.11
   3   7   4    3.52    0.11
  -4  -9  -2    0.21    0.05
   3   4 -16    3.05    0.16
   2   2 -14    0.09    0.04
   2   2 -14    0.11    0.05
   1   0 -12    0.71    0.07
   1   0 -12    0.68    0.07
   0  -2 -10    4.09    0.11
   0  -2 -10    3.93    0.12
   0  -2 -10    3.83    0.11
   0   2  10    3.91    0.11
   0   2  10    3.83    0.11
  -1  -4  -8   18.21    0.29
  -1  -4  -8   17.83    0.30
  -1  -4  -8   18.17    0.30
   1   4   8   18.25    0.30
   1   4   8   18.53    0.30
  -2  -6  -6    0.33    0.04
  -2  -6  -6    0.24    0.03
  -2  -6  -6    0.41    0.05
   2   6   6    0.28    0.04
   2   6   6    0.32    0.04
  -3  -8  -4    1.77    0.09
  -3  -8  -4    1.54    0.09
  -3  -8  -4    1.65    0.09
   3   8   4    1.73    0.09
   3   8   4    1.68    0.09
  -4 -10  -2    0.08    0.05
   3   3 -16    0.77    0.09
   2   1 -14    0.31    0.06
   2   1 -14    0.23    0.05
   1  -1 -12    8.37    0.20
   1  -1 -12    8.14    0.19
  -1   1  12    8.03    0.17
  -1   1  12    8.18    0.17
   0  -3 -10    0.15    0.03
   0  -3 -10    0.15    0.03
   0  -3 -10    0.18    0.04
   0   3  10    0.13    0.03
   0   3  10    0.20    0.04
  -1  -5  -8    4.98    0.14
  -1  -5  -8    5.14    0.13
  -1  -5  -8    4.92    0.13
   1   5   8    5.37    0.14
   1   5   8    5.22    0.14
  -2  -7  -6   -0.01    0.02
  -2  -7  -6    0.03    0.03
  -2  -7  -6   -0.02    0.03
   2   7   6    0.02    0.03
   2   7   6    0.02    0.03
  -3  -9  -4    0.12    0.05
   3   9   4    0.06    0.04
   3   9   4    0.09    0.03
   3   2 -16    0.01    0.06
   2   0 -14    0.11    0.05
   2   0 -14    0.07    0.04
   1  -2 -12    2.93    0.11
   1  -2 -12    3.00    0.12
  -1   2  12    2.99    0.11
  -1   2  12    3.00    0.11
   0  -4 -10    0.09    0.04
   0  -4 -10    0.02    0.03
   0   4  10    0.03    0.03
   0   4  10    0.07    0.04
  -1  -6  -8    0.23    0.03
  -1  -6  -8    0.35    0.05
  -1  -6  -8    0.36    0.04
   1   6   8    0.24    0.04
   1   6   8    0.32    0.05
  -2  -8  -6    3.30    0.12
  -2  -8  -6    3.22    0.12
  -2  -8  -6    3.28    0.12
   2   8   6    3.14    0.12
   2   8   6    3.28    0.12
  -3 -10  -4    0.05    0.05
   3   1 -16    0.04    0.05
   2  -1 -14    0.16    0.04
   2  -1 -14    0.23    0.05
   1  -3 -12    0.06    0.03
   1  -3 -12    0.06    0.04
  -1   3  12    0.00    0.03
  -1   3  12    0.01    0.03
   0  -5 -10    1.59    0.09
   0  -5 -10    1.71    0.10
   0   5  10    1.73    0.09
   0   5  10    1.69    0.09
  -1  -7  -8    0.78    0.07
  -1  -7  -8    0.82    0.08
  -1  -7  -8    0.77    0.07
   1   7   8    0.90    0.08
   1   7   8    0.82    0.08
  -2  -9  -6    1.14    0.09
   2   9   6    1.05    0.09
   3   0 -16    1.79    0.13
   2  -2 -14    2.19    0.12
   1  -4 -12    2.77    0.12
   1  -4 -12    3.08    0.12
  -1   4  12    2.79    0.11
  -1   4  12    2.98    0.12
   0  -6 -10    0.33    0.05
   0  -6 -10    0.33    0.05
   0   6  10    0.28    0.04
   0   6  10    0.32    0.05
  -1  -8  -8    0.26    0.05
  -1  -8  -8    0.19    0.03
   1   8   8    0.25    0.05
  -2 -10  -6    0.56    0.08
   2  10   6    0.56    0.07
   3  -1 -16    3.92    0.17
   2  -3 -14    0.61    0.07
  -2   3  14    0.48    0.06
   1  -5 -12    1.27    0.10
   1  -5 -12    1.32    0.10
  -1   5  12    1.34    0.10
   0  -7 -10    1.25    0.10
   0   7  10    1.25    0.10
  -1  -9  -8    0.32    0.06
   1   9   8    0.20    0.06
   3  -2 -16    3.71    0.17
   2  -4 -14    0.10    0.05
  -2   4  14   -0.05    0.04
   1  -6 -12    0.70    0.08
  -1   6  12    0.64    0.07
   0  -8 -10    1.12    0.10
   0   8  10    1.03    0.10
  -1 -10  -8    0.04    0.05
   2  -5 -14    1.84    0.12
  -2   5  14    1.75    0.13
   1  -7 -12    0.17    0.06
  -1   7  12    0.12    0.05
   0  -9 -10    0.32    0.07
  -7  10   3    1.02    0.10
  -6  11   1    0.46    0.06
  -7   9   3    1.02    0.09
  -8   7   5    0.12    0.05
  -6  10   1    0.43    0.06
  -7   8   3    2.02    0.11
  -8   6   5    0.05    0.04
  -9   4   7    2.56    0.13
  -6   9   1    1.82    0.10
  -6   9   1    1.88    0.10
  -7   7   3    0.61    0.06
  -8   5   5    2.52    0.12
  -9   3   7    1.76    0.11
  -6   8   1    2.80    0.11
  -6   8   1    2.75    0.11
  -7   6   3    2.02    0.10
  -7   6   3    2.03    0.10
  -8   4   5    1.94    0.11
  -9   2   7    0.95    0.09
  -5   9  -1    2.59    0.10
  -5   9  -1    2.31    0.10
  -6   7   1    1.06    0.07
  -6   7   1    1.00    0.08
  -7   5   3    1.68    0.09
  -7   5   3    1.74    0.09
  -8   3   5    2.60    0.11
  -9   1   7    0.03    0.04
  -5   8  -1    2.38    0.09
  -5   8  -1    2.13    0.09
  -6   6   1    2.50    0.10
  -6   6   1    2.65    0.10
  -7   4   3    2.14    0.10
  -7   4   3    2.06    0.09
  -8   2   5    0.90    0.07
  -8   2   5    0.76    0.07
  -4   9  -3    2.59    0.11
  -5   7  -1    3.10    0.10
  -5   7  -1    3.02    0.10
  -6   5   1    3.85    0.11
  -6   5   1    4.15    0.12
  -7   3   3    2.34    0.10
  -7   3   3    2.34    0.10
  -8   1   5    1.12    0.08
  -8   1   5    1.01    0.07
  -3  10  -5    2.23    0.12
  -4   8  -3    4.68    0.14
  -4   8  -3    4.53    0.11
  -5   6  -1    0.01    0.02
  -5   6  -1    0.03    0.02
  -6   4   1   16.70    0.29
  -6   4   1   16.64    0.29
  -7   2   3    1.32    0.08
  -7   2   3    1.45    0.07
  -8   0   5    1.00    0.07
  -8   0   5    1.06    0.08
  -3   9  -5    1.30    0.10
  -4   7  -3    2.13    0.09
  -4   7  -3    2.05    0.07
  -4   7  -3    2.21    0.08
  -5   5  -1    8.31    0.17
  -5   5  -1    8.31    0.17
  -6   3   1    2.28    0.08
  -6   3   1    2.08    0.08
  -7   1   3    5.71    0.14
  -7   1   3    5.64    0.14
  -8  -1   5    3.32    0.12
  -8  -1   5    3.42    0.12
  -2  10  -7    0.09    0.04
  -3   8  -5    4.18    0.14
  -4   6  -3    0.39    0.04
  -4   6  -3    0.26    0.03
  -4   6  -3    0.27    0.03
  -5   4  -1    0.80    0.05
  -5   4  -1    0.83    0.05
  -5   4  -1    0.77    0.05
  -6   2   1    1.19    0.06
  -6   2   1    1.14    0.06
  -7   0   3    5.39    0.14
  -7   0   3    5.63    0.14
  -2   9  -7    2.33    0.12
  -3   7  -5    0.06    0.03
  -4   5  -3    0.06    0.02
  -4   5  -3    0.03    0.02
  -4   5  -3    0.02    0.01
  -5   3  -1    0.37    0.04
  -5   3  -1    0.24    0.03
  -5   3  -1    0.22    0.03
  -6   1   1    0.04    0.02
  -6   1   1    0.07    0.02
  -7  -1   3   10.90    0.21
  -7  -1   3   10.90    0.21
  -2   8  -7    2.08    0.11
  -3   6  -5    5.24    0.11
  -3   6  -5    5.48    0.11
  -3   6  -5    5.32    0.14
  -4   4  -3    5.43    0.11
  -4   4  -3    5.39    0.13
  -4   4  -3    5.60    0.12
  -5   2  -1    9.03    0.17
  -5   2  -1    8.84    0.17
  -5   2  -1    9.12    0.16
  -6   0   1    3.89    0.11
  -6   0   1    3.68    0.10
  -7  -2   3    2.55    0.09
  -7  -2   3    2.43    0.09
  -1   9  -9    0.21    0.05
  -2   7  -7    2.94    0.12
  -3   5  -5    0.10    0.02
  -3   5  -5    0.11    0.02
  -3   5  -5    0.09    0.02
  -4   3  -3   34.98    0.49
  -4   3  -3   35.80    0.49
  -4   3  -3   35.93    0.50
  -5   1  -1    1.59    0.06
  -5   1  -1    1.64    0.06
  -5   1  -1    1.71    0.06
  -6  -1   1    7.92    0.16
  -7  -3   3    1.66    0.08
  -7  -3   3    1.60    0.08
  -1   8  -9   -0.04    0.03
  -2   6  -7    3.63    0.12
  -3   4  -5   19.00    0.27
  -3   4  -5   18.40    0.27
  -3   4  -5   19.00    0.31
  -4   2  -3   11.53    0.20
  -4   2  -3   11.48    0.19
  -4   2  -3   11.41    0.19
  -5   0  -1    2.63    0.08
  -5   0  -1    2.81    0.08
  -5   0  -1    2.65    0.08
  -6  -2   1   24.51    0.37
  -6  -2   1   24.07    0.35
  -6  -2   1   23.52    0.37
   0  -9  11    0.05    0.04
  -1   7  -9    7.26    0.19
   1  -7   9    7.32    0.16
   1  -7   9    7.51    0.15
  -2   5  -7    3.31    0.11
  -3   3  -5    6.16    0.12
  -3   3  -5    6.09    0.14
  -3   3  -5    6.13    0.12
  -4   1  -3   12.04    0.20
  -4   1  -3   11.52    0.20
  -4   1  -3   11.92    0.20
  -5  -1  -1    8.69    0.16
  -5  -1  -1    8.91    0.17
  -5  -1  -1    8.90    0.17
  -6  -3   1   26.06    0.40
  -6  -3   1   26.68    0.40
  -6  -3   1   26.84    0.39
   0   8 -11    0.00    0.04
   0  -8  11    0.03    0.03
   0  -8  11    0.03    0.03
  -1   6  -9    0.24    0.04
   1  -6   9    0.25    0.03
   1  -6   9    0.30    0.03
  -2   4  -7    0.57    0.03
  -2   4  -7    0.60    0.03
  -2   4  -7    0.68    0.06
  -3   2  -5   18.32    0.29
  -3   2  -5   18.42    0.27
  -3   2  -5   18.43    0.27
  -4   0  -3    5.42    0.11
  -4   0  -3    5.42    0.12
  -4   0  -3    5.27    0.11
  -5  -2  -1    0.04    0.02
  -5  -2  -1    0.03    0.02
  -5  -2  -1    0.07    0.02
  -6  -4   1    1.49    0.07
  -6  -4   1    1.49    0.07
  -6  -4   1    1.41    0.07
  -1  -9  13    0.19    0.05
   0   7 -11    0.04    0.03
   0  -7  11    0.14    0.03
   0  -7  11    0.16    0.03
  -1   5  -9    2.04    0.10
   1  -5   9    1.98    0.07
   1  -5   9    2.09    0.07
  -2   3  -7    6.23    0.11
  -2   3  -7    5.97    0.11
  -2   3  -7    6.02    0.14
  -3   1  -5    9.97    0.17
  -3   1  -5   10.12    0.18
  -3   1  -5   10.42    0.17
  -4  -1  -3    0.78    0.04
  -4  -1  -3    0.77    0.04
  -4  -1  -3    0.79    0.05
  -5  -3  -1    0.19    0.03
  -5  -3  -1    0.15    0.03
  -5  -3  -1    0.12    0.02
  -6  -5   1    2.48    0.09
  -6  -5   1    2.53    0.09
  -6  -5   1    2.48    0.09
  -1  -8  13    1.27    0.09
   0   6 -11    2.24    0.11
   0  -6  11    2.20    0.09
   0  -6  11    2.38    0.09
  -1   4  -9   16.68    0.29
   1  -4   9   16.66    0.25
   1  -4   9   16.46    0.25
  -2   2  -7   11.19    0.18
  -2   2  -7   10.78    0.20
  -2   2  -7   10.66    0.17
  -3   0  -5    2.38    0.07
  -3   0  -5    2.55    0.07
  -3   0  -5    2.51    0.08
  -4  -2  -3    7.53    0.15
  -4  -2  -3    7.93    0.15
  -4  -2  -3    7.59    0.15
  -5  -4  -1   12.21    0.22
  -5  -4  -1   11.81    0.22
  -5  -4  -1   11.94    0.22
  -6  -6   1    0.32    0.04
   1   7 -13    2.26    0.13
  -1  -7  13    2.13    0.11
  -1  -7  13    2.18    0.10
   0   5 -11    3.43    0.12
   0  -5  11    3.48    0.11
   0  -5  11    3.33    0.11
  -1   3  -9   20.03    0.33
  -1   3  -9   19.36    0.30
   1  -3   9   19.10    0.28
  -2   1  -7   15.75    0.24
  -2   1  -7   15.98    0.26
  -3  -1  -5   15.67    0.25
  -3  -1  -5   15.82    0.26
  -3  -1  -5   15.90    0.25
  -4  -3  -3    5.59    0.13
  -4  -3  -3    5.76    0.13
  -4  -3  -3    5.54    0.12
  -5  -5  -1    6.23    0.15
  -5  -5  -1    6.35    0.15
  -6  -7   1    0.20    0.04
  -2  -8  15    0.12    0.06
   1   6 -13    4.58    0.16
  -1  -6  13    4.82    0.15
   0   4 -11    2.88    0.11
   0   4 -11    2.70    0.10
   0  -4  11    2.81    0.10
  -1   2  -9    7.85    0.15
  -1   2  -9    7.98    0.17
  -1   2  -9    8.15    0.15
   1  -2   9    7.70    0.13
   1  -2   9    8.12    0.14
  -2   0  -7    4.02    0.08
  -2   0  -7    3.86    0.10
  -2   0  -7    4.04    0.09
   2   0   7    4.04    0.09
  -3  -2  -5   21.27    0.32
  -3  -2  -5   20.83    0.32
  -3  -2  -5   20.92    0.32
  -4  -4  -3    5.19    0.13
  -4  -4  -3    5.02    0.12
  -5  -6  -1    0.31    0.04
  -5  -6  -1    0.22    0.03
   5   6   1    0.20    0.03
  -2  -7  15    0.59    0.07
   1   5 -13    0.84    0.08
  -1  -5  13    0.90    0.08
   0   3 -11    6.55    0.16
   0   3 -11    6.32    0.16
  -1   1  -9    0.15    0.03
  -1   1  -9    0.14    0.02
  -1   1  -9    0.12    0.02
   1  -1   9    0.09    0.02
   1  -1   9    0.13    0.02
  -2  -1  -7    5.69    0.11
  -2  -1  -7    5.69    0.13
  -2  -1  -7    5.77    0.12
   2   1   7    6.04    0.12
  -3  -3  -5    2.28    0.06
  -3  -3  -5    2.38    0.08
  -3  -3  -5    2.39    0.08
   3   3   5    2.23    0.07
  -4  -5  -3    1.27    0.07
  -4  -5  -3    1.22    0.07
   4   5   3    1.22    0.06
  -5  -7  -1    0.39    0.04
  -2  -6  15    1.62    0.11
   1   4 -13    0.01    0.04
   0   2 -11    2.75    0.10
   0   2 -11    2.77    0.10
   0   2 -11    2.80    0.10
  -1   0  -9    0.52    0.04
  -1   0  -9    0.58    0.05
  -1   0  -9    0.57    0.04
   1   0   9    0.51    0.04
   1   0   9    0.50    0.04
  -2  -2  -7    8.93    0.16
  -2  -2  -7    9.21    0.15
  -2  -2  -7    9.19    0.18
   2   2   7    9.01    0.16
   2   2   7    9.19    0.17
  -3  -4  -5    7.02    0.15
  -3  -4  -5    7.09    0.14
  -3  -4  -5    7.02    0.13
  -3  -4  -5    7.06    0.16
   3   4   5    6.98    0.15
  -4  -6  -3    0.03    0.03
  -4  -6  -3    0.04    0.02
   4   6   3    0.02    0.02
   4   6   3    0.03    0.03
   1   3 -13    0.46    0.06
   1   3 -13    0.49    0.06
   0   1 -11    4.47    0.13
   0   1 -11    4.68    0.12
   0   1 -11    4.35    0.12
  -1  -1  -9    4.89    0.12
  -1  -1  -9    5.12    0.12
  -1  -1  -9    5.01    0.12
   1   1   9    5.21    0.12
   1   1   9    5.15    0.12
  -2  -3  -7    1.93    0.08
  -2  -3  -7    1.96    0.07
  -2  -3  -7    1.97    0.07
   2   3   7    1.90    0.07
   2   3   7    1.86    0.07
  -3  -5  -5    2.38    0.09
  -3  -5  -5    2.29    0.08
  -3  -5  -5    2.40    0.08
   3   5   5    2.39    0.09
   3   5   5    2.21    0.08
  -4  -7  -3    0.51    0.05
  -4  -7  -3    0.39    0.04
   4   7   3    0.37    0.05
   4   7   3    0.37    0.04
   2   4 -15    2.33    0.13
   1   2 -13    3.88    0.14
   1   2 -13    3.83    0.14
   0   0 -11    2.67    0.10
   0   0 -11    2.75    0.09
   0   0 -11    2.61    0.09
   0   0  11    2.65    0.09
   0   0  11    2.61    0.08
  -1  -2  -9   28.87    0.43
  -1  -2  -9   28.79    0.41
  -1  -2  -9   28.57    0.41
   1   2   9   29.28    0.42
   1   2   9   28.78    0.42
  -2  -4  -7    0.47    0.05
  -2  -4  -7    0.45    0.04
  -2  -4  -7    0.29    0.03
   2   4   7    0.26    0.03
   2   4   7    0.42    0.04
  -3  -6  -5    0.47    0.05
  -3  -6  -5    0.44    0.04
  -3  -6  -5    0.40    0.04
   3   6   5    0.35    0.04
   3   6   5    0.42    0.05
  -4  -8  -3    0.14    0.04
   4   8   3    0.11    0.03
   4   8   3    0.14    0.04
   2   3 -15    0.43    0.06
   2   3 -15    0.51    0.07
   1   1 -13    7.06    0.19
   1   1 -13    7.24    0.19
   0  -1 -11    0.07    0.03
   0  -1 -11    0.04    0.02
   0  -1 -11    0.05    0.03
   0   1  11    0.07    0.03
   0   1  11    0.08    0.02
  -1  -3  -9   13.41    0.24
  -1  -3  -9   13.82    0.25
  -1  -3  -9   13.99    0.24
   1   3   9   14.06    0.25
   1   3   9   14.10    0.24
  -2  -5  -7    1.15    0.06
  -2  -5  -7    1.21    0.07
  -2  -5  -7    1.17    0.07
   2   5   7    1.17    0.07
   2   5   7    1.13    0.07
  -3  -7  -5   -0.02    0.02
  -3  -7  -5   -0.01    0.02
  -3  -7  -5    0.02    0.03
   3   7   5    0.01    0.03
   3   7   5   -0.03    0.03
  -4  -9  -3    1.24    0.09
   3   4 -17    0.15    0.07
   2   2 -15    0.03    0.04
   2   2 -15    0.08    0.05
   1   0 -13    4.97    0.15
   1   0 -13    5.31    0.16
   0  -2 -11    1.32    0.07
   0  -2 -11    1.23    0.07
   0  -2 -11    1.31    0.08
   0   2  11    1.25    0.07
   0   2  11    1.31    0.07
  -1  -4  -9    0.03    0.03
  -1  -4  -9    0.04    0.02
  -1  -4  -9    0.05    0.03
   1   4   9    0.06    0.03
   1   4   9    0.02    0.02
  -2  -6  -7    0.92    0.07
  -2  -6  -7    0.97    0.07
  -2  -6  -7    0.90    0.07
   2   6   7    0.96    0.07
   2   6   7    0.94    0.08
  -3  -8  -5    0.92    0.08
  -3  -8  -5    1.04    0.09
   3   8   5    0.90    0.08
   3   8   5    0.94    0.08
   3   3 -17    0.01    0.06
   2   1 -15    0.21    0.05
   2   1 -15    0.27    0.06
   1  -1 -13    0.49    0.06
   1  -1 -13    0.49    0.05
   0  -3 -11    1.94    0.09
   0  -3 -11    2.04    0.09
   0   3  11    1.99    0.09
   0   3  11    2.07    0.09
  -1  -5  -9    0.92    0.07
  -1  -5  -9    0.99    0.07
  -1  -5  -9    0.92    0.07
   1   5   9    0.91    0.07
   1   5   9    1.01    0.08
  -2  -7  -7    2.35    0.10
  -2  -7  -7    2.18    0.10
  -2  -7  -7    2.24    0.10
   2   7   7    2.10    0.10
   2   7   7    2.10    0.10
  -3  -9  -5    3.15    0.13
   3   9   5    3.21    0.13
   3   2 -17    0.08    0.06
   2   0 -15    0.13    0.05
   1  -2 -13    1.13    0.08
   1  -2 -13    1.20    0.09
  -1   2  13    1.14    0.08
  -1   2  13    1.05    0.07
   0  -4 -11    0.04    0.03
   0  -4 -11    0.04    0.03
   0   4  11    0.03    0.04
   0   4  11    0.05    0.03
  -1  -6  -9    1.34    0.09
  -1  -6  -9    1.27    0.08
  -1  -6  -9    1.41    0.08
   1   6   9    1.57    0.09
   1   6   9    1.53    0.09
  -2  -8  -7    3.05    0.12
  -2  -8  -7    3.07    0.12
   2   8   7    3.04    0.13
  -3 -10  -5    4.42    0.16
   3  10   5    4.66    0.16
   3   1 -17    0.49    0.08
   2  -1 -15    1.29    0.11
   1  -3 -13    0.04    0.03
   1  -3 -13    0.03    0.04
  -1   3  13   -0.03    0.04
  -1   3  13   -0.03    0.03
   0  -5 -11    0.05    0.03
   0  -5 -11    0.01    0.04
   0   5  11    0.04    0.04
   0   5  11    0.03    0.03
  -1  -7  -9    1.47    0.09
  -1  -7  -9    1.52    0.09
  -1  -7  -9    1.52    0.10
   1   7   9    1.54    0.10
  -2  -9  -7    0.03    0.05
   2   9   7    0.01    0.05
   3   0 -17    0.12    0.07
   2  -2 -15    0.11    0.05
   1  -4 -13    0.68    0.07
  -1   4  13    0.61    0.06
   0  -6 -11    1.72    0.10
   0  -6 -11    1.55    0.10
   0   6  11    1.62    0.10
  -1  -8  -9    2.82    0.13
   1   8   9    2.89    0.13
  -2 -10  -7    0.29    0.07
   2  10   7    0.28    0.06
   2  -3 -15    1.24    0.12
   1  -5 -13    0.16    0.05
  -1   5  13    0.12    0.05
   0  -7 -11    4.20    0.16
   0   7  11    4.36    0.16
  -1  -9  -9    0.12    0.05
   1   9   9    0.01    0.05
   2  -4 -15    3.33    0.16
  -2   4  15    3.25    0.14
   1  -6 -13    1.05    0.10
  -1   6  13    0.99    0.10
   0  -8 -11    0.18    0.06
   0   8  11    0.16    0.06
   1  -7 -13    0.64    0.08
  -7  10   2    0.67    0.07
  -8   8   4    0.46    0.07
  -7   9   2    0.44    0.06
  -8   7   4    1.27    0.10
  -9   5   6    2.20    0.14
  -6  10   0    0.12    0.04
  -7   8   2    2.76    0.12
  -8   6   4    0.40    0.05
  -9   4   6    1.20    0.10
  -6   9   0    1.98    0.10
  -6   9   0    1.87    0.10
  -7   7   2    0.22    0.05
  -8   5   4    2.52    0.12
  -9   3   6    0.05    0.04
  -6   8   0    1.93    0.10
  -6   8   0    1.98    0.09
  -7   6   2    2.22    0.10
  -7   6   2    2.28    0.11
  -8   4   4    2.04    0.11
  -9   2   6    0.03    0.04
  -5   9  -2    0.68    0.07
  -6   7   0    2.84    0.11
  -6   7   0    2.87    0.11
  -7   5   2    0.44    0.05
  -7   5   2    0.63    0.07
  -8   3   4    5.20    0.15
  -8   3   4    5.14    0.15
  -9   1   6    0.02    0.04
  -4  10  -4    1.04    0.10
  -5   8  -2    0.81    0.06
  -5   8  -2    0.94    0.07
  -6   6   0    3.72    0.12
  -6   6   0    3.71    0.12
  -7   4   2    4.04    0.13
  -7   4   2    4.19    0.13
  -8   2   4    1.91    0.09
  -8   2   4    1.97    0.10
  -9   0   6    1.36    0.09
  -4   9  -4    3.38    0.13
  -5   7  -2    6.77    0.15
  -5   7  -2    6.88    0.15
  -6   5   0    0.11    0.03
  -6   5   0    0.15    0.03
  -7   3   2    8.18    0.18
  -7   3   2    8.53    0.19
  -8   1   4    0.30    0.04
  -8   1   4    0.20    0.03
  -3  10  -6    1.62    0.11
  -4   8  -4    1.82    0.10
  -5   6  -2    1.31    0.07
  -5   6  -2    1.27    0.07
  -5   6  -2    1.17    0.07
  -6   4   0    3.54    0.11
  -6   4   0    3.58    0.11
  -7   2   2    6.18    0.15
  -7   2   2    6.03    0.15
  -8   0   4    0.24    0.03
  -8   0   4    0.33    0.05
  -3   9  -6    1.07    0.09
  -4   7  -4    1.01    0.06
  -4   7  -4    1.07    0.08
  -4   7  -4    1.14    0.06
  -5   5  -2    0.30    0.03
  -5   5  -2    0.47    0.05
  -5   5  -2    0.45    0.05
  -6   3   0    0.22    0.03
  -6   3   0    0.26    0.03
  -7   1   2    2.73    0.10
  -7   1   2    2.50    0.09
  -8  -1   4    1.67    0.09
  -8  -1   4    1.64    0.08
  -3   8  -6    3.29    0.13
  -4   6  -4    0.20    0.03
  -4   6  -4    0.22    0.03
  -4   6  -4    0.20    0.02
  -5   4  -2    8.45    0.16
  -5   4  -2    8.34    0.16
  -5   4  -2    8.34    0.17
  -6   2   0    2.25    0.08
  -6   2   0    2.23    0.08
  -7   0   2    1.31    0.07
  -7   0   2    1.44    0.08
  -8  -2   4    0.82    0.07
  -2   9  -8    1.72    0.11
  -3   7  -6    3.94    0.13
  -4   5  -4    0.46    0.04
  -4   5  -4    0.29    0.03
  -4   5  -4    0.45    0.04
  -5   3  -2   26.78    0.40
  -5   3  -2   27.14    0.40
  -5   3  -2   27.28    0.40
  -6   1   0    0.26    0.03
  -6   1   0    0.23    0.03
  -7  -1   2    0.19    0.04
  -7  -1   2    0.17    0.03
  -2   8  -8    3.05    0.13
  -3   6  -6   13.91    0.27
  -4   4  -4    4.15    0.11
  -4   4  -4    4.14    0.10
  -4   4  -4    4.18    0.10
  -5   2  -2   14.02    0.23
  -5   2  -2   13.85    0.23
  -5   2  -2   14.02    0.23
  -6   0   0    0.87    0.06
  -6   0   0    0.88    0.05
  -6   0   0    0.87    0.06
  -7  -2   2    3.78    0.12
  -7  -2   2    4.06    0.12
  -1   9 -10    1.81    0.12
  -2   7  -8    2.77    0.11
  -3   5  -6    7.25    0.13
  -3   5  -6    7.19    0.13
  -3   5  -6    7.01    0.17
  -4   3  -4   11.79    0.21
  -4   3  -4   12.16    0.20
  -4   3  -4   12.18    0.20
  -5   1  -2    0.01    0.01
  -5   1  -2    0.01    0.02
  -5   1  -2    0.01    0.01
  -6  -1   0    8.32    0.16
  -6  -1   0    8.36    0.17
  -7  -3   2    2.45    0.10
  -7  -3   2    2.37    0.09
  -1   8 -10    0.37    0.05
  -2   6  -8    2.36    0.11
  -3   4  -6    0.83    0.06
  -3   4  -6    0.84    0.04
  -3   4  -6    0.84    0.04
  -4   2  -4   14.88    0.23
  -4   2  -4   14.58    0.23
  -4   2  -4   14.53    0.25
  -5   0  -2    0.22    0.02
  -5   0  -2    0.21    0.02
  -5   0  -2    0.25    0.03
  -6  -2   0   30.18    0.45
  -6  -2   0   30.41    0.45
  -6  -2   0   30.39    0.44
  -7  -4   2    2.30    0.09
  -1   7 -10    2.59    0.12
  -2   5  -8    0.06    0.02
  -3   3  -6    0.56    0.05
  -3   3  -6    0.55    0.04
  -3   3  -6    0.58    0.04
  -4   1  -4   13.75    0.23
  -4   1  -4   13.62    0.22
  -4   1  -4   13.81    0.22
  -5  -1  -2    0.09    0.02
  -5  -1  -2    0.11    0.02
  -5  -1  -2    0.04    0.02
  -6  -3   0   12.66    0.23
  -6  -3   0   12.53    0.23
  -6  -3   0   12.47    0.22
   0   8 -12    0.07    0.04
  -1   6 -10    1.19    0.09
  -2   4  -8    4.60    0.13
  -3   2  -6    3.19    0.10
  -3   2  -6    3.18    0.08
  -3   2  -6    3.27    0.08
  -4   0  -4    1.75    0.07
  -4   0  -4    1.75    0.06
  -4   0  -4    1.73    0.06
  -5  -2  -2   37.50    0.52
  -5  -2  -2   37.23    0.52
  -5  -2  -2   36.07    0.52
  -6  -4   0    2.41    0.09
  -6  -4   0    2.39    0.09
  -6  -4   0    2.37    0.09
   0   7 -12    2.51    0.13
  -1   5 -10    1.31    0.08
  -2   3  -8    0.27    0.03
  -2   3  -8    0.45    0.03
  -2   3  -8    0.44    0.04
  -3   1  -6   33.86    0.47
  -3   1  -6   34.19    0.47
  -3   1  -6   35.16    0.50
  -4  -1  -4    0.11    0.02
  -4  -1  -4    0.07    0.02
  -4  -1  -4    0.06    0.02
  -5  -3  -2   58.54    0.78
  -5  -3  -2   57.32    0.78
  -5  -3  -2   58.19    0.79
  -6  -5   0    0.01    0.02
  -6  -5   0    0.02    0.03
  -6  -5   0    0.01    0.02
   0   6 -12    1.29    0.10
  -1   4 -10    1.41    0.08
  -2   2  -8    9.91    0.20
  -2   2  -8    9.80    0.16
  -3   0  -6   34.39    0.48
  -3   0  -6   33.18    0.47
  -3   0  -6   34.59    0.49
  -4  -2  -4    9.69    0.18
  -4  -2  -4    9.53    0.18
  -4  -2  -4    9.84    0.19
  -5  -4  -2    5.87    0.14
  -5  -4  -2    5.81    0.14
  -5  -4  -2    5.96    0.14
  -6  -6   0    0.77    0.07
   0   5 -12    1.26    0.09
  -1   3 -10    0.14    0.03
  -2   1  -8   16.44    0.25
  -2   1  -8   16.47    0.28
   2  -1   8   16.68    0.25
  -3  -1  -6   12.28    0.22
  -3  -1  -6   12.47    0.21
  -3  -1  -6   11.82    0.20
  -4  -3  -4    5.67    0.13
  -4  -3  -4    5.66    0.14
  -4  -3  -4    5.60    0.13
  -5  -5  -2    4.87    0.13
  -5  -5  -2    4.80    0.13
  -1  -6  14   -0.01    0.04
   0   4 -12    1.65    0.09
   0  -4  12    1.67    0.08
  -1   2 -10    0.17    0.03
  -2   0  -8    5.19    0.11
  -2   0  -8    5.29    0.13
   2   0   8    5.12    0.11
  -3  -2  -6    7.04    0.15
  -3  -2  -6    7.08    0.15
   3   2   6    7.17    0.14
  -4  -4  -4    9.00    0.18
  -4  -4  -4    8.86    0.18
   4   4   4    8.78    0.17
  -5  -6  -2    1.50    0.08
  -5  -6  -2    1.46    0.08
   5   6   2    1.40    0.07
  -1  -5  14    0.85    0.09
   0   3 -12    1.90    0.10
  -1   1 -10    6.40    0.15
   1  -1  10    6.50    0.13
   1  -1  10    6.43    0.13
  -2  -1  -8    8.42    0.17
   2   1   8    8.26    0.16
   2   1   8    8.34    0.16
  -3  -3  -6    8.81    0.18
  -3  -3  -6    8.69    0.17
   3   3   6    8.64    0.17
  -4  -5  -4    0.36    0.04
  -4  -5  -4    0.31    0.03
   4   5   4    0.58    0.06
  -5  -7  -2    1.01    0.08
   5   7   2    1.00    0.08
   5   7   2    1.01    0.07
   1   4 -14    0.13    0.05
   0   2 -12    2.02    0.09
  -1   0 -10   11.78    0.22
   1   0  10   11.72    0.20
   1   0  10   11.83    0.20
  -2  -2  -8    0.04    0.02
   2   2   8   -0.01    0.02
   2   2   8    0.00    0.02
  -3  -4  -6    0.05    0.02
   3   4   6    0.07    0.03
   3   4   6   -0.01    0.02
  -4  -6  -4    0.05    0.03
   4   6   4    0.00    0.02
   4   6   4    0.03    0.03
   1   3 -14    8.70    0.22
   0   1 -12    3.28    0.11
   0   1 -12    3.50    0.12
   0   1 -12    3.07    0.11
  -1  -1 -10    0.38    0.04
   1   1  10    0.61    0.05
   1   1  10    0.68    0.06
  -2  -3  -8    0.08    0.02
   2   3   8    0.04    0.02
   2   3   8    0.04    0.03
  -3  -5  -6    0.92    0.07
   3   5   6    0.92    0.07
   3   5   6    0.88    0.07
  -4  -7  -4    3.23    0.12
   4   7   4    3.12    0.11
   4   7   4    3.38    0.12
   2   4 -16    0.19    0.07
   1   2 -14    1.02    0.10
   1   2 -14    1.18    0.10
   0   0 -12    0.75    0.07
   0   0 -12    0.76    0.06
   0   0 -12    0.81    0.06
   0   0  12    0.72    0.06
  -1  -2 -10    1.14    0.07
  -1  -2 -10    1.17    0.07
  -1  -2 -10    1.19    0.07
   1   2  10    1.16    0.07
   1   2  10    1.20    0.07
  -2  -4  -8    7.67    0.17
   2   4   8    7.95    0.17
   2   4   8    7.70    0.17
  -3  -6  -6    0.74    0.07
   3   6   6    0.78    0.07
   3   6   6    0.75    0.07
   4   8   4    0.74    0.08
   4   8   4    0.81    0.08
   2   3 -16    0.66    0.08
   1   1 -14    0.03    0.04
   1   1 -14    0.07    0.04
   0  -1 -12    0.95    0.07
   0  -1 -12    0.91    0.07
   0   1  12    0.92    0.07
   0   1  12    0.88    0.06
  -1  -3 -10    0.09    0.02
  -1  -3 -10    0.10    0.03
  -1  -3 -10    0.14    0.04
   1   3  10    0.07    0.03
   1   3  10    0.12    0.04
  -2  -5  -8    5.44    0.14
  -2  -5  -8    5.34    0.14
   2   5   8    5.18    0.14
   2   5   8    5.40    0.15
  -3  -7  -6    0.05    0.03
   3   7   6    0.11    0.04
   3   7   6    0.02    0.03
   4   9   4    0.64    0.07
   2   2 -16    0.16    0.06
   1   0 -14    0.83    0.08
   1   0 -14    0.81    0.08
   0  -2 -12    2.19    0.10
   0  -2 -12    2.36    0.10
   0   2  12    2.30    0.09
   0   2  12    2.39    0.10
  -1  -4 -10    2.22    0.09
  -1  -4 -10    2.15    0.09
  -1  -4 -10    2.29    0.10
   1   4  10    2.07    0.09
   1   4  10    2.21    0.10
  -2  -6  -8    0.30    0.05
  -2  -6  -8    0.22    0.03
   2   6   8    0.28    0.05
   2   6   8    0.23    0.04
   3   8   6    1.56    0.10
   2   1 -16    0.16    0.06
   1  -1 -14    0.03    0.04
   1  -1 -14    0.03    0.03
   0  -3 -12    1.04    0.07
   0  -3 -12    1.13    0.08
   0   3  12    1.02    0.08
   0   3  12    1.02    0.08
  -1  -5 -10    1.11    0.08
  -1  -5 -10    1.14    0.07
   1   5  10    1.18    0.08
   1   5  10    1.11    0.09
  -2  -7  -8    0.06    0.04
  -2  -7  -8    0.02    0.03
   2   7   8    0.07    0.04
   3   9   6    0.93    0.10
   2   0 -16    0.32    0.07
   1  -2 -14    0.32    0.06
   1  -2 -14    0.31    0.05
  -1   2  14    0.30    0.05
   0  -4 -12    0.05    0.03
   0  -4 -12    0.03    0.04
   0   4  12    0.03    0.04
   0   4  12   -0.02    0.03
  -1  -6 -10    0.01    0.04
   1   6  10    0.01    0.04
  -2  -8  -8    0.10    0.05
   2   8   8    0.11    0.05
   3  10   6    0.58    0.07
   2  -1 -16    0.58    0.08
   1  -3 -14    0.31    0.06
  -1   3  14    0.31    0.05
   0  -5 -12    3.35    0.13
   0  -5 -12    3.25    0.14
   0   5  12    3.20    0.13
  -1  -7 -10    0.05    0.04
   1   7  10    0.11    0.05
   2   9   8   -0.03    0.05
   2  -2 -16    1.61    0.12
   1  -4 -14    2.17    0.13
  -1   4  14    2.35    0.12
   0  -6 -12    0.47    0.07
   0   6  12    0.45    0.06
  -1  -8 -10   -0.02    0.05
   1   8  10   -0.06    0.05
   2  -3 -16    3.13    0.15
   1  -5 -14    1.10    0.10
  -1   5  14    0.73    0.08
   0  -7 -12    0.11    0.06
   0   7  12    0.07    0.05
  -1  -9 -10    0.16    0.06
   1  -6 -14    0.05    0.05
  -7  10   1    1.25    0.10
  -8   8   3    0.33    0.06
  -7   9   1    0.84    0.09
  -8   7   3    0.52    0.06
  -9   5   5    0.24    0.06
  -7   8   1    0.42    0.06
  -8   6   3    0.01    0.04
  -9   4   5    1.15    0.10
  -6   9  -1    1.72    0.10
  -6   9  -1    1.79    0.09
  -7   7   1    0.03    0.04
  -7   7   1    0.03    0.03
  -8   5   3    0.84    0.08
  -9   3   5    2.69    0.12
  -6   8  -1    2.29    0.10
  -6   8  -1    2.24    0.10
  -7   6   1    2.43    0.11
  -7   6   1    2.32    0.10
  -8   4   3    3.03    0.12
  -9   2   5    3.64    0.14
  -6   7  -1    4.06    0.13
  -6   7  -1    3.85    0.12
  -7   5   1    9.20    0.20
  -7   5   1    9.20    0.20
  -8   3   3    3.73    0.13
  -8   3   3    3.61    0.13
  -9   1   5    0.57    0.06
  -4  10  -5    0.05    0.04
  -5   8  -3    5.62    0.14
  -5   8  -3    5.70    0.14
  -6   6  -1    1.91    0.09
  -6   6  -1    1.95    0.09
  -7   4   1    8.26    0.19
  -7   4   1    8.56    0.19
  -8   2   3    1.55    0.09
  -8   2   3    1.61    0.09
  -9   0   5    0.38    0.05
  -4   9  -5    0.41    0.05
  -5   7  -3    9.01    0.18
  -5   7  -3    8.52    0.18
  -5   7  -3    8.54    0.19
  -6   5  -1    0.18    0.03
  -6   5  -1    0.17    0.03
  -7   3   1    7.98    0.18
  -7   3   1    7.55    0.17
  -8   1   3    4.30    0.14
  -8   1   3    4.17    0.13
  -9  -1   5    0.23    0.05
  -3  10  -7   -0.03    0.03
  -4   8  -5    0.22    0.04
  -5   6  -3    3.37    0.10
  -5   6  -3    3.42    0.10
  -5   6  -3    3.33    0.11
  -6   4  -1    3.91    0.11
  -6   4  -1    3.98    0.11
  -7   2   1    3.34    0.11
  -7   2   1    3.48    0.11
  -8   0   3    0.84    0.07
  -8   0   3    1.00    0.08
  -3   9  -7    1.31    0.10
  -4   7  -5    6.48    0.17
  -5   5  -3    1.10    0.06
  -5   5  -3    1.09    0.07
  -5   5  -3    1.06    0.06
  -6   3  -1    2.06    0.08
  -6   3  -1    2.21    0.08
  -7   1   1    3.52    0.11
  -7   1   1    3.63    0.11
  -8  -1   3    0.04    0.03
  -8  -1   3    0.06    0.03
  -3   8  -7    5.55    0.17
  -4   6  -5    1.74    0.07
  -4   6  -5    1.78    0.09
  -4   6  -5    1.71    0.07
  -5   4  -3    5.55    0.13
  -5   4  -3    5.66    0.13
  -5   4  -3    5.54    0.13
  -6   2  -1    2.58    0.09
  -6   2  -1    2.45    0.09
  -7   0   1    2.68    0.10
  -7   0   1    2.72    0.10
  -8  -2   3    1.41    0.08
  -8  -2   3    1.42    0.09
  -2   9  -9    0.27    0.05
  -3   7  -7    5.95    0.17
  -4   5  -5    1.41    0.08
  -4   5  -5    1.51    0.06
  -4   5  -5    1.48    0.06
  -5   3  -3    1.23    0.06
  -5   3  -3    1.21    0.06
  -5   3  -3    1.31    0.06
  -6   1  -1    3.70    0.10
  -6   1  -1    3.52    0.10
  -6   1  -1    3.66    0.11
  -7  -1   1    0.92    0.07
  -7  -1   1    0.93    0.07
  -2   8  -9    3.11    0.14
  -3   6  -7    1.19    0.08
  -4   4  -5    4.09    0.10
  -4   4  -5    4.15    0.12
  -4   4  -5    4.16    0.10
  -5   2  -3    0.51    0.05
  -5   2  -3    0.55    0.05
  -5   2  -3    0.57    0.04
  -6   0  -1    1.29    0.07
  -6   0  -1    1.20    0.06
  -6   0  -1    1.26    0.07
  -7  -2   1    2.91    0.10
  -7  -2   1    2.76    0.10
  -2   7  -9    2.73    0.13
  -3   5  -7    6.44    0.16
  -4   3  -5    6.77    0.13
  -4   3  -5    6.61    0.13
  -4   3  -5    6.79    0.15
  -5   1  -3    0.96    0.06
  -5   1  -3    0.92    0.05
  -5   1  -3    0.95    0.05
  -6  -1  -1    6.56    0.15
  -6  -1  -1    6.49    0.14
  -6  -1  -1    6.54    0.15
  -7  -3   1    5.05    0.14
  -7  -3   1    5.14    0.14
  -1   8 -11    0.00    0.04
  -2   6  -9    8.02    0.20
  -3   4  -7    7.30    0.17
  -3   4  -7    7.84    0.14
  -3   4  -7    7.75    0.14
  -4   2  -5   11.42    0.21
  -4   2  -5   11.60    0.20
  -4   2  -5   11.51    0.20
  -5   0  -3    0.61    0.05
  -5   0  -3    0.58    0.05
  -5   0  -3    0.58    0.05
  -6  -2  -1    1.72    0.08
  -6  -2  -1    1.80    0.08
  -6  -2  -1    1.91    0.08
  -7  -4   1    1.21    0.08
  -7  -4   1    1.26    0.08
  -1   7 -11    0.26    0.05
  -2   5  -9    0.05    0.03
  -3   3  -7    6.51    0.12
  -3   3  -7    6.56    0.13
  -3   3  -7    6.56    0.16
  -4   1  -5    3.41    0.09
  -4   1  -5    3.28    0.09
  -4   1  -5    3.58    0.10
  -5  -1  -3    0.00    0.02
  -5  -1  -3   -0.03    0.02
  -5  -1  -3    0.01    0.02
  -6  -3  -1    0.64    0.06
  -6  -3  -1    0.56    0.06
  -6  -3  -1    0.59    0.06
  -1   6 -11    3.23    0.13
  -2   4  -9    0.01    0.02
  -3   2  -7    2.67    0.09
  -3   2  -7    2.57    0.07
  -3   2  -7    2.62    0.07
  -4   0  -5    1.11    0.05
  -4   0  -5    1.02    0.05
  -4   0  -5    1.19    0.06
  -5  -2  -3    0.68    0.05
  -5  -2  -3    0.77    0.05
  -5  -2  -3    0.81    0.06
  -6  -4  -1    1.16    0.07
  -6  -4  -1    1.12    0.07
  -6  -4  -1    1.07    0.07
   0   7 -13    0.20    0.05
  -1   5 -11    2.27    0.11
  -2   3  -9    2.32    0.10
  -2   3  -9    2.36    0.07
  -3   1  -7   16.84    0.26
  -3   1  -7   16.82    0.26
  -3   1  -7   16.31    0.28
  -4  -1  -5    3.35    0.09
  -4  -1  -5    3.36    0.10
  -4  -1  -5    3.44    0.09
  -5  -3  -3    2.35    0.09
  -5  -3  -3    2.37    0.09
  -5  -3  -3    2.31    0.09
  -6  -5  -1    1.60    0.08
  -6  -5  -1    1.65    0.09
  -6  -5  -1    1.70    0.08
   0   6 -13    0.47    0.05
  -1   4 -11    1.59    0.09
  -2   2  -9    3.09    0.11
  -2   2  -9    3.16    0.08
   2  -2   9    3.20    0.08
  -3   0  -7    1.91    0.08
  -3   0  -7    2.03    0.07
  -3   0  -7    1.85    0.07
  -4  -2  -5    9.22    0.18
  -4  -2  -5    8.92    0.18
  -4  -2  -5    9.27    0.18
  -5  -4  -3   11.46    0.22
  -5  -4  -3   11.54    0.22
  -5  -4  -3   11.43    0.22
  -6  -6  -1    1.37    0.08
  -6  -6  -1    1.34    0.08
   6   6   1    1.33    0.08
   0   5 -13    2.02    0.11
  -1   3 -11    1.72    0.09
  -2   1  -9    4.73    0.11
  -2   1  -9    4.80    0.13
   2  -1   9    4.97    0.11
  -3  -1  -7    3.22    0.10
  -3  -1  -7    3.05    0.09
   3   1   7    3.24    0.09
  -4  -3  -5   10.38    0.20
  -4  -3  -5   10.28    0.20
  -5  -5  -3   10.67    0.22
  -5  -5  -3   10.79    0.21
   5   5   3   10.58    0.20
   0   4 -13    0.02    0.03
  -1   2 -11    5.47    0.15
  -2   0  -9   11.62    0.22
   2   0   9   11.80    0.20
   2   0   9   12.10    0.20
  -3  -2  -7    3.28    0.10
  -3  -2  -7    3.13    0.09
   3   2   7    3.23    0.09
  -4  -4  -5    4.54    0.13
  -4  -4  -5    4.47    0.12
   4   4   5    4.42    0.12
  -5  -6  -3    0.05    0.03
  -5  -6  -3    0.08    0.03
   5   6   3    0.08    0.03
   0   3 -13    1.40    0.09
  -1   1 -11    1.93    0.09
   1  -1  11    1.88    0.07
   1  -1  11    1.90    0.07
  -2  -1  -9    0.98    0.06
   2   1   9    1.01    0.06
   2   1   9    1.00    0.06
  -3  -3  -7    0.06    0.02
   3   3   7    0.02    0.02
  -4  -5  -5    7.60    0.18
   4   5   5    7.95    0.17
   5   7   3    0.11    0.04
   5   7   3    0.03    0.03
   0   2 -13    3.08    0.11
  -1   0 -11    1.42    0.08
   1   0  11    1.64    0.08
   1   0  11    1.60    0.07
  -2  -2  -9    0.26    0.03
   2   2   9    0.35    0.04
   2   2   9    0.28    0.03
  -3  -4  -7    4.96    0.14
   3   4   7    5.12    0.13
   3   4   7    4.92    0.13
  -4  -6  -5    4.73    0.14
   4   6   5    4.68    0.13
   4   6   5    4.79    0.13
   5   8   3    0.00    0.04
  -1  -1 -11    3.66    0.11
   1   1  11    3.47    0.11
   1   1  11    3.44    0.11
  -2  -3  -9   24.51    0.39
   2   3   9   24.64    0.38
   2   3   9   23.98    0.38
  -3  -5  -7    5.74    0.15
   3   5   7    5.46    0.14
   3   5   7    5.81    0.15
   4   7   5    0.68    0.07
   4   7   5    0.77    0.08
  -1  -2 -11   11.00    0.22
   1   2  11   11.22    0.21
   1   2  11   10.95    0.21
  -2  -4  -9    3.72    0.12
   2   4   9    3.66    0.12
   2   4   9    3.86    0.12
  -3  -6  -7    0.33    0.04
   3   6   7    0.30    0.04
   3   6   7    0.36    0.05
   4   8   5    1.13    0.09
   0   1  13    2.18    0.09
   0   1  13    2.06    0.09
  -1  -3 -11    3.79    0.12
   1   3  11    3.84    0.12
   1   3  11    3.77    0.12
  -2  -5  -9    0.36    0.04
   2   5   9    0.51    0.06
   2   5   9    0.39    0.04
   3   7   7    0.19    0.05
   4   9   5    1.63    0.11
   0   2  13    0.88    0.07
   0   2  13    0.75    0.07
  -1  -4 -11    1.68    0.09
   1   4  11    1.57    0.09
   1   4  11    1.64    0.09
  -2  -6  -9    1.27    0.08
   2   6   9    1.40    0.09
   3   8   7    0.60    0.07
   0   3  13    0.41    0.05
   0   3  13    0.30    0.04
   1   5  11    0.03    0.04
   2   7   9    0.29    0.06
   3   9   7    1.43    0.12
   0   4  13    0.07    0.05
   1   6  11    1.16    0.10
   2   8   9    0.10    0.05
  -1   3  15    0.01    0.04
   0   5  13    0.28    0.06
   1   7  11    0.56    0.07
  -1   4  15    0.27    0.06
   0   6  13   -0.04    0.05
  -7  10   0    0.12    0.05
  -8   8   2    0.06    0.05
  -9   6   4    0.51    0.08
  -7   9   0    0.05    0.04
  -8   7   2    0.52    0.06
  -9   5   4    0.35    0.06
  -7   8   0    0.29    0.05
  -8   6   2   -0.01    0.04
  -9   4   4    1.78    0.11
  -6   9  -2    0.85    0.08
  -7   7   0    0.86    0.08
  -7   7   0    0.88    0.08
  -8   5   2    0.25    0.05
  -9   3   4    0.21    0.05
  -6   8  -2    1.39    0.08
  -6   8  -2    1.36    0.08
  -7   6   0    0.97    0.08
  -7   6   0    1.07    0.08
  -8   4   2    0.85    0.08
  -9   2   4    0.13    0.05
  -6   7  -2    2.47    0.10
  -6   7  -2    2.40    0.10
  -7   5   0    0.51    0.05
  -7   5   0    0.61    0.06
  -8   3   2    4.54    0.14
  -8   3   2    4.63    0.14
  -9   1   4    0.22    0.05
  -4  10  -6   -0.01    0.03
  -5   8  -4    0.88    0.08
  -6   6  -2    3.80    0.12
  -6   6  -2    4.03    0.12
  -7   4   0    0.21    0.03
  -7   4   0    0.31    0.04
  -8   2   2    4.11    0.13
  -8   2   2    4.31    0.14
  -9   0   4    0.91    0.09
  -4   9  -6    0.38    0.05
  -5   7  -4    1.51    0.07
  -5   7  -4    1.51    0.08
  -5   7  -4    1.60    0.09
  -6   5  -2    0.21    0.03
  -6   5  -2    0.35    0.04
  -7   3   0    4.27    0.13
  -7   3   0    4.14    0.13
  -8   1   2    3.52    0.12
  -8   1   2    3.69    0.12
  -4   8  -6    1.11    0.10
  -5   6  -4    5.24    0.15
  -5   6  -4    5.08    0.12
  -5   6  -4    4.91    0.12
  -6   4  -2    0.00    0.02
  -6   4  -2    0.03    0.03
  -7   2   0    4.57    0.13
  -7   2   0    4.57    0.13
  -8   0   2    0.97    0.07
  -8   0   2    0.92    0.08
  -3   9  -8    0.46    0.06
  -4   7  -6    3.21    0.12
  -5   5  -4    1.21    0.06
  -5   5  -4    1.30    0.06
  -5   5  -4    1.22    0.07
  -6   3  -2    8.35    0.17
  -6   3  -2    8.45    0.18
  -6   3  -2    8.18    0.17
  -7   1   0    5.17    0.14
  -7   1   0    5.24    0.14
  -8  -1   2    0.03    0.03
  -8  -1   2    0.03    0.03
  -3   8  -8    1.83    0.11
  -4   6  -6    6.07    0.16
  -5   4  -4    5.44    0.13
  -5   4  -4    5.33    0.12
  -5   4  -4    5.40    0.14
  -6   2  -2    7.78    0.16
  -6   2  -2    8.00    0.17
  -6   2  -2    7.84    0.17
  -7   0   0    0.18    0.03
  -7   0   0    0.25    0.04
  -8  -2   2    1.93    0.09
  -8  -2   2    2.13    0.10
  -3   7  -8    4.78    0.16
  -4   5  -6    9.70    0.17
  -4   5  -6    9.19    0.20
  -4   5  -6    9.48    0.17
  -5   3  -4    6.17    0.13
  -5   3  -4    5.92    0.13
  -5   3  -4    6.23    0.14
  -6   1  -2   13.19    0.24
  -6   1  -2   12.97    0.23
  -6   1  -2   13.02    0.23
  -7  -1   0    0.11    0.03
  -7  -1   0    0.05    0.02
  -8  -3   2    4.79    0.14
  -8  -3   2    4.77    0.14
  -2   8 -10    3.43    0.15
  -3   6  -8    3.03    0.12
  -4   4  -6    2.24    0.07
  -4   4  -6    2.37    0.08
  -4   4  -6    2.16    0.09
  -5   2  -4    8.83    0.18
  -5   2  -4    8.57    0.17
  -5   2  -4    8.79    0.17
  -6   0  -2   16.10    0.27
  -6   0  -2   16.39    0.28
  -6   0  -2   15.47    0.27
  -7  -2   0    5.75    0.15
  -7  -2   0    5.76    0.15
  -2   7 -10    1.05    0.10
  -3   5  -8    3.54    0.12
  -4   3  -6    4.06    0.10
  -4   3  -6    4.14    0.10
  -4   3  -6    4.13    0.12
  -5   1  -4    8.54    0.17
  -5   1  -4    8.41    0.17
  -5   1  -4    8.40    0.17
  -6  -1  -2    1.31    0.07
  -6  -1  -2    1.22    0.07
  -6  -1  -2    1.28    0.07
  -7  -3   0    0.23    0.04
  -7  -3   0    0.21    0.03
  -2   6 -10    3.48    0.14
  -3   4  -8    0.08    0.02
  -3   4  -8    0.09    0.03
  -3   4  -8    0.11    0.02
  -4   2  -6   16.39    0.26
  -4   2  -6   15.98    0.28
  -4   2  -6   15.85    0.26
  -5   0  -4    0.03    0.02
  -5   0  -4    0.04    0.02
  -5   0  -4    0.03    0.02
  -6  -2  -2    0.59    0.06
  -6  -2  -2    0.57    0.05
  -6  -2  -2    0.47    0.05
  -7  -4   0    0.97    0.07
  -7  -4   0    0.91    0.07
  -7  -4   0    0.93    0.07
  -1   7 -12    1.43    0.11
  -2   5 -10    0.88    0.08
  -3   3  -8    5.56    0.12
  -3   3  -8    5.60    0.15
  -3   3  -8    5.47    0.11
  -4   1  -6    0.07    0.02
  -4   1  -6    0.05    0.02
  -4   1  -6    0.06    0.02
  -5  -1  -4    0.05    0.02
  -5  -1  -4    0.10    0.02
  -5  -1  -4    0.15    0.03
  -6  -3  -2    3.86    0.12
  -6  -3  -2    3.93    0.12
  -6  -3  -2    3.93    0.12
  -7  -5   0    2.32    0.10
  -7  -5   0    2.34    0.10
  -7  -5   0    2.28    0.10
  -1   6 -12    6.04    0.18
  -2   4 -10    0.67    0.07
  -3   2  -8    2.52    0.09
  -3   2  -8    2.76    0.08
  -3   2  -8    2.82    0.08
  -4   0  -6    6.31    0.14
  -4   0  -6    6.27    0.13
  -4   0  -6    6.08    0.15
  -5  -2  -4    2.06    0.08
  -5  -2  -4    2.02    0.08
  -5  -2  -4    2.06    0.09
  -6  -4  -2    4.33    0.13
  -6  -4  -2    4.45    0.13
  -6  -4  -2    4.32    0.13
  -1   5 -12    2.10    0.11
  -2   3 -10    0.08    0.03
  -3   1  -8   17.82    0.28
  -3   1  -8   18.05    0.28
  -3   1  -8   17.91    0.31
  -4  -1  -6    0.03    0.02
  -4  -1  -6    0.01    0.02
  -4  -1  -6    0.01    0.02
  -5  -3  -4   19.92    0.33
  -5  -3  -4   19.66    0.32
  -5  -3  -4   19.95    0.33
  -6  -5  -2    3.14    0.11
  -6  -5  -2    3.01    0.11
  -6  -5  -2    3.12    0.11
   0   6 -14    0.40    0.05
  -1   4 -12    0.14    0.03
  -2   2 -10   -0.02    0.02
   2  -2  10   -0.01    0.02
  -3   0  -8    8.53    0.18
  -3   0  -8    8.81    0.17
   3   0   8    8.86    0.16
  -4  -2  -6    0.02    0.02
  -4  -2  -6    0.02    0.02
  -4  -2  -6   -0.02    0.02
  -5  -4  -4    5.06    0.14
  -5  -4  -4    5.15    0.14
  -6  -6  -2    2.41    0.10
   6   6   2    2.26    0.10
   0   5 -14    0.15    0.04
  -1   3 -12    0.02    0.03
  -2   1 -10    0.18    0.03
   2  -1  10    0.18    0.03
   2  -1  10    0.25    0.03
  -3  -1  -8    2.20    0.09
  -3  -1  -8    2.10    0.08
   3   1   8    2.13    0.08
  -4  -3  -6    0.03    0.02
  -4  -3  -6    0.03    0.02
   4   3   6    0.02    0.02
  -5  -5  -4    3.00    0.11
  -5  -5  -4    2.95    0.11
   5   5   4    2.96    0.10
   0   4 -14   -0.05    0.03
  -1   2 -12    0.29    0.04
  -2   0 -10    0.08    0.02
   2   0  10    0.09    0.02
   2   0  10    0.09    0.03
  -3  -2  -8    0.00    0.02
  -3  -2  -8    0.01    0.02
   3   2   8   -0.01    0.02
  -4  -4  -6    4.29    0.13
  -4  -4  -6    4.06    0.12
   4   4   6    4.28    0.12
  -5  -6  -4    2.86    0.11
   5   6   4    2.87    0.11
  -1   1 -12    0.10    0.03
  -2  -1 -10    2.36    0.10
   2   1  10    2.32    0.09
   2   1  10    2.37    0.09
  -3  -3  -8    0.20    0.03
   3   3   8    0.24    0.03
   3   3   8    0.27    0.04
  -4  -5  -6    7.93    0.19
   4   5   6    7.89    0.18
   4   5   6    8.15    0.18
   5   7   4    0.06    0.04
  -1   0 -12    2.95    0.11
   1   0  12    2.66    0.09
   1   0  12    2.80    0.10
  -2  -2 -10    5.70    0.15
   2   2  10    5.59    0.14
   2   2  10    5.59    0.14
  -3  -4  -8    3.14    0.11
   3   4   8    3.09    0.11
   3   4   8    3.02    0.11
  -4  -6  -6    1.45    0.09
   4   6   6    1.53    0.09
   4   6   6    1.31    0.09
   5   8   4   -0.01    0.04
  -1  -1 -12    0.17    0.03
   1   1  12    0.28    0.04
   1   1  12    0.19    0.03
  -2  -3 -10    3.67    0.12
   2   3  10    3.84    0.12
   2   3  10    3.88    0.12
  -3  -5  -8    0.17    0.03
   3   5   8    0.16    0.04
   3   5   8    0.12    0.03
   4   7   6    0.09    0.04
  -1  -2 -12    0.05    0.02
   1   2  12    0.05    0.03
   1   2  12    0.09    0.04
  -2  -4 -10    0.22    0.03
   2   4  10    0.38    0.05
   2   4  10    0.24    0.04
  -3  -6  -8    2.50    0.11
   3   6   8    2.58    0.12
   4   8   6    0.31    0.06
   1   3  12    0.42    0.05
   1   3  12    0.32    0.04
  -2  -5 -10    0.12    0.03
   2   5  10    0.19    0.05
   3   7   8    2.36    0.12
   4   9   6    0.02    0.05
   0   2  14    0.27    0.04
   0   2  14    0.36    0.05
   1   4  12    0.95    0.09
   2   6  10    0.09    0.05
   3   8   8    0.06    0.05
   0   3  14    1.72    0.11
   1   5  12    0.13    0.05
   2   7  10    0.09    0.05
   0   4  14    0.23    0.06
   1   6  12    1.47    0.11
   0   5  14    0.26    0.06
  -8   9   1    0.60    0.07
  -7  10  -1    0.59    0.07
  -8   8   1    0.43    0.06
  -9   6   3    0.68    0.07
  -7   9  -1    0.36    0.06
  -8   7   1    0.45    0.06
  -9   5   3    0.36    0.06
  -7   8  -1    1.31    0.09
  -8   6   1    0.17    0.05
  -9   4   3    0.92    0.09
  -7   7  -1    1.08    0.08
  -7   7  -1    1.06    0.08
  -8   5   1    1.26    0.09
  -9   3   3    0.51    0.06
  -6   8  -3    1.95    0.09
  -6   8  -3    2.02    0.10
  -7   6  -1    2.41    0.10
  -7   6  -1    2.32    0.10
  -8   4   1    1.16    0.09
  -9   2   3    1.19    0.09
  -5   9  -5    0.14    0.04
  -6   7  -3    1.91    0.09
  -6   7  -3    1.90    0.09
  -7   5  -1    0.36    0.04
  -7   5  -1    0.50    0.05
  -8   3   1    6.54    0.17
  -8   3   1    6.36    0.17
  -9   1   3    0.80    0.09
  -5   8  -5    0.46    0.05
  -6   6  -3    0.39    0.05
  -6   6  -3    0.29    0.04
  -7   4  -1    0.32    0.04
  -7   4  -1    0.38    0.05
  -8   2   1    5.86    0.16
  -8   2   1    5.68    0.16
  -9   0   3    1.40    0.10
  -4   9  -7   -0.02    0.03
  -5   7  -5    0.89    0.06
  -5   7  -5    0.79    0.08
  -6   5  -3   -0.01    0.02
  -6   5  -3    0.04    0.03
  -7   3  -1    2.03    0.09
  -7   3  -1    2.15    0.10
  -8   1   1    2.48    0.10
  -8   1   1    2.67    0.11
  -4   8  -7    0.11    0.04
  -5   6  -5    6.61    0.15
  -5   6  -5    6.89    0.17
  -5   6  -5    6.79    0.15
  -6   4  -3    0.01    0.03
  -6   4  -3    0.00    0.02
  -6   4  -3    0.00    0.02
  -7   2  -1    8.88    0.19
  -7   2  -1    8.99    0.19
  -8   0   1    0.43    0.04
  -8   0   1    0.65    0.07
  -9  -2   3    0.83    0.08
  -3   9  -9   -0.01    0.04
  -4   7  -7    1.63    0.10
  -5   5  -5    3.51    0.10
  -5   5  -5    3.53    0.10
  -5   5  -5    3.42    0.12
  -6   3  -3    5.97    0.14
  -6   3  -3    6.17    0.14
  -6   3  -3    5.97    0.14
  -7   1  -1    5.00    0.14
  -7   1  -1    5.42    0.14
  -8  -1   1    0.11    0.04
  -8  -1   1    0.06    0.03
  -3   8  -9    0.42    0.05
  -4   6  -7    8.69    0.21
  -5   4  -5    1.28    0.07
  -5   4  -5    1.21    0.06
  -5   4  -5    1.25    0.07
  -6   2  -3    6.16    0.15
  -6   2  -3    6.21    0.15
  -6   2  -3    6.17    0.14
  -7   0  -1   10.02    0.21
  -8  -2   1    1.10    0.08
  -8  -2   1    1.00    0.08
  -3   7  -9    0.13    0.04
  -4   5  -7    4.31    0.11
  -4   5  -7    4.29    0.14
  -4   5  -7    4.38    0.11
  -5   3  -5    1.37    0.07
  -5   3  -5    1.39    0.07
  -5   3  -5    1.57    0.07
  -6   1  -3   11.80    0.22
  -6   1  -3   11.40    0.22
  -6   1  -3   11.41    0.22
  -7  -1  -1    4.40    0.13
  -7  -1  -1    4.29    0.13
  -8  -3   1    0.11    0.04
  -8  -3   1    0.09    0.03
  -2   8 -11    0.42    0.06
  -3   6  -9    0.13    0.04
  -4   4  -7    1.77    0.07
  -4   4  -7    1.74    0.09
  -4   4  -7    1.83    0.07
  -5   2  -5    4.60    0.11
  -5   2  -5    4.26    0.12
  -5   2  -5    4.31    0.11
  -6   0  -3    0.01    0.02
  -6   0  -3    0.03    0.02
  -6   0  -3    0.03    0.02
  -7  -2  -1    0.36    0.04
  -7  -2  -1    0.40    0.05
  -8  -4   1    0.33    0.05
  -2   7 -11    0.33    0.05
  -3   5  -9    6.47    0.18
  -4   3  -7   -0.01    0.02
  -4   3  -7    0.02    0.02
  -4   3  -7    0.00    0.02
  -5   1  -5    5.82    0.14
  -5   1  -5    6.00    0.14
  -5   1  -5    5.84    0.13
  -6  -1  -3    2.14    0.09
  -6  -1  -3    1.95    0.08
  -6  -1  -3    2.28    0.09
  -7  -3  -1    1.18    0.08
  -7  -3  -1    1.26    0.08
  -7  -3  -1    1.32    0.08
  -2   6 -11    4.66    0.16
  -3   4  -9    0.04    0.02
  -4   2  -7    2.81    0.09
  -4   2  -7    2.86    0.10
  -4   2  -7    2.88    0.09
  -5   0  -5    0.99    0.06
  -5   0  -5    0.96    0.06
  -5   0  -5    0.93    0.06
  -6  -2  -3    1.63    0.08
  -6  -2  -3    1.69    0.08
  -6  -2  -3    1.69    0.08
  -7  -4  -1    2.50    0.11
  -7  -4  -1    2.49    0.10
  -7  -4  -1    2.54    0.10
  -2   5 -11    8.10    0.21
  -3   3  -9    3.69    0.10
  -3   3  -9    3.75    0.10
  -3   3  -9    3.47    0.12
  -4   1  -7    1.33    0.06
  -4   1  -7    1.34    0.07
  -4   1  -7    1.25    0.07
  -5  -1  -5    3.70    0.11
  -5  -1  -5    3.59    0.10
  -5  -1  -5    3.85    0.12
  -6  -3  -3    3.72    0.12
  -6  -3  -3    3.74    0.12
  -6  -3  -3    3.57    0.12
  -7  -5  -1    0.24    0.04
  -7  -5  -1    0.32    0.05
  -7  -5  -1    0.32    0.04
  -1   6 -13    2.26    0.13
  -2   4 -11    0.77    0.08
  -3   2  -9    2.05    0.07
  -3   2  -9    1.90    0.09
  -4   0  -7   13.97    0.24
  -4   0  -7   14.65    0.25
  -4   0  -7   15.07    0.27
  -5  -2  -5    0.54    0.06
  -5  -2  -5    0.61    0.06
  -6  -4  -3    2.55    0.10
  -6  -4  -3    2.42    0.10
  -6  -4  -3    2.48    0.10
  -1   5 -13    2.40    0.12
  -2   3 -11    0.30    0.04
  -3   1  -9    2.84    0.09
  -3   1  -9    2.95    0.11
   3  -1   9    2.94    0.09
  -4  -1  -7    0.00    0.02
  -4  -1  -7    0.03    0.02
  -4  -1  -7    0.02    0.02
  -5  -3  -5    3.10    0.10
  -5  -3  -5    3.37    0.11
  -5  -3  -5    3.20    0.11
  -6  -5  -3    0.70    0.07
  -6  -5  -3    0.66    0.07
  -1   4 -13    1.29    0.10
  -2   2 -11   -0.03    0.02
  -3   0  -9    6.05    0.15
  -3   0  -9    5.68    0.13
   3   0   9    5.95    0.13
  -4  -2  -7    1.12    0.07
  -4  -2  -7    0.99    0.07
   4   2   7    1.09    0.07
  -5  -4  -5    1.48    0.08
  -5  -4  -5    1.39    0.08
   5   4   5    1.38    0.08
  -6  -6  -3    0.06    0.04
  -1   3 -13    0.03    0.03
  -2   1 -11    6.34    0.16
   2  -1  11    6.29    0.14
   2  -1  11    6.55    0.14
  -3  -1  -9    0.75    0.06
  -3  -1  -9    0.80    0.07
   3   1   9    0.71    0.06
  -4  -3  -7    1.89    0.09
  -4  -3  -7    1.97    0.09
   4   3   7    1.94    0.08
  -5  -5  -5    0.33    0.04
  -5  -5  -5    0.45    0.05
   5   5   5    0.33    0.04
   6   7   3    0.11    0.04
  -1   2 -13    0.71    0.08
  -2   0 -11   11.49    0.23
   2   0  11   11.39    0.21
   2   0  11   11.56    0.21
  -3  -2  -9    1.17    0.07
   3   2   9    1.04    0.07
   3   2   9    1.13    0.07
  -4  -4  -7    1.80    0.09
   4   4   7    1.91    0.09
   5   6   5    0.52    0.06
  -1   1 -13    0.00    0.02
  -2  -1 -11   15.13    0.28
   2   1  11   14.40    0.26
   2   1  11   14.55    0.26
  -3  -3  -9   -0.01    0.02
   3   3   9    0.02    0.03
   3   3   9    0.04    0.03
  -4  -5  -7    2.38    0.11
   4   5   7    2.44    0.11
   4   5   7    2.34    0.10
   5   7   5    0.10    0.04
  -1   0 -13    0.75    0.07
  -2  -2 -11    0.07    0.03
   2   2  11    0.08    0.03
   2   2  11    0.10    0.04
  -3  -4  -9    3.54    0.12
   3   4   9    3.64    0.12
   3   4   9    3.63    0.12
   4   6   7    0.58    0.06
   5   8   5    1.93    0.11
  -1  -1 -13    2.99    0.11
   1   1  13    3.03    0.11
   1   1  13    2.93    0.11
  -2  -3 -11    0.01    0.02
   2   3  11    0.07    0.03
   2   3  11    0.12    0.04
  -3  -5  -9    3.02    0.12
   3   5   9    2.97    0.12
   4   7   7    2.38    0.12
   1   2  13    1.15    0.09
   1   2  13    1.25    0.09
  -2  -4 -11    0.80    0.07
   2   4  11    0.45    0.05
   2   4  11    0.57    0.06
   3   6   9    3.02    0.13
   4   8   7    4.27    0.16
   1   3  13    0.09    0.04
   2   5  11    1.40    0.10
   3   7   9    0.76    0.08
   1   4  13    2.06    0.11
   2   6  11    2.42    0.13
   3   8   9    0.04    0.05
   0   3  15   -0.04    0.04
   1   5  13    2.28    0.12
   2   7  11    0.34    0.07
   0   4  15    0.28    0.06
  -8   9   0    0.33    0.06
  -8   8   0    0.02    0.04
  -9   6   2    1.13    0.10
  -7   9  -2    0.42    0.06
  -8   7   0    0.03    0.04
  -9   5   2    0.66    0.07
  -7   8  -2    2.06    0.11
  -8   6   0    0.45    0.06
  -9   4   2    0.79    0.08
  -7   7  -2    0.13    0.04
  -7   7  -2    0.12    0.03
  -8   5   0    3.38    0.13
  -9   3   2    0.05    0.04
  -6   8  -4    1.83    0.09
  -7   6  -2    0.08    0.03
  -7   6  -2    0.08    0.04
  -8   4   0    1.22    0.09
  -9   2   2    0.63    0.07
  -5   9  -6    0.03    0.03
  -6   7  -4    0.45    0.05
  -6   7  -4    0.34    0.04
  -7   5  -2    0.00    0.02
  -7   5  -2   -0.03    0.03
  -8   3   0    2.18    0.11
  -8   3   0    2.34    0.11
  -9   1   2    0.20    0.05
  -5   8  -6    0.13    0.04
  -6   6  -4    0.89    0.07
  -6   6  -4    0.78    0.06
  -7   4  -2    0.06    0.03
  -7   4  -2    0.05    0.03
  -8   2   0    0.03    0.03
  -8   2   0    0.01    0.04
  -9   0   2    0.20    0.05
  -4   9  -8    0.00    0.03
  -5   7  -6    0.35    0.04
  -6   5  -4    5.19    0.14
  -6   5  -4    5.20    0.13
  -6   5  -4    4.95    0.13
  -7   3  -2    0.84    0.07
  -7   3  -2    0.77    0.07
  -8   1   0    0.02    0.03
  -8   1   0    0.02    0.03
  -9  -1   2    0.60    0.06
  -4   8  -8    0.48    0.05
  -5   6  -6    4.53    0.12
  -5   6  -6    4.54    0.12
  -5   6  -6    4.55    0.14
  -6   4  -4    0.29    0.03
  -6   4  -4    0.52    0.05
  -6   4  -4    0.38    0.04
  -7   2  -2    4.06    0.12
  -7   2  -2    4.02    0.12
  -8   0   0    0.87    0.08
  -8   0   0    0.81    0.07
  -9  -2   2    0.96    0.09
  -4   7  -8    5.27    0.17
  -5   5  -6    3.20    0.10
  -5   5  -6    3.17    0.10
  -5   5  -6    3.12    0.12
  -6   3  -4    0.61    0.06
  -6   3  -4    0.74    0.06
  -6   3  -4    0.61    0.06
  -7   1  -2    3.80    0.12
  -8  -1   0    0.39    0.04
  -8  -1   0    0.48    0.05
  -9  -3   2    5.05    0.18
  -3   8 -10    0.00    0.03
  -4   6  -8    1.53    0.10
  -5   4  -6    1.26    0.08
  -5   4  -6    1.23    0.07
  -5   4  -6    1.28    0.07
  -6   2  -4    1.10    0.07
  -6   2  -4    1.03    0.07
  -6   2  -4    1.21    0.07
  -7   0  -2   14.15    0.26
  -7   0  -2   14.13    0.27
  -8  -2   0    1.31    0.09
  -8  -2   0    1.31    0.09
  -3   7 -10    0.25    0.04
  -4   5  -8    0.79    0.08
  -5   3  -6    1.74    0.08
  -5   3  -6    1.56    0.07
  -5   3  -6    1.61    0.07
  -6   1  -4    5.41    0.14
  -6   1  -4    5.45    0.14
  -6   1  -4    5.59    0.14
  -7  -1  -2    2.82    0.10
  -7  -1  -2    3.01    0.11
  -7  -1  -2    2.90    0.11
  -8  -3   0    5.79    0.16
  -3   6 -10    1.71    0.11
  -4   4  -8    3.63    0.10
  -4   4  -8    3.48    0.10
  -4   4  -8    3.32    0.12
  -5   2  -6    1.50    0.08
  -5   2  -6    1.41    0.07
  -5   2  -6    1.45    0.07
  -6   0  -4   19.05    0.32
  -6   0  -4   18.59    0.32
  -6   0  -4   18.87    0.32
  -7  -2  -2    0.07    0.03
  -7  -2  -2    0.15    0.04
  -7  -2  -2    0.11    0.03
  -8  -4   0    5.71    0.16
  -2   7 -12    0.32    0.05
  -3   5 -10    5.74    0.17
  -4   3  -8    0.31    0.04
  -4   3  -8    0.45    0.04
  -4   3  -8    0.48    0.05
  -5   1  -6    5.94    0.14
  -5   1  -6    5.86    0.14
  -5   1  -6    5.78    0.15
  -6  -1  -4   20.41    0.34
  -6  -1  -4   21.47    0.35
  -6  -1  -4   21.08    0.35
  -7  -3  -2    0.05    0.03
  -7  -3  -2    0.03    0.02
  -7  -3  -2    0.02    0.02
  -2   6 -12    0.45    0.05
  -3   4 -10    1.84    0.10
  -4   2  -8   17.70    0.29
  -4   2  -8   18.36    0.29
  -4   2  -8   17.76    0.32
  -5   0  -6    1.10    0.07
  -5   0  -6    0.99    0.07
  -5   0  -6    1.10    0.07
  -6  -2  -4    2.37    0.10
  -6  -2  -4    2.41    0.10
  -6  -2  -4    2.45    0.10
  -7  -4  -2    0.13    0.03
  -7  -4  -2    0.17    0.04
  -7  -4  -2    0.12    0.03
  -2   5 -12    1.54    0.10
  -3   3 -10    1.89    0.10
  -4   1  -8    3.59    0.10
  -4   1  -8    3.68    0.12
  -4   1  -8    3.66    0.11
  -5  -1  -6   10.17    0.20
  -5  -1  -6   10.17    0.20
  -5  -1  -6    9.86    0.21
  -6  -3  -4    0.15    0.04
  -6  -3  -4    0.10    0.03
  -6  -3  -4    0.15    0.03
  -7  -5  -2    1.54    0.09
  -2   4 -12    0.02    0.03
  -3   2 -10    1.11    0.08
  -3   2 -10    1.03    0.06
   3  -2  10    1.12    0.06
  -4   0  -8    8.09    0.17
  -4   0  -8    7.88    0.17
  -4   0  -8    8.29    0.19
  -5  -2  -6    0.81    0.06
  -5  -2  -6    0.71    0.07
  -5  -2  -6    0.74    0.07
  -6  -4  -4    2.63    0.11
  -6  -4  -4    2.71    0.11
  -6  -4  -4    2.66    0.11
  -7  -6  -2    2.39    0.11
  -1   5 -14    0.51    0.05
  -2   3 -12    0.36    0.04
  -3   1 -10    4.61    0.14
  -3   1 -10    4.82    0.12
   3  -1  10    4.91    0.12
  -4  -1  -8    2.76    0.10
  -4  -1  -8    2.87    0.10
   4   1   8    2.97    0.10
  -5  -3  -6    0.00    0.03
  -5  -3  -6    0.03    0.02
  -6  -5  -4    0.70    0.07
  -1   4 -14    1.34    0.10
  -2   2 -12    1.12    0.08
  -3   0 -10    1.22    0.08
   3   0  10    1.14    0.07
  -4  -2  -8    0.68    0.06
  -4  -2  -8    0.74    0.06
   4   2   8    0.77    0.07
  -5  -4  -6    0.10    0.03
  -5  -4  -6    0.14    0.04
   5   4   6    0.15    0.03
  -6  -6  -4    2.96    0.12
  -1   3 -14    0.09    0.03
  -2   1 -12    0.20    0.04
  -3  -1 -10    0.10    0.03
   3   1  10    0.09    0.03
   3   1  10    0.13    0.04
  -4  -3  -8    1.65    0.09
  -4  -3  -8    1.49    0.08
   4   3   8    1.60    0.08
   5   5   6    2.98    0.12
   6   7   4    0.16    0.05
  -1   2 -14    0.00    0.03
  -2   0 -12    0.21    0.03
   2   0  12    0.30    0.04
   2   0  12    0.18    0.03
  -3  -2 -10    3.75    0.13
   3   2  10    3.92    0.12
   3   2  10    3.89    0.12
  -4  -4  -8    0.23    0.04
   4   4   8    0.27    0.05
   4   4   8    0.20    0.04
   5   6   6    1.54    0.10
   6   8   4    0.63    0.07
  -1   1 -14    0.40    0.04
  -2  -1 -12    0.79    0.07
   2   1  12    0.73    0.07
  -3  -3 -10    0.64    0.07
   3   3  10    0.74    0.08
   3   3  10    0.43    0.04
   4   5   8    1.58    0.10
   5   7   6    0.16    0.05
  -2  -2 -12    0.25    0.04
   2   2  12    0.30    0.05
   2   2  12    0.25    0.04
  -3  -4 -10    0.10    0.03
   3   4  10    0.09    0.03
   3   4  10    0.18    0.05
   4   6   8    1.99    0.11
   5   8   6    0.00    0.05
  -2  -3 -12    0.16    0.03
   2   3  12    0.12    0.05
   3   5  10    1.05    0.09
   4   7   8    0.95    0.10
   1   2  14    0.35    0.06
   2   4  12   -0.04    0.04
   3   6  10    0.07    0.05
   1   3  14    0.43    0.06
   2   5  12   -0.02    0.05
   3   7  10    0.25    0.06
   1   4  14    1.06    0.10
   2   6  12    0.04    0.05
  -8   9  -1    0.08    0.05
  -8   8  -1    0.54    0.07
  -9   6   1    1.08    0.10
  -8   7  -1    4.92    0.16
  -9   5   1    0.59    0.07
  -7   8  -3    0.88    0.08
  -8   6  -1    2.45    0.12
  -9   4   1    1.04    0.09
  -7   7  -3    0.34    0.04
  -7   7  -3    0.40    0.05
  -8   5  -1    3.27    0.13
  -9   3   1    0.90    0.09
  -7   6  -3    0.93    0.09
  -7   6  -3    1.01    0.08
  -8   4  -1    0.37    0.05
  -9   2   1    1.63    0.11
  -6   7  -5    0.97    0.08
  -7   5  -3    0.36    0.04
  -7   5  -3    0.50    0.05
  -8   3  -1    0.81    0.07
  -8   3  -1    0.75    0.07
  -9   1   1    0.13    0.04
  -5   8  -7    0.50    0.05
  -6   6  -5    0.30    0.04
  -6   6  -5    0.46    0.05
  -6   6  -5    0.57    0.06
  -7   4  -3    0.87    0.07
  -7   4  -3    0.73    0.07
  -8   2  -1    2.11    0.11
  -8   2  -1    2.03    0.10
  -9   0   1    0.00    0.04
  -5   7  -7    0.91    0.09
  -6   5  -5    1.09    0.07
  -6   5  -5    1.11    0.07
  -6   5  -5    1.11    0.08
  -7   3  -3    0.02    0.03
  -7   3  -3    0.08    0.04
  -8   1  -1    0.91    0.08
  -8   1  -1    0.99    0.08
  -9  -1   1    1.09    0.09
  -4   8  -9   -0.03    0.03
  -5   6  -7    3.57    0.13
  -6   4  -5    0.84    0.07
  -6   4  -5    0.79    0.06
  -6   4  -5    0.95    0.07
  -7   2  -3    3.85    0.12
  -7   2  -3    3.90    0.13
  -8   0  -1    0.45    0.05
  -8   0  -1    0.52    0.06
  -9  -2   1    1.05    0.09
  -4   7  -9    0.15    0.04
  -5   5  -7    2.09    0.08
  -5   5  -7    2.11    0.10
  -5   5  -7    2.02    0.08
  -6   3  -5   -0.01    0.02
  -6   3  -5    0.02    0.03
  -6   3  -5   -0.01    0.02
  -7   1  -3    5.87    0.15
  -7   1  -3    5.37    0.15
  -7   1  -3    5.72    0.15
  -8  -1  -1    2.63    0.11
  -9  -3   1    1.63    0.10
  -4   6  -9    0.07    0.03
  -5   4  -7    0.78    0.07
  -5   4  -7    0.75    0.06
  -5   4  -7    0.71    0.06
  -6   2  -5    1.93    0.08
  -6   2  -5    1.85    0.08
  -6   2  -5    1.69    0.08
  -7   0  -3    3.66    0.12
  -7   0  -3    3.81    0.12
  -7   0  -3    3.89    0.13
  -8  -2  -1    0.37    0.05
  -3   7 -11   -0.03    0.03
  -4   5  -9    2.25    0.11
  -5   3  -7    0.14    0.03
  -5   3  -7    0.15    0.03
  -5   3  -7    0.20    0.03
  -6   1  -5    3.19    0.10
  -6   1  -5    3.25    0.11
  -6   1  -5    3.33    0.11
  -7  -1  -3    0.09    0.03
  -7  -1  -3    0.07    0.03
  -7  -1  -3    0.06    0.03
  -8  -3  -1    0.23    0.05
  -3   6 -11    0.01    0.03
  -4   4  -9    6.62    0.18
  -5   2  -7    0.35    0.04
  -5   2  -7    0.56    0.06
  -5   2  -7    0.50    0.05
  -6   0  -5    1.55    0.08
  -6   0  -5    1.42    0.08
  -6   0  -5    1.55    0.08
  -7  -2  -3    0.07    0.03
  -7  -2  -3    0.07    0.03
  -7  -2  -3    0.05    0.03
  -8  -4  -1    1.10    0.09
  -3   5 -11    1.97    0.11
  -4   3  -9    0.06    0.03
  -4   3  -9    0.03    0.03
  -4   3  -9    0.04    0.02
  -5   1  -7    3.03    0.11
  -5   1  -7    3.22    0.10
  -5   1  -7    3.27    0.10
  -6  -1  -5    0.66    0.07
  -6  -1  -5    0.63    0.07
  -6  -1  -5    0.59    0.06
  -7  -3  -3    0.23    0.04
  -7  -3  -3    0.34    0.05
  -7  -3  -3    0.23    0.04
  -8  -5  -1    1.87    0.11
  -3   4 -11    3.98    0.14
  -4   2  -9    2.08    0.10
  -4   2  -9    2.03    0.08
  -4   2  -9    1.94    0.08
  -5   0  -7    4.46    0.12
  -5   0  -7    4.41    0.12
  -5   0  -7    4.44    0.14
  -6  -2  -5    3.39    0.12
  -6  -2  -5    3.36    0.12
  -6  -2  -5    3.15    0.12
  -7  -4  -3    2.45    0.11
  -2   5 -13    2.04    0.12
  -3   3 -11    1.09    0.09
  -4   1  -9    0.69    0.07
  -4   1  -9    0.76    0.06
  -4   1  -9    0.87    0.06
  -5  -1  -7   13.48    0.25
  -5  -1  -7   13.35    0.25
  -5  -1  -7   13.62    0.26
  -6  -3  -5    1.01    0.08
  -6  -3  -5    1.02    0.08
  -6  -3  -5    1.08    0.08
  -7  -5  -3    2.34    0.11
  -2   4 -13    2.28    0.12
  -3   2 -11    2.13    0.08
  -3   2 -11    2.20    0.11
  -4   0  -9    3.09    0.10
  -4   0  -9    3.08    0.12
   4   0   9    3.00    0.10
  -5  -2  -7    0.67    0.07
  -5  -2  -7    0.77    0.07
  -6  -4  -5    0.31    0.05
  -6  -4  -5    0.27    0.04
   6   4   5    0.25    0.04
  -7  -6  -3    1.46    0.10
  -2   3 -13    1.53    0.10
  -3   1 -11    0.23    0.04
   3  -1  11    0.18    0.03
  -4  -1  -9    0.83    0.07
  -4  -1  -9    0.91    0.07
   4   1   9    0.91    0.07
  -5  -3  -7    0.83    0.07
  -5  -3  -7    1.08    0.08
   5   3   7    0.83    0.07
  -6  -5  -5    0.33    0.05
  -2   2 -13    0.00    0.03
  -3   0 -11    1.25    0.09
   3   0  11    1.41    0.08
   3   0  11    1.25    0.08
  -4  -2  -9    0.82    0.07
  -4  -2  -9    0.92    0.07
   4   2   9    0.83    0.07
  -5  -4  -7    3.10    0.12
  -5  -4  -7    3.12    0.12
   5   4   7    3.00    0.11
  -2   1 -13    1.86    0.10
  -3  -1 -11    7.30    0.19
   3   1  11    7.48    0.17
   3   1  11    7.50    0.17
  -4  -3  -9    2.30    0.11
   4   3   9    2.23    0.10
   4   3   9    2.28    0.10
   5   5   7    0.64    0.06
   6   7   5    0.15    0.05
  -2   0 -13    4.66    0.15
   2   0  13    4.34    0.14
  -3  -2 -11    4.40    0.14
   3   2  11    4.39    0.13
   3   2  11    4.40    0.13
   4   4   9    0.07    0.04
   5   6   7    1.50    0.10
  -2  -1 -13    3.35    0.13
   2   1  13    3.29    0.12
   2   1  13    3.18    0.12
  -3  -3 -11    0.03    0.03
   3   3  11    0.05    0.04
   4   5   9    0.64    0.07
   5   7   7    0.65    0.07
  -2  -2 -13    1.70    0.09
   2   2  13    1.92    0.10
   3   4  11    0.06    0.05
   4   6   9    1.36    0.11
   2   3  13    0.05    0.05
   3   5  11    0.02    0.05
   4   7   9    0.46    0.07
   2   4  13   -0.03    0.05
   3   6  11    0.02    0.05
   1   3  15    0.10    0.05
   2   5  13    0.59    0.07
  -8   9  -2    0.32    0.06
  -8   8  -2    0.31    0.06
  -9   6   0    0.57    0.07
  -8   7  -2    0.53    0.07
  -9   5   0    0.44    0.07
  -7   8  -4    0.63    0.07
  -8   6  -2   -0.03    0.04
  -9   4   0    1.85    0.11
  -7   7  -4    1.10    0.08
  -7   7  -4    1.08    0.08
  -8   5  -2    1.38    0.10
  -9   3   0    0.59    0.07
  -7   6  -4    0.10    0.03
  -7   6  -4    0.07    0.04
  -8   4  -2    1.00    0.09
  -6   7  -6    1.32    0.09
  -7   5  -4    0.91    0.08
  -7   5  -4    1.04    0.08
  -8   3  -2    0.52    0.06
  -9   1   0    0.13    0.05
  -5   8  -8    0.47    0.06
  -6   6  -6    0.90    0.07
  -6   6  -6    1.00    0.08
  -6   6  -6    0.97    0.08
  -7   4  -4    2.99    0.12
  -7   4  -4    3.23    0.12
  -8   2  -2    0.15    0.04
  -9   0   0    0.20    0.05
  -5   7  -8    2.01    0.11
  -6   5  -6    2.26    0.09
  -6   5  -6    2.07    0.10
  -6   5  -6    2.07    0.09
  -7   3  -4    1.16    0.08
  -7   3  -4    1.08    0.08
  -8   1  -2    0.37    0.05
  -9  -1   0    3.32    0.13
  -5   6  -8    2.14    0.11
  -6   4  -6    0.89    0.07
  -6   4  -6    0.85    0.07
  -6   4  -6    0.79    0.07
  -7   2  -4    7.98    0.18
  -7   2  -4    7.59    0.18
  -7   2  -4    7.84    0.19
  -8   0  -2    1.17    0.09
  -9  -2   0    0.50    0.06
  -4   7 -10    0.25    0.05
  -5   5  -8    1.41    0.10
  -6   3  -6    0.82    0.07
  -6   3  -6    0.81    0.07
  -6   3  -6    0.81    0.07
  -7   1  -4    1.49    0.08
  -7   1  -4    1.62    0.09
  -7   1  -4    1.52    0.09
  -8  -1  -2    0.30    0.05
  -9  -3   0    0.34    0.06
  -4   6 -10    1.54    0.11
  -5   4  -8    1.24    0.07
  -5   4  -8    1.26    0.09
  -5   4  -8    1.22    0.07
  -6   2  -6    0.05    0.02
  -6   2  -6    0.08    0.03
  -6   2  -6    0.06    0.02
  -7   0  -4    0.03    0.03
  -7   0  -4    0.00    0.02
  -7   0  -4    0.01    0.02
  -8  -2  -2    0.06    0.04
  -9  -4   0    1.64    0.11
  -4   5 -10    1.53    0.10
  -5   3  -8    0.00    0.02
  -5   3  -8    0.05    0.02
  -5   3  -8    0.00    0.03
  -6   1  -6    1.22    0.07
  -6   1  -6    1.05    0.07
  -6   1  -6    1.10    0.08
  -7  -1  -4    0.74    0.07
  -7  -1  -4    0.83    0.07
  -7  -1  -4    0.85    0.08
  -8  -3  -2    2.57    0.12
  -4   4 -10    4.67    0.15
  -5   2  -8    0.21    0.03
  -5   2  -8    0.19    0.03
  -5   2  -8    0.27    0.04
  -6   0  -6    7.43    0.18
  -6   0  -6    7.28    0.17
  -6   0  -6    7.17    0.17
  -7  -2  -4    2.05    0.10
  -7  -2  -4    2.07    0.10
  -7  -2  -4    2.18    0.10
  -8  -4  -2    1.10    0.09
  -3   5 -12    0.36    0.05
  -4   3 -10    1.73    0.10
  -4   3 -10    1.89    0.08
  -5   1  -8    3.58    0.13
  -5   1  -8    3.57    0.11
  -5   1  -8    3.70    0.11
  -6  -1  -6    7.83    0.18
  -6  -1  -6    7.67    0.18
  -6  -1  -6    7.93    0.19
  -7  -3  -4    0.41    0.05
  -7  -3  -4    0.57    0.06
  -8  -5  -2    1.22    0.10
  -3   4 -12    1.36    0.10
  -4   2 -10    0.86    0.08
  -4   2 -10    0.85    0.06
  -5   0  -8    0.29    0.04
  -5   0  -8    0.23    0.04
  -5   0  -8    0.24    0.03
  -6  -2  -6    5.22    0.15
  -6  -2  -6    5.30    0.15
  -6  -2  -6    5.12    0.15
  -7  -4  -4    2.71    0.12
  -3   3 -12    0.02    0.03
  -4   1 -10    0.69    0.07
  -4   1 -10    0.74    0.06
   4  -1  10    0.69    0.07
  -5  -1  -8    2.18    0.10
  -5  -1  -8    2.15    0.10
  -6  -3  -6    0.15    0.03
  -6  -3  -6    0.11    0.04
  -7  -5  -4    2.36    0.12
  -3   2 -12    0.01    0.03
  -4   0 -10    0.47    0.05
  -4   0 -10    0.35    0.04
   4   0  10    0.32    0.04
  -5  -2  -8    3.25    0.12
  -5  -2  -8    3.33    0.12
   5   2   8    3.32    0.12
  -6  -4  -6    0.42    0.05
  -7  -6  -4    1.28    0.10
  -3   1 -12    0.05    0.03
   3  -1  12    0.04    0.03
  -4  -1 -10    1.47    0.09
  -4  -1 -10    1.50    0.09
   4   1  10    1.51    0.09
  -5  -3  -8    1.53    0.10
  -5  -3  -8    1.61    0.09
   5   3   8    1.57    0.09
  -6  -5  -6    0.46    0.06
  -2   2 -14    0.17    0.04
  -3   0 -12    4.60    0.15
   3   0  12    4.48    0.13
   3   0  12    4.52    0.13
  -4  -2 -10    1.52    0.09
   4   2  10    1.46    0.09
   4   2  10    1.48    0.09
   6   6   6    0.07    0.05
  -2   1 -14    0.05    0.03
  -3  -1 -12    2.10    0.11
   3   1  12    2.27    0.10
   3   1  12    2.12    0.10
   4   3  10    0.38    0.05
   5   5   8    0.01    0.04
   3   2  12    0.37    0.06
   4   4  10    0.10    0.04
   5   6   8    0.03    0.05
   2   1  14    0.13    0.05
   3   3  12    0.01    0.04
   4   5  10    1.12    0.10
   2   2  14    0.52    0.06
   3   4  12    0.65    0.07
   4   6  10    0.63    0.08
   2   3  14    0.01    0.05
   3   5  12    0.11    0.06
   2   4  14    0.18    0.06
  -8   8  -3    0.40    0.06
  -9   6  -1    0.65    0.07
  -8   7  -3    1.22    0.10
  -9   5  -1    0.50    0.07
  -8   6  -3    0.96    0.09
  -9   4  -1    2.05    0.12
  -7   7  -5    0.31    0.05
  -8   5  -3    0.96    0.09
  -9   3  -1    0.50    0.06
  -7   6  -5    0.76    0.07
  -7   6  -5    0.53    0.06
  -8   4  -3    2.05    0.11
  -9   2  -1    0.15    0.05
  -6   7  -7    1.57    0.10
  -7   5  -5    1.73    0.10
  -7   5  -5    1.73    0.10
  -8   3  -3    1.41    0.09
  -9   1  -1    1.43    0.10
  -6   6  -7    0.39    0.05
  -7   4  -5    3.51    0.12
  -7   4  -5    3.67    0.13
  -8   2  -3    2.01    0.11
  -9   0  -1    0.25    0.05
  -6   5  -7    0.95    0.09
  -6   5  -7    0.85    0.07
  -6   5  -7    0.92    0.07
  -7   3  -5    0.93    0.08
  -7   3  -5    1.00    0.08
  -7   3  -5    0.97    0.08
  -8   1  -3    3.31    0.13
  -9  -1  -1    0.14    0.05
  -5   6  -9    0.38    0.05
  -6   4  -7    0.60    0.06
  -6   4  -7    0.38    0.04
  -6   4  -7    0.67    0.06
  -7   2  -5    0.01    0.03
  -7   2  -5    0.05    0.03
  -7   2  -5    0.00    0.04
  -8   0  -3    0.28    0.05
  -9  -2  -1    0.12    0.05
  -5   5  -9    0.20    0.04
  -6   3  -7    0.43    0.05
  -6   3  -7    0.63    0.07
  -6   3  -7    0.64    0.06
  -7   1  -5    0.38    0.04
  -7   1  -5    0.38    0.04
  -7   1  -5    0.45    0.05
  -8  -1  -3    0.42    0.06
  -9  -3  -1    1.09    0.10
  -5   4  -9    0.09    0.03
  -5   4  -9    0.10    0.03
  -6   2  -7    0.14    0.04
  -6   2  -7    0.07    0.03
  -6   2  -7    0.11    0.03
  -7   0  -5    1.44    0.09
  -7   0  -5    1.62    0.09
  -7   0  -5    1.45    0.09
  -8  -2  -3    0.25    0.05
  -4   5 -11    0.48    0.05
  -5   3  -9    0.84    0.06
  -5   3  -9    0.82    0.06
  -5   3  -9    0.83    0.08
  -6   1  -7    0.33    0.04
  -6   1  -7    0.41    0.05
  -6   1  -7    0.30    0.04
  -7  -1  -5    1.22    0.08
  -7  -1  -5    1.10    0.08
  -8  -3  -3    0.01    0.04
  -4   4 -11    2.41    0.12
  -5   2  -9    0.02    0.02
  -5   2  -9    0.02    0.03
  -5   2  -9    0.05    0.03
  -6   0  -7    1.00    0.08
  -6   0  -7    0.87    0.08
  -6   0  -7    0.94    0.07
  -7  -2  -5    0.93    0.08
  -7  -2  -5    1.00    0.08
  -8  -4  -3    0.05    0.04
  -4   3 -11    0.35    0.04
  -5   1  -9    0.22    0.03
  -5   1  -9    0.32    0.04
  -5   1  -9    0.33    0.04
  -6  -1  -7    1.26    0.08
  -6  -1  -7    1.22    0.09
  -6  -1  -7    1.20    0.08
  -7  -3  -5    0.13    0.04
  -8  -5  -3    2.06    0.12
  -4   2 -11    0.06    0.03
  -4   2 -11    0.05    0.03
  -5   0  -9    1.61    0.09
  -5   0  -9    1.45    0.09
  -6  -2  -7    1.45    0.09
  -6  -2  -7    1.41    0.09
  -7  -4  -5    0.04    0.04
  -4   1 -11    0.05    0.03
  -4   1 -11    0.08    0.03
   4  -1  11    0.07    0.03
  -5  -1  -9    2.91    0.12
  -5  -1  -9    2.88    0.11
   5   1   9    3.08    0.11
  -6  -3  -7    0.04    0.04
  -7  -5  -5    0.53    0.06
  -4   0 -11    0.38    0.05
   4   0  11    0.33    0.04
  -5  -2  -9    3.44    0.13
  -6  -4  -7    0.04    0.04
   4   1  11    1.08    0.09
   4   1  11    0.93    0.08
   3   0  13    0.54    0.06
   4   2  11    3.23    0.12
   5   4   9    0.08    0.05
   6   6   7    1.42    0.11
   3   1  13   -0.01    0.05
   4   3  11    2.40    0.12
   5   5   9    0.39    0.06
   3   2  13    0.31    0.06
   4   4  11    1.50    0.11
   3   3  13    2.03    0.12
   4   5  11    0.04    0.05
   2   2  15    1.26    0.11
   3   4  13    0.12    0.06
  -8   8  -4   -0.06    0.04
  -9   6  -2    0.96    0.10
  -8   7  -4    0.06    0.05
  -9   5  -2    0.03    0.05
  -8   6  -4    0.45    0.06
  -9   4  -2   -0.05    0.04
  -8   5  -4    0.27    0.05
  -9   3  -2    0.04    0.04
  -7   6  -6    1.69    0.10
  -7   6  -6    1.53    0.09
  -8   4  -4    1.66    0.11
  -9   2  -2    0.12    0.05
  -7   5  -6    0.39    0.04
  -7   5  -6    0.46    0.05
  -8   3  -4    1.08    0.09
  -9   1  -2    1.76    0.11
  -6   6  -8    0.41    0.05
  -7   4  -6    1.23    0.09
  -7   4  -6    1.30    0.09
  -7   4  -6    1.27    0.08
  -8   2  -4    2.44    0.12
  -9   0  -2    1.40    0.10
  -6   5  -8    1.33    0.08
  -6   5  -8    1.36    0.10
  -7   3  -6    1.08    0.08
  -7   3  -6    1.17    0.09
  -7   3  -6    1.18    0.09
  -8   1  -4    2.71    0.12
  -9  -1  -2    2.77    0.13
  -6   4  -8    1.17    0.08
  -6   4  -8    1.08    0.09
  -6   4  -8    1.13    0.08
  -7   2  -6    4.13    0.13
  -7   2  -6    4.15    0.14
  -7   2  -6    4.12    0.14
  -8   0  -4    0.05    0.04
  -9  -2  -2    2.77    0.13
  -6   3  -8    1.22    0.08
  -6   3  -8    1.10    0.09
  -6   3  -8    1.18    0.08
  -7   1  -6    4.85    0.15
  -7   1  -6    4.88    0.15
  -7   1  -6    4.91    0.15
  -8  -1  -4    0.01    0.04
  -9  -3  -2    0.52    0.07
  -5   4 -10    1.88    0.11
  -6   2  -8    0.12    0.03
  -6   2  -8    0.07    0.03
  -6   2  -8    0.07    0.03
  -7   0  -6    3.01    0.12
  -7   0  -6    2.86    0.12
  -8  -2  -4    0.01    0.04
  -5   3 -10    2.43    0.12
  -5   3 -10    2.62    0.10
  -5   3 -10    2.47    0.10
  -6   1  -8    1.12    0.08
  -6   1  -8    1.32    0.08
  -6   1  -8    1.15    0.09
  -7  -1  -6    0.09    0.04
  -8  -3  -4    0.69    0.07
  -5   2 -10    0.38    0.05
  -5   2 -10    0.33    0.04
  -5   2 -10    0.27    0.04
  -6   0  -8    2.51    0.12
  -6   0  -8    2.59    0.11
  -6   0  -8    2.71    0.11
  -7  -2  -6    0.40    0.05
  -8  -4  -4    1.23    0.10
  -5   1 -10    0.10    0.04
  -5   1 -10    0.11    0.03
  -6  -1  -8    0.18    0.05
  -7  -3  -6    0.21    0.05
  -5   0 -10   -0.03    0.03
   5   0  10    0.01    0.03
  -6  -2  -8    0.06    0.04
  -7  -4  -6    0.55    0.07
  -5  -1 -10    0.17    0.04
  -6  -3  -8    1.22    0.09
  -7  -5  -6    0.96    0.09
   4   0  12    0.12    0.05
   4   0  12    0.11    0.03
  -6  -4  -8    0.11    0.05
   4   1  12    1.91    0.10
   5   3  10    0.92    0.09
   6   5   8    0.14    0.06
   4   2  12    0.52    0.06
   5   4  10    0.66    0.07
   3   1  14    0.38    0.06
   4   3  12    0.93    0.10
   3   2  14    0.01    0.05
   4   4  12    0.26    0.06
   3   3  14    0.39    0.07
  -9   6  -3    0.30    0.06
  -8   7  -5    0.12    0.06
  -9   5  -3    0.11    0.05
  -8   6  -5    1.71    0.11
  -9   4  -3    0.02    0.05
  -8   5  -5    0.09    0.05
  -9   3  -3    0.57    0.07
  -7   6  -7    0.10    0.04
  -8   4  -5    0.53    0.06
  -9   2  -3    0.25    0.05
  -7   5  -7    0.08    0.04
  -7   5  -7    0.10    0.03
  -8   3  -5    1.74    0.11
  -9   1  -3    3.09    0.14
  -7   4  -7    1.40    0.09
  -7   4  -7    1.44    0.10
  -7   4  -7    1.58    0.09
  -8   2  -5    0.94    0.09
  -9   0  -3    1.57    0.11
  -7   3  -7    1.05    0.08
  -7   3  -7    1.10    0.09
  -8   1  -5    0.08    0.04
  -9  -1  -3    0.20    0.05
  -6   4  -9   -0.01    0.03
  -6   4  -9   -0.01    0.03
  -7   2  -7    0.90    0.09
  -7   2  -7    0.92    0.08
  -8   0  -5    0.07    0.04
  -6   3  -9    1.15    0.08
  -6   3  -9    1.15    0.09
  -7   1  -7    0.04    0.04
  -8  -1  -5    1.21    0.10
  -6   2  -9    2.43    0.10
  -6   2  -9    2.46    0.11
  -7   0  -7    0.94    0.09
  -8  -2  -5    0.49    0.06
  -6   1  -9    2.15    0.10
  -7  -1  -7    0.36    0.05
  -8  -3  -5    1.42    0.10
  -5   2 -11    0.52    0.05
  -6   0  -9    0.28    0.05
  -7  -2  -7    0.14    0.05
  -5   1 -11   -0.02    0.03
   5  -1  11   -0.02    0.03
  -6  -1  -9    0.36    0.05
  -7  -3  -7    0.07    0.04
  -5   0 -11    0.42    0.05
  -6  -2  -9    0.81    0.09
  -7  -4  -7    0.01    0.05
  -6  -3  -9    0.66    0.07
   4   0  13    0.50    0.06
   5   2  11    1.16    0.10
   6   4   9    0.23    0.06
   4   1  13   -0.01    0.04
   5   3  11    0.46    0.07
   4   2  13    0.15    0.05
   4   3  13    0.00    0.05
  -9   5  -4    0.33    0.06
  -8   6  -6    1.87    0.11
  -9   4  -4    0.16    0.05
  -8   5  -6    0.83    0.09
  -9   3  -4    0.11    0.05
  -8   4  -6    1.26    0.10
  -9   2  -4    0.19    0.05
  -7   5  -8    0.76    0.08
  -8   3  -6    0.30    0.05
  -9   1  -4    0.64    0.07
  -7   4  -8    0.42    0.06
  -8   2  -6    0.07    0.04
  -9   0  -4    0.98    0.10
  -7   3  -8    0.24    0.05
  -8   1  -6    0.39    0.06
  -7   2  -8    2.71    0.12
  -8   0  -6    1.26    0.10
  -6   3 -10    1.47    0.09
  -7   1  -8    1.54    0.10
  -8  -1  -6    2.00    0.11
  -6   2 -10    0.81    0.09
  -7   0  -8    2.41    0.12
  -8  -2  -6    1.42    0.11
  -6   1 -10    0.51    0.06
  -7  -1  -8    0.39    0.06
  -5   2 -12    1.39    0.10
  -6   0 -10    0.34    0.05
  -7  -2  -8    0.08    0.05
  -5   1 -12   -0.01    0.04
  -6  -1 -10    1.51    0.10
  -7  -3  -8    0.26    0.06
  -6  -2 -10    0.12    0.05
   5   1  12    0.10    0.05
   6   3  10    0.00    0.05
   5   2  12    0.22    0.06
   4   1  14    0.01    0.05
  -8   6  -7    1.51    0.10
  -9   4  -5    0.03    0.05
  -8   5  -7    0.48    0.06
  -9   3  -5    0.39    0.06
  -8   4  -7    0.00    0.04
  -9   2  -5    0.06    0.05
  -8   3  -7    0.13    0.05
  -7   4  -9    0.78    0.08
  -8   2  -7   -0.01    0.04
  -7   3  -9    0.03    0.04
  -8   1  -7    0.61    0.07
  -7   2  -9    0.35    0.06
  -8   0  -7    0.33    0.06
  -7   1  -9    0.12    0.05
  -8  -1  -7    1.04    0.10
  -6   2 -11    0.78    0.08
  -7   0  -9    0.30    0.05
  -6   1 -11    1.72    0.10
  -7  -1  -9    0.09    0.05
  -6   0 -11    0.38    0.06
  -6  -1 -11    0.96    0.09
   5   0  13    1.55    0.12
   5   1  13    0.53    0.07
  -8   5  -8    0.90    0.09
  -8   4  -8    0.97    0.09
  -8   3  -8    0.97    0.09
  -8   2  -8    0.13    0.05
  -7   3 -10    0.15    0.05
  -8   1  -8    0.17    0.05
  -7   2 -10    0.83    0.09
  -7   1 -10    0.05    0.05
  -6   2 -12   -0.01    0.04
  -7   0 -10    0.02    0.04
  -6   1 -12    0.05    0.04
  -6   0 -12    0.03    0.05
  -8   4  -9    0.30    0.06
  -7   3 -11    0.52    0.06
  -7   2 -11   -0.01    0.04
   0   0   0    0.00    0.00
;
_shelx_hkl_checksum              67627
loop_
_space_group_symop_operation_xyz
'x, y, z'
'-x, -y, -z'
loop_
_atom_site_label
_atom_site_type_symbol
_atom_site_fract_x
_atom_site_fract_y
_atom_site_fract_z
_atom_site_U_iso_or_equiv
_atom_site_adp_type
_atom_site_occupancy
_atom_site_site_symmetry_order
_atom_site_calc_flag
_atom_site_refinement_flags_posn
_atom_site_refinement_flags_adp
_atom_site_refinement_flags_occupancy
_atom_site_disorder_assembly
_atom_site_disorder_group
Co1 Co 0.0000 0.0000 0.0000 0.03028(15) Uani 1 2 d S . P . .
O1 O -0.3781(3) 0.3275(2) 0.52828(15) 0.0594(5) Uani 1 1 d . . . . .
O2 O 0.0787(2) -0.16564(16) 0.08605(13) 0.0394(3) Uani 1 1 d . . . . .
O3 O 0.3998(2) -0.08855(19) 0.15105(16) 0.0504(4) Uani 1 1 d . . . . .
O4 O 0.3015(2) 0.10723(18) 0.02564(14) 0.0415(4) Uani 1 1 d . . . . .
H4A H 0.3408 0.1117 -0.0400 0.062 Uiso 1 1 d R U . . .
H4B H 0.3764 0.0565 0.0614 0.062 Uiso 1 1 d R U . . .
N1 N -0.0344(2) 0.14801(19) 0.16390(15) 0.0336(4) Uani 1 1 d . . . . .
N2 N -0.4168(3) 0.1635(2) 0.35616(15) 0.0402(4) Uani 1 1 d . . . . .
H2 H -0.4952 0.0889 0.3126 0.048 Uiso 1 1 calc R U . . .
C1 C 0.0852(3) 0.2781(3) 0.2084(2) 0.0415(5) Uani 1 1 d . . . . .
H1 H 0.1951 0.3031 0.1721 0.050 Uiso 1 1 calc R U . . .
C2 C 0.0518(4) 0.3752(3) 0.3047(2) 0.0478(6) Uani 1 1 d . . . . .
H2A H 0.1410 0.4624 0.3340 0.057 Uiso 1 1 calc R U . . .
C3 C -0.1145(4) 0.3444(3) 0.3590(2) 0.0441(5) Uani 1 1 d . . . . .
H3 H -0.1410 0.4111 0.4232 0.053 Uiso 1 1 calc R U . . .
C4 C -0.2396(3) 0.2109(2) 0.31401(17) 0.0337(4) Uani 1 1 d . . . . .
C5 C -0.1901(3) 0.1157(2) 0.21892(18) 0.0354(4) Uani 1 1 d . . . . .
H5 H -0.2704 0.0237 0.1917 0.042 Uiso 1 1 calc R U . . .
C6 C -0.4768(3) 0.2233(2) 0.45851(18) 0.0383(5) Uani 1 1 d . . . . .
C7 C -0.6741(3) 0.1532(2) 0.48339(17) 0.0352(4) Uani 1 1 d D . . . .
C8 C -0.7803(3) 0.0221(2) 0.42060(18) 0.0388(5) Uani 1 1 d D . . . .
H8 H -0.7315 -0.0285 0.3563 0.047 Uiso 1 1 calc R U . . .
C9 C -0.9629(3) -0.0385(2) 0.45116(17) 0.0343(4) Uani 1 1 d D . . . .
C10 C -0.9254(4) 0.1750(3) 0.6114(2) 0.0570(7) Uani 1 1 d D . . . .
H10 H -0.9726 0.2280 0.6755 0.068 Uiso 1 1 calc R U . . .
C11 C -0.7500(4) 0.2303(3) 0.5798(2) 0.0528(7) Uani 1 1 d D . . . .
H11 H -0.6793 0.3204 0.6224 0.063 Uiso 1 1 calc R U . . .
C12 C 0.2459(3) -0.1844(2) 0.13084(16) 0.0315(4) Uani 1 1 d . . . . .
C13 C 0.2676(3) -0.3356(2) 0.1615(2) 0.0409(5) Uani 1 1 d . . . . .
H13A H 0.1364 -0.3924 0.1568 0.049 Uiso 1 1 calc R U . . .
H13B H 0.3339 -0.3215 0.2404 0.049 Uiso 1 1 calc R U . . .
C14 C 0.3885(3) -0.4224(2) 0.07872(18) 0.0356(4) Uani 1 1 d D . . . .
C15B C 0.3400(10) -0.4386(9) -0.0422(4) 0.0502(17) Uani 0.582(13) 1 d D . P A 2
H15B H 0.2309 -0.3977 -0.0717 0.060 Uiso 0.582(13) 1 calc R U P A 2
C16B C 0.5473(10) -0.4853(9) 0.1171(4) 0.0500(17) Uani 0.582(13) 1 d D . P A 2
H16B H 0.5815 -0.4771 0.1965 0.060 Uiso 0.582(13) 1 calc R U P A 2
C16A C 0.5974(9) -0.4052(12) 0.0980(6) 0.046(2) Uani 0.418(13) 1 d D . P A 1
H16A H 0.6654 -0.3416 0.1649 0.055 Uiso 0.418(13) 1 calc R U P A 1
C15A C 0.2956(9) -0.5184(13) -0.0187(7) 0.049(2) Uani 0.418(13) 1 d D . P A 1
H15A H 0.1567 -0.5334 -0.0328 0.059 Uiso 0.418(13) 1 calc R U P A 1
loop_
_atom_site_aniso_label
_atom_site_aniso_U_11
_atom_site_aniso_U_22
_atom_site_aniso_U_33
_atom_site_aniso_U_23
_atom_site_aniso_U_13
_atom_site_aniso_U_12
Co1 0.0220(2) 0.0342(2) 0.0349(2) 0.00597(15) 0.01033(14) 0.00019(14)
O1 0.0490(10) 0.0660(11) 0.0474(10) -0.0208(8) 0.0230(8) -0.0209(8)
O2 0.0307(7) 0.0396(8) 0.0495(9) 0.0137(7) 0.0080(6) 0.0007(6)
O3 0.0372(8) 0.0435(9) 0.0657(11) 0.0122(8) -0.0033(8) -0.0064(7)
O4 0.0281(7) 0.0496(9) 0.0473(9) 0.0097(7) 0.0122(6) 0.0004(6)
N1 0.0287(8) 0.0351(8) 0.0371(9) 0.0059(7) 0.0122(7) -0.0001(7)
N2 0.0337(9) 0.0452(10) 0.0340(9) -0.0074(7) 0.0149(7) -0.0115(7)
C1 0.0366(11) 0.0415(11) 0.0445(12) 0.0065(9) 0.0151(9) -0.0088(9)
C2 0.0490(13) 0.0410(12) 0.0464(12) 0.0004(10) 0.0147(10) -0.0177(10)
C3 0.0490(13) 0.0397(11) 0.0388(11) -0.0023(9) 0.0169(10) -0.0082(10)
C4 0.0303(10) 0.0379(10) 0.0316(10) 0.0048(8) 0.0096(8) -0.0023(8)
C5 0.0306(10) 0.0353(10) 0.0364(10) 0.0001(8) 0.0111(8) -0.0060(8)
C6 0.0338(10) 0.0431(11) 0.0345(10) -0.0015(8) 0.0131(8) -0.0023(9)
C7 0.0306(10) 0.0418(11) 0.0315(10) 0.0008(8) 0.0123(8) 0.0013(8)
C8 0.0357(11) 0.0456(11) 0.0320(10) -0.0052(8) 0.0179(8) 0.0010(9)
C9 0.0317(10) 0.0403(10) 0.0285(9) -0.0020(8) 0.0116(8) 0.0021(8)
C10 0.0489(14) 0.0593(15) 0.0505(14) -0.0231(12) 0.0299(11) -0.0108(11)
C11 0.0465(13) 0.0520(13) 0.0468(13) -0.0202(11) 0.0221(11) -0.0141(11)
C12 0.0311(10) 0.0340(10) 0.0284(9) 0.0000(7) 0.0111(7) 0.0035(8)
C13 0.0431(12) 0.0412(11) 0.0419(11) 0.0095(9) 0.0160(9) 0.0081(9)
C14 0.0384(11) 0.0313(9) 0.0379(10) 0.0057(8) 0.0094(8) 0.0057(8)
C15B 0.050(3) 0.057(4) 0.044(2) 0.005(2) -0.002(2) 0.025(3)
C16B 0.067(3) 0.055(4) 0.029(2) 0.005(2) 0.003(2) 0.025(3)
C16A 0.038(3) 0.055(5) 0.036(3) -0.009(3) 0.000(2) 0.002(3)
C15A 0.026(3) 0.064(5) 0.051(4) -0.004(4) 0.002(2) 0.007(3)
loop_
_atom_type_symbol
_atom_type_description
_atom_type_scat_dispersion_real
_atom_type_scat_dispersion_imag
_atom_type_scat_source
C C 0.0033 0.0016 'International Tables Vol C Tables 4.2.6.8 and 6.1.1.4'
H H 0.0000 0.0000 'International Tables Vol C Tables 4.2.6.8 and 6.1.1.4'
Co Co 0.3494 0.9721 'International Tables Vol C Tables 4.2.6.8 and 6.1.1.4'
N N 0.0061 0.0033 'International Tables Vol C Tables 4.2.6.8 and 6.1.1.4'
O O 0.0106 0.0060 'International Tables Vol C Tables 4.2.6.8 and 6.1.1.4'
loop_
_geom_angle_atom_site_label_1
_geom_angle_atom_site_label_2
_geom_angle_atom_site_label_3
_geom_angle
_geom_angle_site_symmetry_1
_geom_angle_site_symmetry_3
O2 Co1 O2 180.0 . 2
O2 Co1 O4 91.82(6) . .
O2 Co1 O4 88.18(6) 2 .
O2 Co1 O4 88.18(6) . 2
O2 Co1 O4 91.82(6) 2 2
O4 Co1 O4 180.00(11) . 2
O2 Co1 N1 91.51(7) . .
O2 Co1 N1 88.49(7) 2 .
O4 Co1 N1 86.59(6) . .
O4 Co1 N1 93.41(6) 2 .
O2 Co1 N1 88.49(7) . 2
O2 Co1 N1 91.51(7) 2 2
O4 Co1 N1 93.41(6) . 2
O4 Co1 N1 86.59(6) 2 2
N1 Co1 N1 180.0 . 2
C12 O2 Co1 129.57(13) . .
Co1 O4 H4A 109.9 . .
Co1 O4 H4B 109.3 . .
H4A O4 H4B 109.1 . .
C5 N1 C1 116.82(17) . .
C5 N1 Co1 119.67(13) . .
C1 N1 Co1 123.29(13) . .
C6 N2 C4 126.79(17) . .
C6 N2 H2 116.6 . .
C4 N2 H2 116.6 . .
N1 C1 C2 122.68(19) . .
N1 C1 H1 118.7 . .
C2 C1 H1 118.7 . .
C1 C2 C3 120.4(2) . .
C1 C2 H2A 119.8 . .
C3 C2 H2A 119.8 . .
C4 C3 C2 117.6(2) . .
C4 C3 H3 121.2 . .
C2 C3 H3 121.2 . .
C3 C4 C5 118.24(18) . .
C3 C4 N2 125.22(19) . .
C5 C4 N2 116.54(17) . .
N1 C5 C4 124.12(18) . .
N1 C5 H5 117.9 . .
C4 C5 H5 117.9 . .
O1 C6 N2 122.92(19) . .
O1 C6 C7 120.41(18) . .
N2 C6 C7 116.67(18) . .
C8 C7 C11 119.02(18) . .
C8 C7 C6 124.83(18) . .
C11 C7 C6 116.14(18) . .
C7 C8 C9 121.48(18) . .
C7 C8 H8 119.3 . .
C9 C8 H8 119.3 . .
C8 C9 C10 122.66(18) . 2_356
C8 C9 C9 119.2(2) . 2_356
C10 C9 C9 118.1(2) 2_356 2_356
C11 C10 C9 121.21(19) . 2_356
C11 C10 H10 119.4 . .
C9 C10 H10 119.4 2_356 .
C10 C11 C7 120.9(2) . .
C10 C11 H11 119.5 . .
C7 C11 H11 119.5 . .
O2 C12 O3 125.27(19) . .
O2 C12 C13 117.59(18) . .
O3 C12 C13 117.12(19) . .
C12 C13 C14 110.10(17) . .
C12 C13 H13A 109.6 . .
C14 C13 H13A 109.6 . .
C12 C13 H13B 109.6 . .
C14 C13 H13B 109.6 . .
H13A C13 H13B 108.2 . .
C15A C14 C16A 117.5(4) . .
C16B C14 C15B 117.3(3) . .
C16B C14 C13 122.0(3) . .
C15A C14 C13 120.4(3) . .
C16A C14 C13 122.1(3) . .
C15B C14 C13 120.7(3) . .
C16B C15B C14 120.6(4) 2_645 .
C16B C15B H15B 119.7 2_645 .
C14 C15B H15B 119.7 . .
C14 C16B C15B 122.1(4) . 2_645
C14 C16B H16B 118.9 . .
C15B C16B H16B 118.9 2_645 .
C15A C16A C14 120.9(5) 2_645 .
C15A C16A H16A 119.5 2_645 .
C14 C16A H16A 119.5 . .
C14 C15A C16A 121.6(5) . 2_645
C14 C15A H15A 119.2 . .
C16A C15A H15A 119.2 2_645 .
loop_
_geom_bond_atom_site_label_1
_geom_bond_atom_site_label_2
_geom_bond_distance
_geom_bond_site_symmetry_2
Co1 O2 2.0623(15) .
Co1 O2 2.0623(15) 2
Co1 O4 2.1324(15) .
Co1 O4 2.1324(15) 2
Co1 N1 2.2015(17) .
Co1 N1 2.2016(17) 2
O1 C6 1.216(3) .
O2 C12 1.243(2) .
O3 C12 1.255(2) .
O4 H4A 0.8560 .
O4 H4B 0.8557 .
N1 C5 1.337(3) .
N1 C1 1.343(3) .
N2 C6 1.360(3) .
N2 C4 1.409(2) .
N2 H2 0.8600 .
C1 C2 1.366(3) .
C1 H1 0.9300 .
C2 C3 1.389(3) .
C2 H2A 0.9300 .
C3 C4 1.385(3) .
C3 H3 0.9300 .
C4 C5 1.387(3) .
C5 H5 0.9300 .
C6 C7 1.503(3) .
C7 C8 1.365(3) .
C7 C11 1.407(3) .
C8 C9 1.413(3) .
C8 H8 0.9300 .
C9 C10 1.413(3) 2_356
C9 C9 1.413(4) 2_356
C10 C11 1.361(3) .
C10 C9 1.413(3) 2_356
C10 H10 0.9300 .
C11 H11 0.9300 .
C12 C13 1.512(3) .
C13 C14 1.518(3) .
C13 H13A 0.9700 .
C13 H13B 0.9700 .
C14 C16B 1.353(5) .
C14 C15A 1.354(6) .
C14 C16A 1.398(6) .
C14 C15B 1.408(5) .
C15B C16B 1.379(6) 2_645
C15B H15B 0.9300 .
C16B C15B 1.379(6) 2_645
C16B H16B 0.9300 .
C16A C15A 1.387(8) 2_645
C16A H16A 0.9300 .
C15A C16A 1.387(8) 2_645
C15A H15A 0.9300 .
loop_
_geom_hbond_atom_site_label_D
_geom_hbond_atom_site_label_H
_geom_hbond_atom_site_label_A
_geom_hbond_distance_DH
_geom_hbond_distance_HA
_geom_hbond_distance_DA
_geom_hbond_angle_DHA
_geom_hbond_site_symmetry_A
O4 H4A O3 0.86 2.32 3.070(2) 146.4 2_655
O4 H4B O3 0.86 1.86 2.625(2) 148.8 .
N2 H2 O3 0.86 2.25 3.057(2) 155.7 1_455
C1 H1 O4 0.93 2.48 3.043(3) 119.0 .
C2 H2A O1 0.93 2.55 3.445(3) 162.5 2_566
C3 H3 O1 0.93 2.29 2.848(3) 117.8 .
C5 H5 O3 0.93 2.32 3.108(3) 142.8 1_455
C5 H5 O4 0.93 2.60 3.174(3) 120.2 2
loop_
_geom_torsion_atom_site_label_1
_geom_torsion_atom_site_label_2
_geom_torsion_atom_site_label_3
_geom_torsion_atom_site_label_4
_geom_torsion
_geom_torsion_site_symmetry_1
_geom_torsion_site_symmetry_4
C5 N1 C1 C2 -0.4(3) . .
Co1 N1 C1 C2 174.14(19) . .
N1 C1 C2 C3 -2.2(4) . .
C1 C2 C3 C4 1.9(4) . .
C2 C3 C4 C5 0.8(4) . .
C2 C3 C4 N2 -178.4(2) . .
C6 N2 C4 C3 -13.2(4) . .
C6 N2 C4 C5 167.7(2) . .
C1 N1 C5 C4 3.3(3) . .
Co1 N1 C5 C4 -171.41(17) . .
C3 C4 C5 N1 -3.6(4) . .
N2 C4 C5 N1 175.6(2) . .
C4 N2 C6 O1 -1.1(4) . .
C4 N2 C6 C7 179.5(2) . .
O1 C6 C7 C8 -168.9(2) . .
N2 C6 C7 C8 10.5(3) . .
O1 C6 C7 C11 10.4(4) . .
N2 C6 C7 C11 -170.1(2) . .
C11 C7 C8 C9 -0.8(4) . .
C6 C7 C8 C9 178.5(2) . .
C7 C8 C9 C10 -179.2(3) . 2_356
C7 C8 C9 C9 0.1(4) . 2_356
C9 C10 C11 C7 0.0(5) 2_356 .
C8 C7 C11 C10 0.8(4) . .
C6 C7 C11 C10 -178.6(3) . .
Co1 O2 C12 O3 13.8(3) . .
Co1 O2 C12 C13 -164.95(13) . .
O2 C12 C13 C14 108.2(2) . .
O3 C12 C13 C14 -70.6(2) . .
C12 C13 C14 C16B 129.2(5) . .
C12 C13 C14 C15A -92.4(7) . .
C12 C13 C14 C16A 86.4(7) . .
C12 C13 C14 C15B -50.0(5) . .
C16B C14 C15B C16B -0.7(9) . 2_645
C13 C14 C15B C16B 178.6(4) . 2_645
C15B C14 C16B C15B 0.7(9) . 2_645
C13 C14 C16B C15B -178.6(4) . 2_645
C15A C14 C16A C15A 1.3(12) . 2_645
C13 C14 C16A C15A -177.6(6) . 2_645
C16A C14 C15A C16A -1.3(12) . 2_645
C13 C14 C15A C16A 177.6(6) . 2_645
