#------------------------------------------------------------------------------
#$Date: 2015-06-05 03:22:26 +0300 (Fri, 05 Jun 2015) $
#$Revision: 138062 $
#$URL: svn://www.crystallography.net/cod/cif/4/51/30/4513009.cif $
#------------------------------------------------------------------------------
#
# This file is available in the Crystallography Open Database (COD),
# http://www.crystallography.net/
#
# All data on this site have been placed in the public domain by the
# contributors.
#
data_4513009
loop_
_publ_author_name
'Omorodion, Harrison'
'Twamley, Brendan'
'Platts, James A.'
'Baker, Robert J.'
_publ_section_title
;
 Further Evidence on the Importance of Fluorous--Fluorous Interactions in
 Supramolecular Chemistry: A Combined Structural and Computational Study
;
_journal_issue                   6
_journal_name_full               'Crystal Growth &amp; Design'
_journal_page_first              2835
_journal_paper_doi               10.1021/acs.cgd.5b00254
_journal_volume                  15
_journal_year                    2015
_chemical_formula_moiety         'C8 H3 F13 O2'
_chemical_formula_sum            'C8 H3 F13 O2'
_chemical_formula_weight         378.10
_chemical_name_systematic
;
 ?
;
_space_group_crystal_system      triclinic
_space_group_IT_number           2
_space_group_name_Hall           '-P 1'
_space_group_name_H-M_alt        'P -1'
_symmetry_space_group_name_Hall  '-P 1'
_symmetry_space_group_name_H-M   'P -1'
_atom_sites_solution_hydrogens   mixed
_audit_creation_method           SHELXL-2013
_cell_angle_alpha                88.91(3)
_cell_angle_beta                 87.15(3)
_cell_angle_gamma                80.56(3)
_cell_formula_units_Z            2
_cell_length_a                   5.1220(10)
_cell_length_b                   6.1827(12)
_cell_length_c                   18.005(4)
_cell_measurement_reflns_used    1930
_cell_measurement_temperature    93(2)
_cell_measurement_theta_max      30.7452
_cell_measurement_theta_min      2.2651
_cell_volume                     561.7(2)
_computing_cell_refinement       'CrystalClear (Rigaku Inc., 2007)'
_computing_data_collection       'CrystalClear (Rigaku Inc., 2007)'
_computing_data_reduction        'CrystalClear (Rigaku Inc., 2007)'
_computing_molecular_graphics    'Bruker SHELXTL (Bruker 2008)'
_computing_publication_material  'Bruker SHELXTL (Bruker 2008)'
_computing_structure_refinement  'SHELXL-2013 (Sheldrick, 2013)'
_computing_structure_solution    'SHELXS-2013 (Sheldrick, 2013)'
_diffrn_ambient_temperature      93(2)
_diffrn_detector_area_resol_mean 28.5714
_diffrn_measured_fraction_theta_full 0.953
_diffrn_measured_fraction_theta_max 0.932
_diffrn_measurement_details
;
scan:
    Number of images: 360
               Slice: -105.0000 - 75.0000
         Image width: 0.5000
            Exp time: 10.0000
       Rotation axis: Omega
               Omega: 0.0000
               Kappa: 0.0000
                 Phi: 90.0000
                 XTD: 40.8952
              2theta: -15.1047
scan:
    Number of images: 360
               Slice: -105.0000 - 75.0000
         Image width: 0.5000
            Exp time: 10.0000
       Rotation axis: Omega
               Omega: 0.0000
               Kappa: 0.0000
                 Phi: 0.0000
                 XTD: 40.8952
              2theta: -15.1047
scan:
    Number of images: 244
               Slice: -47.0000 - 75.0000
         Image width: 0.5000
            Exp time: 10.0000
       Rotation axis: Omega
               Omega: 0.0000
               Kappa: 50.0000
                 Phi: 90.0000
                 XTD: 40.8952
              2theta: -15.1047
scan:
    Number of images: 244
               Slice: -47.0000 - 75.0000
         Image width: 0.5000
            Exp time: 10.0000
       Rotation axis: Omega
               Omega: 0.0000
               Kappa: 50.0000
                 Phi: 0.0000
                 XTD: 40.8952
              2theta: -15.1047

;
_diffrn_measurement_device
;
Saturn724 (2x2 bin mode)
;
_diffrn_measurement_device_details
;
AFC12 (Right): Kappa 3 circle
;
_diffrn_measurement_method       dtprofit.ref
_diffrn_orient_matrix_type       d*Trek
_diffrn_orient_matrix_UB_11      -0.0227
_diffrn_orient_matrix_UB_12      -0.0614
_diffrn_orient_matrix_UB_13      0.1870
_diffrn_orient_matrix_UB_21      -0.1556
_diffrn_orient_matrix_UB_22      -0.0103
_diffrn_orient_matrix_UB_23      -0.0506
_diffrn_orient_matrix_UB_31      0.0101
_diffrn_orient_matrix_UB_32      -0.0515
_diffrn_orient_matrix_UB_33      -0.0185
_diffrn_radiation_monochromator  'Graphite Monochromator'
_diffrn_radiation_source         'Sealed Tube'
_diffrn_radiation_type           MoK\a
_diffrn_radiation_wavelength     0.71073
_diffrn_reflns_av_R_equivalents  0.0284
_diffrn_reflns_av_unetI/netI     0.0255
_diffrn_reflns_laue_measured_fraction_full 0.953
_diffrn_reflns_laue_measured_fraction_max 0.932
_diffrn_reflns_limit_h_max       6
_diffrn_reflns_limit_h_min       -6
_diffrn_reflns_limit_k_max       7
_diffrn_reflns_limit_k_min       -6
_diffrn_reflns_limit_l_max       23
_diffrn_reflns_limit_l_min       -23
_diffrn_reflns_number            8368
_diffrn_reflns_point_group_measured_fraction_full 0.953
_diffrn_reflns_point_group_measured_fraction_max 0.932
_diffrn_reflns_reduction_process 'Lp corrections applied'
_diffrn_reflns_theta_full        25.242
_diffrn_reflns_theta_max         27.489
_diffrn_reflns_theta_min         2.265
_exptl_absorpt_coefficient_mu    0.295
_exptl_absorpt_correction_T_max  1.0000
_exptl_absorpt_correction_T_min  0.8931
_exptl_absorpt_correction_type   multi-scan
_exptl_absorpt_process_details   'REQAB (Rigaku, 1998)'
_exptl_crystal_colour            colorless
_exptl_crystal_density_diffrn    2.235
_exptl_crystal_description       plate
_exptl_crystal_F_000             368
_exptl_crystal_size_max          0.300
_exptl_crystal_size_mid          0.240
_exptl_crystal_size_min          0.100
_refine_diff_density_max         0.425
_refine_diff_density_min         -0.307
_refine_diff_density_rms         0.075
_refine_ls_extinction_method     none
_refine_ls_goodness_of_fit_ref   1.171
_refine_ls_hydrogen_treatment    mixed
_refine_ls_matrix_type           full
_refine_ls_number_parameters     212
_refine_ls_number_reflns         2412
_refine_ls_number_restraints     0
_refine_ls_restrained_S_all      1.171
_refine_ls_R_factor_all          0.0496
_refine_ls_R_factor_gt           0.0479
_refine_ls_shift/su_max          0.000
_refine_ls_shift/su_mean         0.000
_refine_ls_structure_factor_coef Fsqd
_refine_ls_weighting_details
'w=1/[\s^2^(Fo^2^)+(0.0694P)^2^+0.3604P] where P=(Fo^2^+2Fc^2^)/3'
_refine_ls_weighting_scheme      calc
_refine_ls_wR_factor_gt          0.1398
_refine_ls_wR_factor_ref         0.1415
_reflns_Friedel_coverage         0.000
_reflns_number_gt                2325
_reflns_number_total             2412
_reflns_threshold_expression     'I > 2\s(I)'
_cod_data_source_file            cg5b00254_si_002.cif
_cod_data_source_block           tcd72_1
_cod_depositor_comments
'Adding full bibliography for 4513009--4513010.cif.'
_cod_database_code               4513009
_shelx_space_group_comment
;
The symmetry employed for this shelxl refinement is uniquely defined
by the following loop, which should always be used as a source of
symmetry information in preference to the above space-group names.
They are only intended as comments.
;
_shelx_estimated_absorpt_t_min   0.917
_shelx_estimated_absorpt_t_max   0.971
_shelxl_version_number           2013-4
_shelx_res_file
;
TITL TCD72 in P-1
CELL 0.71073   5.12200   6.18270  18.00540  88.9066  87.1511  80.5575
ZERR    2.00   0.00102   0.00124   0.00360   0.0300   0.0300   0.0300
LATT 1
SFAC C  H  O  F
UNIT 16  6  4  26
OMIT -2 55
L.S. 20
BOND $H
ACTA
FMAP 2
PLAN 20
HTAB O2 O1_$2
EQIV $2 -x+1, -y+2, -z
HTAB C7 O2_$1
EQIV $1 -x+2, -y+1, -z
SIZE 0.3 0.24 0.1
HTAB
CONF
TEMP -180
WGHT    0.069400    0.360400
FVAR       0.75632
C1    1    0.859891   -0.290967    0.421963    11.00000    0.02577    0.01814 =
         0.01937    0.00432   -0.00160   -0.00444
C2    1    0.680113   -0.125705    0.372980    11.00000    0.02055    0.01670 =
         0.01853    0.00187   -0.00076   -0.00227
C3    1    0.830499   -0.010516    0.310702    11.00000    0.01745    0.01531 =
         0.01753    0.00334   -0.00217   -0.00233
C4    1    0.647861    0.154360    0.261202    11.00000    0.01526    0.01371 =
         0.01861    0.00154   -0.00171   -0.00225
C5    1    0.799719    0.272335    0.200087    11.00000    0.01594    0.01584 =
         0.01816    0.00110   -0.00162   -0.00291
C6    1    0.628034    0.445061    0.151236    11.00000    0.01459    0.01728 =
         0.01727    0.00020   -0.00218   -0.00212
C7    1    0.800430    0.554059    0.096779    11.00000    0.01680    0.02544 =
         0.02401    0.00994    0.00032   -0.00093
AFIX  23
H7A   2    0.890008    0.442662    0.061161    11.00000   -1.20000
H7B   2    0.939548    0.606912    0.124422    11.00000   -1.20000
AFIX   0
C8    1    0.655610    0.744346    0.053360    11.00000    0.01845    0.01897 =
         0.01702    0.00265   -0.00099   -0.00342
F1    4    1.024356   -0.191861    0.458270    11.00000    0.04524    0.02836 =
         0.03048    0.00791   -0.01997   -0.01061
F2    4    0.999571   -0.449066    0.381690    11.00000    0.04410    0.02191 =
         0.02632    0.00160   -0.00145    0.00855
F3    4    0.705630   -0.379300    0.471369    11.00000    0.03673    0.03734 =
         0.03112    0.01838    0.00260   -0.00548
F4    4    0.543319    0.026557    0.418381    11.00000    0.03539    0.02465 =
         0.02240    0.00356    0.00786    0.00672
F5    4    0.510479   -0.236665    0.341927    11.00000    0.02740    0.03082 =
         0.02874    0.00991   -0.00723   -0.01406
F6    4    0.999344    0.097866    0.343739    11.00000    0.02499    0.02463 =
         0.02671    0.00700   -0.01088   -0.01014
F7    4    0.969885   -0.165296    0.266820    11.00000    0.02677    0.02008 =
         0.02216    0.00288    0.00456    0.00578
F8    4    0.504343    0.305684    0.305616    11.00000    0.02414    0.01940 =
         0.02293    0.00272    0.00583    0.00467
F9    4    0.483555    0.043336    0.227431    11.00000    0.02433    0.02506 =
         0.02603    0.00651   -0.00886   -0.01182
F10   4    0.974070    0.376027    0.232994    11.00000    0.02025    0.02635 =
         0.02506    0.00882   -0.00846   -0.01016
F11   4    0.936054    0.120039    0.154099    11.00000    0.02677    0.02141 =
         0.02080    0.00301    0.00554    0.00494
F12   4    0.479113    0.592876    0.196603    11.00000    0.02690    0.02182 =
         0.01994    0.00190    0.00258    0.00577
F13   4    0.458128    0.340997    0.115027    11.00000    0.02673    0.02678 =
         0.02363    0.00523   -0.01040   -0.00953
O1    3    0.411772    0.794297    0.056332    11.00000    0.01631    0.03166 =
         0.02924    0.00959   -0.00196    0.00199
O2    3    0.816380    0.845390    0.013671    11.00000    0.02244    0.02478 =
         0.02477    0.00940   -0.00374   -0.00670
H2    2    0.728994    0.960749   -0.009538    11.00000    0.07696
HKLF 4

REM  TCD72 in P-1
REM R1 =  0.0479 for    2325 Fo > 4sig(Fo)  and  0.0496 for all    2412 data
REM    212 parameters refined using      0 restraints

END

WGHT      0.0701      0.3554

REM Instructions for potential hydrogen bonds
HTAB C7 O2_$1
HTAB O2 O1_$2

REM Highest difference peak  0.425,  deepest hole -0.307,  1-sigma level  0.075
Q1    1   0.7252  0.3523  0.1748  11.00000  0.05    0.42
Q2    1   0.7681 -0.1936  0.3983  11.00000  0.05    0.39
Q3    1   0.7450  0.0790  0.2901  11.00000  0.05    0.38
Q4    1   0.7168  0.2171  0.2321  11.00000  0.05    0.37
Q5    1   0.7245  0.6331  0.0712  11.00000  0.05    0.33
Q6    1   0.7239  0.5195  0.1285  11.00000  0.05    0.32
Q7    1   0.7495 -0.0774  0.3386  11.00000  0.05    0.31
Q8    1   0.3465  0.9032  0.0360  11.00000  0.05    0.31
Q9    1   1.0928 -0.3123  0.2795  11.00000  0.05    0.29
Q10   1   1.1219 -0.5900  0.4069  11.00000  0.05    0.28
Q11   1   0.7677  0.9153  0.0007  11.00000  0.05    0.27
Q12   1   0.5562 -0.2674  0.4618  11.00000  0.05    0.25
Q13   1   0.8906  0.5588  0.0981  11.00000  0.05    0.25
Q14   1   0.5848  0.2797  0.1048  11.00000  0.05    0.25
Q15   1   0.8728  0.4977  0.2216  11.00000  0.05    0.24
Q16   1   0.4512  0.6565  0.0868  11.00000  0.05    0.24
Q17   1   0.4846  0.3203  0.2523  11.00000  0.05    0.24
Q18   1   0.5333  0.0388  0.3663  11.00000  0.05    0.23
Q19   1   1.2744 -0.4931  0.3821  11.00000  0.05    0.23
Q20   1   0.4090  0.4224  0.2996  11.00000  0.05    0.22
;
_shelx_res_checksum              12647
_shelx_hkl_file
;
   0   0  -2  787.91    3.91
   0   0   2  786.69    3.88
   0   0   2  795.96    3.94
   0   0  -2  785.38    3.87
   0   0   2  790.97    3.91
   0   0  -3   49.21    0.55
   0   0   3   47.60    0.51
   0   0   3   48.11    0.54
   0   0  -3   49.14    0.54
   0   0  -3   48.66    0.52
   0   0   3   50.11    0.56
   0   0  -4    2.17    0.28
   0   0   4    2.10    0.25
   0   0  -4    2.40    0.23
   0   0  -4    3.15    0.29
   0   0   4    1.89    0.21
   0   0  -5   97.75    0.97
   0   0  -5   97.33    0.93
   0   0   5   94.35    0.97
   0   0  -5   96.69    0.94
   0   0  -5  101.06    0.97
   0   0   5  106.00    1.19
   0   0  -6    5.65    0.63
   0   0  -6    3.72    0.31
   0   0   6    4.13    0.40
   0   0  -6    4.30    0.33
   0   0  -6    2.88    0.30
   0   0   6    3.95    0.37
   0   0  -7   56.39    1.22
   0   0  -7   53.79    0.81
   0   0   7   55.24    0.86
   0   0  -7   53.97    0.80
   0   0  -7   56.76    0.83
   0   0   7   54.37    0.77
   0   0  -8    0.85    0.27
   0   0  -8    0.13    0.24
   0   0   8    1.16    0.40
   0   0  -8    1.19    0.35
   0   0  -8    2.42    0.55
   0   0   8    0.66    0.31
   0   0  -9  238.40    2.34
   0   0  -9  231.02    2.25
   0   0   9  224.73    2.22
   0   0  -9  234.20    2.28
   0   0  -9  239.22    2.31
   0   0   9  226.04    2.14
   0   0 -10  148.05    1.67
   0   0  10  145.92    1.68
   0   0 -10  138.87    1.55
   0   0 -10  144.28    1.64
   0   0 -11   18.29    1.12
   0   0 -11   17.73    0.73
   0   0  11   17.17    0.69
   0   0 -11   15.69    0.55
   0   0 -11   18.06    0.62
   0   0  11   16.29    0.53
   0   0 -12   13.78    0.65
   0   0  12   14.25    0.68
   0   0 -12   16.15    0.73
   0   0 -13   13.94    1.67
   0   0  13   14.26    1.70
   0   0 -13   10.83    1.29
   0   0 -14    2.07    0.49
   0   0  14    1.72    0.38
   0   0 -14    2.08    0.41
   0   0 -15   35.78    0.96
   0   0  15   38.04    1.04
   0   0 -15   34.15    0.94
   0   0 -16   10.09    1.43
   0   0  16   11.09    1.57
   0   0 -16    9.87    1.36
   0   0 -17   23.92    0.95
   0   0  17   25.67    1.04
   0   0 -17   27.64    1.02
   0   0 -18    1.81    0.53
   0   0  18    1.23    0.49
   0   0 -18    2.23    0.54
   0   0 -19  220.52    6.39
   0   0  19  213.55    6.23
   0   0 -19  208.29    6.00
   0   0 -20   17.75    1.07
   0   0  20   18.50    1.12
   0   0 -20   15.52    0.86
   0   0 -21   18.80    1.33
   0   0  21   20.52    1.53
   0   0 -21   20.21    1.46
   0   0 -22   13.12    0.87
   0   0  22   14.87    1.02
   0   0 -22   13.77    0.90
   0   0 -23   11.03    1.41
   0   0  23   14.62    1.95
   0   0 -23   11.32    2.03
   0   0 -24    8.00    1.64
   0   0 -24   14.85    1.14
   0   1 -24   31.96    2.27
   0  -1  24   38.76    1.99
   0   1 -23    1.01    0.42
   0  -1  23    1.30    0.48
   0   1 -23    0.40    0.56
   0   1 -22   10.62    0.79
   0  -1  22    7.64    0.75
   0   1 -22   10.24    0.86
   0   1 -21   22.89    1.56
   0  -1  21   15.23    1.15
   0   1 -21   22.44    1.48
   0   1 -20   20.51    0.96
   0  -1  20   20.16    0.93
   0   1 -20   17.26    0.89
   0   1 -19    0.18    0.33
   0  -1  19    2.38    0.66
   0   1 -19    0.91    0.46
   0   1 -18    0.92    0.34
   0  -1  18    1.86    0.66
   0   1 -18    1.16    0.50
   0   1 -17    8.80    1.20
   0  -1  17    8.10    1.10
   0   1 -17    7.60    1.04
   0   1 -16  189.70    3.48
   0  -1  16  188.76    3.48
   0   1 -16  190.51    3.51
   0   1 -15    4.45    0.75
   0  -1  15    5.56    0.85
   0   1 -15    4.00    0.70
   0   1 -15    4.44    0.65
   0   1 -13   10.44    1.28
   0  -1  13   11.37    1.34
   0   1 -13    9.38    1.16
   0   1 -13    9.70    1.10
   0   1 -12   58.49    1.18
   0  -1  12   61.84    1.24
   0   1 -12   63.72    1.29
   0   1 -11   37.54    1.95
   0   1 -11   40.72    0.90
   0  -1  11   41.76    0.96
   0   1 -11   37.44    0.88
   0   1 -11   35.80    0.88
   0   1 -10    7.47    0.74
   0   1 -10    6.99    0.43
   0  -1  10    8.01    0.47
   0   1 -10    8.82    0.46
   0   1 -10    7.26    0.48
   0  -1  10    8.51    0.48
   0   1  -9   87.72    1.56
   0   1  -9   90.34    1.21
   0  -1   9  105.37    1.44
   0   1  -9   91.29    1.20
   0   1  -9   98.28    1.34
   0   1  -8    0.47    0.27
   0   1  -8    0.72    0.35
   0  -1   8    1.95    0.40
   0   1  -8    0.50    0.32
   0   1  -8   -0.21    0.32
   0  -1   8    1.00    0.23
   0   1  -7   35.88    1.23
   0   1  -7   37.51    0.73
   0  -1   7   37.07    0.79
   0   1  -7   34.67    0.67
   0   1  -7   34.59    0.71
   0  -1   7   37.75    0.95
   0   1  -6  159.64    1.48
   0   1  -6  158.39    1.29
   0  -1   6  158.41    1.31
   0   1  -6  159.80    1.30
   0   1  -6  160.54    1.35
   0  -1   6  154.57    1.28
   0   1  -5  726.06    3.97
   0   1  -5  712.12    3.82
   0  -1   5  709.73    3.82
   0   1  -5  721.90    3.88
   0   1  -5  709.99    3.87
   0  -1   5  738.52    3.99
   0   1  -4   62.16    0.94
   0  -1   4   62.74    0.64
   0   1  -4   61.20    0.62
   0   1  -4   65.50    0.72
   0  -1   4   65.75    0.70
   0  -1   3   88.30    0.71
   0   1  -3   88.11    0.83
   0  -1   3   84.90    0.67
   0   1  -3   87.81    0.70
   0   1  -3   88.03    0.77
   0  -1   3   92.41    0.79
   0  -1   2  442.09    2.25
   0   1  -2  442.47    2.25
   0  -1   2  443.44    2.25
   0   1  -2  445.34    2.26
   0   1  -2  442.38    2.33
   0  -1   2  436.09    2.28
   0  -1   2  443.66    2.14
   0  -1   1   25.77    0.35
   0   1  -1   24.02    0.24
   0  -1   1   25.85    0.27
   0   1  -1   23.05    0.23
   0   1  -1   27.81    0.56
   0  -1   1   23.38    0.28
   0  -1   1   24.06    0.36
   0  -1   0  137.61    0.74
   0   1   0  136.86    0.74
   0  -1   0  136.51    0.75
   0  -1   0  136.88    0.74
   0  -1   0  141.08    0.91
   0  -1  -1  452.31    2.28
   0   1   1  468.84    2.36
   0   1   1  457.14    2.32
   0  -1  -1  474.33    2.40
   0  -1  -2 1218.05    5.94
   0   1   2 1215.49    5.91
   0   1   2 1230.31    6.01
   0  -1  -2 1207.97    5.89
   0  -1  -2 1201.32    5.74
   0  -1  -4  417.13    2.39
   0   1   4  415.82    2.39
   0   1   4  409.32    2.40
   0  -1  -4  408.84    2.38
   0  -1  -4  417.72    2.28
   0   1   4  417.16    2.32
   0  -1  -5 1823.52    9.06
   0   1   5 1791.96    8.89
   0   1   5 1826.01    9.11
   0  -1  -5 1782.95    8.89
   0  -1  -5 1799.93    8.81
   0   1   5 1789.73    8.76
   0  -1  -6  352.45    2.33
   0   1   6  344.12    2.27
   0   1   6  341.78    2.31
   0  -1  -6  340.83    2.28
   0   1   6  370.63    2.32
   0  -1  -7 1556.04   11.63
   0   1   7 1570.54   11.72
   0   1   7 1599.18   11.97
   0  -1  -7 1599.89   11.83
   0   1   7 1562.54   11.56
   0  -1  -8   44.75    0.89
   0   1   8   40.86    0.82
   0  -1  -8   40.41    0.81
   0  -1  -8   44.87    0.79
   0   1   8   41.97    0.74
   0  -1  -9  249.66    2.31
   0   1   9  254.48    2.42
   0  -1  -9  253.00    2.34
   0  -1  -9  255.60    2.30
   0  -1 -10 1626.59   11.54
   0  -1 -10 1704.88   11.81
   0  -1 -10 1633.90   11.38
   0   1  10 1724.04   11.88
   0  -1 -11   32.48    0.82
   0   1  11   31.43    0.84
   0  -1 -11   34.41    0.80
   0   1  11   34.13    0.74
   0  -1 -12  798.98    9.49
   0   1  12  799.79    9.53
   0  -1 -13   35.07    1.01
   0   1  13   32.80    1.01
   0  -1 -13   32.44    0.91
   0  -1 -14    3.01    0.61
   0   1  14    2.36    0.49
   0  -1 -14    3.50    0.63
   0  -1 -15    2.21    0.46
   0   1  15    3.31    0.83
   0  -1 -15    2.73    0.53
   0  -1 -16    6.34    1.07
   0   1  16    5.96    1.02
   0  -1 -16    5.16    0.86
   0  -1 -17    1.68    0.53
   0   1  17    1.82    0.64
   0  -1 -17    1.15    0.28
   0  -1 -18    3.93    0.70
   0   1  18    2.26    0.45
   0  -1 -18    2.90    0.49
   0  -1 -19   47.55    1.88
   0   1  19   44.24    1.78
   0  -1 -19   39.90    1.56
   0  -1 -20    0.78    0.33
   0   1  20    0.67    0.28
   0  -1 -20    1.61    0.48
   0  -1 -21   96.87    5.18
   0   1  21   97.02    5.23
   0  -1 -21  106.40    5.70
   0  -1 -22  121.57    4.73
   0   1  22  126.79    4.81
   0  -1 -22  139.96    5.24
   0  -1 -23   13.25    1.72
   0   1  23   13.69    1.78
   0  -1 -23   11.33    1.48
   0  -1 -24   47.94    2.31
   0   2 -24    1.35    0.39
   0  -2  24    1.18    0.53
   0   2 -23   37.28    1.85
   0  -2  23   38.59    1.98
   0   2 -22   12.33    1.56
   0  -2  22    8.42    1.15
   0   2 -22   10.89    1.79
   0   2 -21   21.87    1.06
   0  -2  21   24.79    1.24
   0   2 -21   22.74    1.13
   0   2 -20  136.28    7.19
   0  -2  20  128.50    6.80
   0   2 -20  120.21    6.39
   0   2 -19   63.18    2.21
   0  -2  19   58.75    2.15
   0   2 -19   56.90    3.14
   0   2 -18   95.76    3.00
   0  -2  18   96.40    3.03
   0   2 -18   97.02    3.11
   0   2 -18  100.01    2.91
   0   2 -17   63.03    2.65
   0  -2  17   63.76    2.69
   0   2 -17   63.50    2.70
   0   2 -17   62.57    2.47
   0   2 -16   10.79    1.37
   0  -2  16   11.36    1.51
   0   2 -16    9.04    1.21
   0   2 -16    6.86    0.95
   0   2 -16    9.22    1.13
   0   2 -15    2.36    0.54
   0  -2  15    2.51    0.56
   0   2 -15    0.81    0.42
   0   2 -15    0.41    0.15
   0   2 -15   -0.09    0.17
   0   2 -14   65.15    1.37
   0  -2  14   70.38    1.59
   0   2 -14   64.29    1.42
   0   2 -14   57.77    1.77
   0   2 -14   59.68    1.03
   0  -2  13  281.76    2.12
   0   2 -12   16.43    1.86
   0  -2  12   17.97    2.03
   0   2 -12   17.15    1.95
   0   2 -12   18.51    2.16
   0   2 -12   13.53    1.49
   0   2 -11  205.44    3.18
   0   2 -11  218.28    2.96
   0  -2  11  213.28    2.92
   0   2 -11  208.41    2.81
   0   2 -11  206.11    2.53
   0   2 -11  205.46    2.52
   0   2 -10   10.36    0.65
   0   2 -10    9.44    0.47
   0  -2  10   11.10    0.53
   0   2 -10    9.58    0.45
   0   2 -10    9.86    0.56
   0   2 -10   10.08    0.32
   0   2  -9   25.10    1.04
   0   2  -9   24.96    0.64
   0  -2   9   25.59    0.63
   0   2  -9   26.39    0.65
   0   2  -9   23.10    0.65
   0  -2   9   25.30    0.65
   0   2  -9   24.60    0.41
   0   2  -8   27.02    1.29
   0   2  -8   34.40    0.72
   0  -2   8   31.99    0.72
   0   2  -8   27.79    0.60
   0   2  -8   27.93    0.67
   0  -2   8   28.70    0.78
   0   2  -7   59.71    1.87
   0   2  -7   58.26    0.84
   0  -2   7   61.48    0.88
   0   2  -7   60.12    0.83
   0   2  -7   62.42    0.98
   0  -2   7   61.03    0.92
   0   2  -6    2.30    0.21
   0   2  -6    1.94    0.24
   0  -2   6    2.00    0.30
   0   2  -6    1.42    0.20
   0   2  -6    1.43    0.28
   0  -2   6    1.16    0.18
   0   2  -5   12.06    0.58
   0  -2   5   10.47    0.35
   0   2  -5   11.63    0.50
   0   2  -5   10.46    0.37
   0  -2   5   11.52    0.44
   0  -2   4 2080.55   10.04
   0   2  -4 2104.73   10.18
   0   2  -4 2100.20   10.15
   0   2  -4 2144.97   10.54
   0  -2   4 2189.63   10.30
   0  -2   3   49.31    0.76
   0   2  -3   45.46    0.47
   0  -2   3   47.56    0.49
   0   2  -3   44.59    0.46
   0   2  -3   49.42    1.00
   0  -2   3   45.61    0.56
   0  -2   3   44.26    0.36
   0  -2   2  310.59    1.69
   0   2  -2  315.60    1.67
   0  -2   2  306.35    1.61
   0   2  -2  312.89    1.66
   0   2  -2  315.23    1.82
   0  -2   2  315.33    1.79
   0  -2   2  306.27    1.65
   0  -2   1   49.24    0.39
   0   2  -1   48.76    0.40
   0  -2   1   49.47    0.45
   0  -2   1   49.40    0.39
   0   2  -1   49.11    0.68
   0  -2   1   50.85    0.47
   0  -2   1   50.20    0.51
   0  -2   0  145.06    0.87
   0   2   0  146.23    0.87
   0  -2   0  146.31    0.87
   0  -2   0  145.81    0.86
   0  -2   0  149.88    1.07
   0  -2  -1   90.70    0.68
   0   2   1   93.19    0.69
   0   2   1   92.32    0.85
   0  -2  -1   93.44    0.70
   0  -2  -1   89.61    0.64
   0  -2  -1   92.17    0.89
   0  -2  -2   29.03    0.43
   0   2   2   28.41    0.41
   0   2   2   28.53    0.44
   0  -2  -2   27.83    0.40
   0  -2  -2   28.54    0.59
   0  -2  -3  482.41    2.65
   0   2   3  483.55    2.66
   0   2   3  481.90    2.69
   0  -2  -3  478.63    2.65
   0  -2  -3  483.39    2.46
   0  -2  -3  486.58    2.83
   0  -2  -4   92.34    0.90
   0   2   4   96.52    0.94
   0   2   4   90.38    0.94
   0  -2  -4   92.64    0.72
   0  -2  -5 1386.75   10.26
   0   2   5 1470.49   10.88
   0   2   5 1424.10   10.58
   0  -2  -5 1466.65   10.86
   0  -2  -5 1379.43   10.07
   0  -2  -6  236.92    2.17
   0   2   6  235.96    2.14
   0   2   6  236.57    2.23
   0  -2  -6  242.66    2.22
   0  -2  -6  236.38    2.02
   0   2   6  235.65    2.02
   0  -2  -7   87.00    1.17
   0   2   7   85.99    1.11
   0   2   7   83.61    1.20
   0  -2  -7   84.67    1.16
   0   2   7   90.12    1.04
   0   2   8  359.48    3.42
   0   2   8  362.14    3.13
   0   2   8  370.89    2.96
   0  -2  -9   43.08    0.94
   0   2   9   40.67    0.94
   0  -2  -9   41.66    0.86
   0  -2  -9   43.67    0.83
   0   2   9   39.87    0.74
   0  -2 -10  459.06    4.93
   0   2  10  455.45    4.96
   0  -2 -10  434.01    4.51
   0   2  10  430.25    4.48
   0  -2 -11    1.16    0.50
   0   2  11    1.23    0.29
   0  -2 -11    1.18    0.23
   0   2  11   -0.17    0.20
   0  -2 -12   53.23    1.26
   0   2  12   50.34    1.29
   0  -2 -12   49.02    1.07
   0  -2 -13   33.76    1.06
   0   2  13   32.38    1.02
   0  -2 -13   34.91    0.94
   0  -2 -14  117.78    1.54
   0   2  14  119.55    1.62
   0  -2 -14  122.90    1.43
   0  -2 -15  394.24    5.62
   0   2  15  342.05    4.98
   0  -2 -15  361.44    5.09
   0  -2 -16   32.64    1.11
   0   2  16   32.36    1.13
   0  -2 -16   31.49    1.05
   0  -2 -17    5.74    0.87
   0   2  17    5.31    0.78
   0  -2 -17    5.99    0.84
   0  -2 -18    6.25    0.74
   0   2  18    5.95    0.65
   0  -2 -18    7.14    0.70
   0  -2 -19   13.68    0.98
   0   2  19   14.55    0.97
   0  -2 -19   13.99    0.84
   0  -2 -20    2.21    0.79
   0   2  20    1.58    0.70
   0  -2 -20    1.07    0.33
   0  -2 -21    1.45    0.55
   0   2  21    1.51    0.57
   0  -2 -22    1.75    0.82
   0   2  22    1.23    0.48
   0  -2 -22    1.26    0.53
   0  -2 -23    5.91    0.70
   0   2  23    7.02    0.74
   0  -2 -23    3.68    0.77
   0  -2 -24    9.26    0.82
   0   3 -24    1.06    0.46
   0  -3  24    0.87    0.27
   0   3 -23    3.14    0.45
   0  -3  23    6.37    0.68
   0   3 -22    1.40    0.43
   0  -3  22    1.11    0.58
   0   3 -22    4.07    0.93
   0   3 -21    1.83    0.54
   0  -3  21    1.97    0.59
   0   3 -21    3.26    0.91
   0   3 -20   22.34    1.04
   0  -3  20   27.69    1.29
   0   3 -20   25.98    1.21
   0   3 -19    6.87    0.66
   0  -3  19    5.77    0.63
   0   3 -19    9.38    1.32
   0   3 -18    1.17    0.47
   0  -3  18    2.28    0.66
   0   3 -18   -0.09    0.31
   0   3 -17    1.53    0.33
   0  -3  17    1.90    0.38
   0   3 -17    1.40    0.40
   0   3 -16   42.53    1.87
   0  -3  16   42.96    1.91
   0   3 -16   41.70    1.90
   0   3 -15    0.89    0.37
   0  -3  15    0.91    0.46
   0   3 -15    1.29    0.41
   0   3 -14   36.01    1.12
   0  -3  14   36.31    1.16
   0   3 -14   29.32    1.02
   0   3 -14   16.92    2.44
   0   3 -13    8.18    1.15
   0  -3  13    7.65    1.10
   0   3 -13    8.55    1.34
   0   3 -13    3.82    0.58
   0   3 -12  102.43    1.17
   0  -3  12  104.56    1.18
   0   3 -12  116.68    2.59
   0   3 -11 3706.89  508.38
   0   3 -11 4198.78  575.84
   0  -3  11 4336.90  594.78
   0   3 -11 3814.32  523.11
   0   3 -10 1663.36  228.14
   0   3 -10 1829.00  250.88
   0  -3  10 1794.33  246.15
   0   3 -10 1713.27  234.99
   0   3  -9 1358.46   15.52
   0   3  -9 1392.58   15.93
   0  -3   9 1425.53   16.42
   0   3  -9 1364.31   15.60
   0   3  -8  176.48    2.49
   0   3  -8  179.87    2.40
   0  -3   8  174.78    2.25
   0   3  -8  178.61    2.38
   0   3  -8  174.13    2.46
   0  -3   8  157.88    2.19
   0   3  -7    0.23    0.16
   0   3  -7    0.08    0.16
   0  -3   7    0.20    0.17
   0   3  -7    0.54    0.23
   0   3  -7    0.27    0.17
   0  -3   7    0.59    0.20
   0   3  -6   61.11    0.84
   0   3  -6   67.35    0.96
   0  -3   6   64.89    0.91
   0   3  -6   61.21    0.85
   0   3  -6   65.36    1.09
   0  -3   6   63.14    0.99
   0   3  -5    1.16    0.16
   0  -3   5    0.86    0.13
   0   3  -5    1.05    0.16
   0   3  -5    2.35    0.42
   0  -3   5    1.55    0.25
   0  -3   4   49.14    0.83
   0   3  -4   46.16    0.55
   0  -3   4   45.49    0.52
   0   3  -4   45.77    0.54
   0   3  -4   43.97    0.72
   0  -3   4   47.93    0.69
   0  -3   4   45.44    0.47
   0  -3   3   66.56    0.75
   0   3  -3   66.23    0.63
   0  -3   3   65.98    0.63
   0   3  -3   77.08    1.53
   0  -3   3   72.74    0.86
   0  -3   3   66.78    0.76
   0   3  -2  110.49    0.95
   0  -3   2  112.37    1.05
   0  -3   2  104.27    0.92
   0   3  -2  101.90    1.11
   0  -3   2  113.66    1.09
   0  -3   2  110.90    1.10
   0  -3   1   25.42    0.33
   0   3  -1   25.87    0.33
   0  -3   1   28.54    0.36
   0  -3   1   25.45    0.40
   0   3  -1   25.70    0.77
   0  -3   1   27.19    0.43
   0  -3   1   25.08    0.68
   0  -3   0    9.06    0.23
   0   3   0    9.80    0.25
   0  -3   0   10.09    0.26
   0  -3   0    9.41    0.23
   0   3   0   10.82    0.49
   0  -3   0    9.43    0.24
   0  -3   0    9.49    0.65
   0  -3  -1  608.39    4.55
   0   3   1  597.49    4.46
   0   3   1  615.41    4.62
   0  -3  -1  601.54    4.50
   0  -3  -1  590.80    4.33
   0  -3  -1  638.87    5.14
   0  -3  -2  135.10    1.23
   0   3   2  132.50    1.22
   0   3   2  135.19    1.42
   0  -3  -2  133.37    1.23
   0  -3  -2  133.76    1.18
   0  -3  -2  139.09    1.52
   0  -3  -3  369.32    2.76
   0   3   3  365.97    2.72
   0   3   3  362.30    2.80
   0  -3  -3  366.35    2.73
   0  -3  -3  380.45    2.61
   0  -3  -3  370.89    3.04
   0  -3  -4   45.96    0.69
   0   3   4   44.58    0.67
   0   3   4   48.45    0.83
   0  -3  -4   44.90    0.70
   0  -3  -4   46.03    0.51
   0  -3  -4   42.97    0.83
   0  -3  -5   56.21    0.90
   0   3   5   55.00    0.84
   0   3   5   50.72    0.84
   0  -3  -5   55.07    0.83
   0  -3  -5   47.72    1.00
   0  -3  -6   52.85    0.82
   0   3   6   51.30    0.79
   0   3   6   53.50    0.92
   0  -3  -6   50.29    0.84
   0  -3  -6   46.89    0.87
   0  -3  -7   21.63    0.65
   0   3   7   22.05    0.64
   0   3   7   19.94    0.64
   0  -3  -7   20.06    0.64
   0  -3  -7   18.76    0.44
   0  -3  -8  308.25    3.84
   0   3   8  312.34    3.51
   0   3   8  310.10    3.51
   0  -3  -8  334.43    3.70
   0  -3  -8  307.76    3.20
   0  -3  -9   24.66    0.77
   0   3   9   25.62    0.90
   0  -3  -9   22.67    0.72
   0  -3  -9   25.26    0.61
   0  -3 -10   21.89    0.77
   0   3  10   21.66    0.78
   0  -3 -10   19.46    2.14
   0  -3 -11  105.06    1.97
   0   3  11  105.87    2.10
   0  -3 -11   99.58    1.72
   0  -3 -12   31.30    0.88
   0   3  12   29.63    0.94
   0  -3 -12   31.76    0.75
   0  -3 -13    1.56    0.56
   0   3  13    0.76    0.41
   0  -3 -13    0.63    0.36
   0  -3 -14   10.76    1.67
   0   3  14   11.10    1.72
   0  -3 -14   11.96    1.80
   0  -3 -15  443.63    9.41
   0   3  15  454.61    9.70
   0  -3 -15  418.58    8.78
   0  -3 -16  133.74    5.23
   0   3  16  132.38    5.28
   0  -3 -16  133.37    5.14
   0  -3 -17  585.71   16.54
   0   3  17  650.17   17.94
   0  -3 -17  652.93   17.88
   0  -3 -18  134.93    4.40
   0   3  18  148.32    4.70
   0  -3 -18  129.12    3.98
   0  -3 -19   10.47    0.79
   0   3  19   13.99    0.92
   0  -3 -19   12.71    1.00
   0  -3 -20   17.29    1.02
   0   3  20   21.96    1.29
   0  -3 -20   16.75    0.82
   0  -3 -21    1.85    0.62
   0   3  21    2.32    0.73
   0  -3 -21    0.52    0.32
   0  -3 -22    1.81    0.61
   0   3  22    2.46    0.76
   0  -3 -22    1.35    0.48
   0  -3 -23    1.41    0.39
   0   4 -21    3.99    0.73
   0   4 -21    8.18    0.82
   0   4 -20   26.54    3.06
   0  -4  20   31.35    3.61
   0   4 -20   36.24    4.18
   0   4 -19    0.23    0.18
   0  -4  19    1.06    0.52
   0   4 -19    2.56    0.85
   0   4 -18   22.71    0.95
   0  -4  18   25.36    1.08
   0   4 -18   25.16    1.13
   0   4 -17    1.83    0.48
   0  -4  17    2.06    0.56
   0   4 -17    2.96    0.79
   0   4 -16   22.87    1.01
   0  -4  16   24.72    1.07
   0   4 -16   22.23    1.12
   0   4 -15   39.22    1.35
   0  -4  15   40.66    1.42
   0   4 -15   42.22    1.59
   0   4 -14   12.43    1.40
   0  -4  14    9.83    1.16
   0   4 -14   11.72    1.41
   0   4 -13   23.91    0.86
   0  -4  13   23.57    0.90
   0   4 -13   24.48    0.97
   0   4 -12   18.37    2.67
   0   4 -12   22.76    2.69
   0  -4  12   23.84    2.81
   0   4 -12   18.70    2.72
   0   4 -12   23.00    2.76
   0   4 -11    0.60    0.25
   0   4 -11    0.51    0.25
   0  -4  11    0.46    0.27
   0   4 -11    1.18    0.34
   0   4 -11    0.90    0.37
   0   4 -10   33.03    0.77
   0   4 -10   32.44    0.74
   0  -4  10   34.37    0.82
   0   4 -10   34.52    0.78
   0   4 -10   33.59    0.97
   0   4  -9    1.19    0.31
   0   4  -9    1.05    0.27
   0  -4   9    0.11    0.16
   0   4  -9    1.43    0.31
   0   4  -9    0.97    0.35
   0   4  -7    0.14    0.17
   0   4  -7    0.85    0.24
   0  -4   7    1.35    0.26
   0   4  -7   -0.05    0.13
   0   4  -7   -0.20    0.24
   0  -4   7    0.47    0.18
   0   4  -6   14.42    1.57
   0   4  -6   13.45    1.47
   0  -4   6   14.17    1.55
   0   4  -6   14.50    1.58
   0   4  -6   20.88    2.44
   0  -4   6   15.91    1.76
   0   4  -5   67.73    0.92
   0   4  -5   68.87    0.93
   0  -4   5   70.80    0.96
   0   4  -5   72.08    2.18
   0  -4   5   69.66    0.90
   0   4  -4   17.82    0.33
   0  -4   4   19.32    0.65
   0  -4   4   20.61    0.38
   0   4  -4   19.62    1.04
   0  -4   4   16.82    0.46
   0  -4   4   17.57    0.36
   0   4  -3  432.15    4.89
   0  -4   3  443.62    5.02
   0  -4   3  427.42    4.83
   0   4  -3  431.54    5.15
   0  -4   3  464.37    5.44
   0  -4   2    0.70    0.21
   0  -4   1  638.67    6.06
   0  -4   1  667.68    6.32
   0   4  -1  652.31    6.28
   0  -4   1  633.97    6.24
   0  -4   0  150.58    1.56
   0  -4   0  153.58    1.59
   0  -4   0  168.27    1.94
   0  -4  -1 1416.10   13.38
   0  -4  -1 1468.32   13.87
   0  -4  -1 1362.29   12.79
   0  -4  -1 1477.83   14.54
   0  -4  -2  195.33    2.39
   0   4   2  192.58    2.67
   0   4   3   33.74    0.72
   0  -4  -3   35.41    0.68
   0  -4  -4   87.12    1.43
   0  -4  -5   26.86    0.62
   0   4   5   27.55    0.64
   0   4   5   26.25    1.05
   0  -4  -5   28.35    0.65
   0  -4  -5   27.22    0.41
   0  -4  -6  115.43    1.94
   0   4   6  117.57    2.04
   0   4   6  117.28    2.31
   0  -4  -7   15.53    1.74
   0   4   7   15.72    1.76
   0   4   7   19.05    2.52
   0  -4  -7   15.40    1.72
   0  -4  -7   14.15    1.54
   0  -4  -8   98.97    1.76
   0   4   8   94.67    1.78
   0  -4  -8   92.66    1.46
   0  -4  -9    1.00    0.28
   0   4   9    2.09    0.44
   0  -4  -9    1.08    0.21
   0  -4 -10   26.87    0.94
   0   4  10   24.61    0.83
   0  -4 -10   22.07    2.81
   0  -4 -11  558.53    7.57
   0   4  11  544.20    7.42
   0  -4 -11  530.73    6.94
   0  -4 -12   10.06    1.60
   0   4  12    9.67    1.53
   0  -4 -12    9.10    1.35
   0  -4 -13    1.64    0.47
   0   4  13    1.30    0.41
   0  -4 -13    1.08    0.24
   0  -4 -14    7.65    1.00
   0   4  14   10.48    1.32
   0  -4 -14    9.56    1.10
   0  -4 -15    6.77    0.70
   0   4  15    7.07    0.77
   0  -4 -15    5.89    0.49
   0  -4 -16    0.35    0.27
   0   4  16    1.18    0.41
   0  -4 -16    0.49    0.18
   0  -4 -17   15.78    0.88
   0   4  17   12.14    0.78
   0  -4 -17   10.39    0.53
   0  -4 -18    9.43    0.86
   0   4  18    8.95    0.80
   0  -4 -18   10.03    0.81
   0  -4 -19    1.02    0.56
   0   4  19    1.40    0.59
   0  -4 -19    0.58    0.26
   0  -4 -20    1.60    0.55
   0   4  20    2.58    0.85
   0  -4 -21    1.19    0.66
   0   5 -19    1.89    0.58
   0   5 -18    2.31    0.70
   0   5 -17   73.57    2.93
   0   5 -16   19.89    1.05
   0   5 -15  329.14   80.49
   0   5 -14   16.93    0.77
   0   5 -13    5.12    0.85
   0   5 -13    4.06    0.78
   0   5 -12    8.05    0.49
   0  -5  12    7.35    0.56
   0   5 -12    9.28    0.84
   0   5 -11   15.71    0.75
   0  -5  11   15.84    0.76
   0   5 -11   20.91    1.59
   0   5 -10    4.61    0.55
   0  -5  10    5.30    0.63
   0   5 -10    6.67    0.92
   0   5  -9   18.71    0.55
   0  -5   9   19.13    0.59
   0   5  -9   19.54    1.43
   0   5  -8    1.37    0.26
   0   5  -8    1.83    0.33
   0  -5   8    0.96    0.24
   0   5  -8    1.41    0.41
   0   5  -7    0.70    0.15
   0  -5   7    0.26    0.11
   0  -5   7    0.53    0.15
   0   5  -7    0.50    0.22
   0   5  -6   75.19    2.52
   0  -5   6   67.21    1.16
   0   5  -5  150.51    2.44
   0  -5   5  135.70    1.99
   0  -5   5  146.62    1.98
   0   5  -4   16.25    2.37
   0  -5   4   17.59    2.25
   0  -5   4   19.43    2.46
   0   5  -3  207.86    1.31
   0   5  -2    2.28    0.54
   0  -5   1   40.94    0.41
   0  -5   1   45.42    0.77
   0  -5   0   67.12    1.10
   0  -5  -1   11.42    1.59
   0  -5  -1   13.44    1.87
   0  -5  -1    9.56    1.51
   0  -5  -2   47.96    0.53
   0  -5  -2   43.36    0.51
   0  -5  -2   47.16    0.53
   0  -5  -3    0.46    0.18
   0   5   3    0.73    0.23
   0  -5  -3    0.74    0.21
   0  -5  -4  614.01    7.91
   0   5   4  546.31    7.10
   0  -5  -6   48.08    2.14
   0  -5  -6   58.23    1.13
   0   5   6   54.91    1.87
   0  -5  -6   57.38    1.10
   0  -5  -7   57.52    1.27
   0   5   7   66.24    1.75
   0  -5  -7   57.03    1.19
   0  -5  -8   29.88    0.88
   0   5   8   31.35    1.80
   0  -5  -8   22.39    2.57
   0  -5  -9    0.53    0.36
   0   5   9    0.70    0.15
   0  -5  -9    0.60    0.15
   0  -5 -10    2.49    0.51
   0   5  10    2.18    0.44
   0  -5 -10    1.50    0.24
   0  -5 -11    0.28    0.23
   0   5  11    1.20    0.39
   0  -5 -11    0.94    0.23
   0  -5 -12    7.73    0.63
   0   5  12    7.64    1.38
   0  -5 -13    0.80    0.41
   0   5  13    1.42    0.48
   0  -5 -14   24.96    0.87
   0   5  14   23.87    1.57
   0  -5 -15   11.50    0.92
   0   5  15    8.98    0.95
   0  -5 -16    8.32    0.68
   0   5  16    5.98    0.58
   0   5  17    1.46    0.54
   0  -5 -18    0.56    0.27
   0   5  18    0.92    0.41
   0  -5 -19    0.23    0.28
   0   5  19    0.43    0.33
   0  -5 -20    5.10    0.65
   0   5  20    4.38    0.70
   0   6 -18    0.17    0.23
   0   6 -17    4.13    0.68
   0   6 -16    3.25    0.71
   0   6 -15    1.19    0.45
   0   6 -14    8.23    1.18
   0   6 -13   13.48    2.02
   0   6 -12   14.66    1.66
   0   6 -11   10.37    1.21
   0   6 -10  154.93    1.64
   0   6  -9    4.83    0.89
   0   6  -8   27.92    2.32
   0   6  -7   27.29    2.11
   0   6  -6   10.04    0.92
   0   6  -5    1.35    0.26
   0   6  -4   12.73    1.82
   0  -6  -3    1.10    0.21
   0  -6  -3    0.76    0.19
   0  -6  -4  112.41    4.23
   0  -6  -5  173.16    6.49
   0   6   5  160.55    6.06
   0  -6  -6  300.20   11.20
   0   6   6  278.23   10.46
   0  -6  -7  985.05  148.50
   0   6   7  860.50  129.73
   0  -6  -8   24.15    0.92
   0   6   8   23.54    1.10
   0  -6  -9    2.80    0.62
   0   6   9    2.09    0.46
   0  -6 -10    6.09    0.46
   0   6  10    3.41    0.87
   0  -6 -11    1.28    0.38
   0   6  11    0.52    0.24
   0  -6 -12    1.29    0.37
   0   6  12    1.35    0.32
   0  -6 -13    1.12    0.41
   0   6  13    0.43    0.20
   0  -6 -14   52.97    2.19
   0   6  14   43.62    2.75
   0  -6 -15    1.78    0.55
   0   6  15    1.69    0.53
   0  -6 -16   71.40    3.18
   0   6  16   57.40    3.22
   0  -6 -17    0.28    0.25
   0   6  17    0.71    0.36
   0  -6 -18    1.37    0.38
   0   6  18    2.79    0.55
  -1   6  18    1.20    0.25
   1  -6 -17   92.48    4.43
  -1   6  17   62.62    3.22
   1  -6 -16   12.86    1.03
  -1   6  16    7.38    1.13
   1  -6 -15  118.75    5.10
  -1   6  15   79.40    3.86
   1  -6 -14    4.88    0.75
  -1   6  14    4.49    0.78
   1  -6 -13    3.33    0.78
  -1   6  13    2.78    0.65
   1  -6 -12    2.59    0.81
  -1   6  12    0.99    0.34
   1  -6 -11    1.18    0.44
  -1   6  11    0.55    0.29
   1  -6 -10    3.48    0.62
  -1   6  10    3.29    0.68
   1  -6  -9    1.65    0.44
  -1   6   9    1.63    0.45
   1  -6  -8   36.10    0.88
  -1   6   8   31.03    1.47
   1  -6  -7    1.69    0.42
  -1   6   7    1.18    0.27
   1  -6  -6   35.39    1.29
  -1   6   6   34.23    1.24
   1  -6  -5    4.05    0.36
   1  -6  -4    3.05    0.30
   1  -6  -4    7.09    0.51
   1  -6  -3    1.19    0.25
   1  -6  -3    0.91    0.17
   1  -6  -2    0.96    0.27
   1  -6  -2    0.36    0.23
   1  -6  -1    3.78    0.31
   1  -6  -1    5.00    0.39
   1  -6   0    1.70    0.26
   1  -6   0    1.55    0.25
  -1   6  -8    0.87    0.27
  -1   6  -9   12.55    1.29
  -1   6 -10   16.02    1.74
  -1   6 -11   22.39    2.29
  -1   6 -12    7.50    0.88
  -1   6 -13   45.28    1.95
  -1   6 -14    1.70    0.53
  -1   6 -15   33.40    1.64
  -1   6 -16    1.42    0.43
   1  -5 -19    0.51    0.37
  -1   5  19    0.93    0.27
   1  -5 -18    1.71    0.60
  -1   5  18    1.47    0.36
   1  -5 -17    1.48    0.66
  -1   5  17    0.79    0.33
   1  -5 -16    0.88    0.41
  -1   5  16    1.25    0.43
   1  -5 -15    1.55    0.56
  -1   5  15    1.72    0.56
   1  -5 -14    3.07    0.66
  -1   5  14    1.36    0.37
   1  -5 -13    6.29    0.53
  -1   5  13    4.58    1.01
   1  -5 -12  139.75    4.32
  -1   5  12  122.67    4.13
   1  -5 -11    8.39    0.68
  -1   5  11    6.87    0.96
   1  -5 -10    2.81    0.72
  -1   5  10    2.20    0.42
   1  -5  -9    1.79    0.39
  -1   5   9    2.84    0.44
   1  -5  -8   27.48    0.94
  -1   5   8   31.20    2.26
   1  -5  -7    2.12    0.39
  -1   5   7    3.58    0.56
   1  -5  -5  431.77    6.96
  -1   5   5  411.28    6.84
   1  -5  -4   61.12    1.35
  -1   5   4   56.51    1.24
  -1   5   4   53.97    2.44
   1  -5  -4   47.21    1.09
   1  -5  -3  148.29    2.23
  -1   5   3  137.33    2.05
   1  -5  -3  138.64    2.09
   1  -5  -3  141.37    2.14
   1  -5  -2   32.79    0.78
  -1   5   2   27.40    0.67
   1  -5  -2   30.56    0.72
   1  -5  -1    5.23    0.74
  -1   5   1    3.54    0.61
   1  -5  -1    5.01    0.70
   1  -5   0   65.82    1.11
  -1   5   0   68.61    1.17
   1  -5   0   64.57    1.08
   1  -5   0   69.94    1.17
   1  -5   0   59.45    1.07
   1  -5   1   20.17    2.57
  -1   5  -1   21.22    2.70
   1  -5   1   22.73    2.89
   1  -5   1   24.11    3.69
   1  -5   1   16.01    2.22
   1  -5   2   25.35    0.61
  -1   5  -2   22.63    2.87
   1  -5   2   20.44    2.69
   1  -5   2   25.55    0.62
   1  -5   2   16.11    2.21
   1  -5   4  552.00    8.71
  -1   5  -4  564.39    8.81
   1  -5   4  535.52    8.48
  -1   5  -4  535.09    8.35
   1  -5   4  535.71    8.32
   1  -5   4  563.10    8.75
  -1   5  -5  155.41    2.61
   1  -5   5  157.65    2.50
   1  -5   6  595.01    9.45
  -1   5  -6  581.68    9.08
   1  -5   6  575.29    9.15
   1  -5   6  606.20    9.46
  -1   5  -6  597.52    9.37
   1  -5   7  104.21    2.98
   1  -5   7  113.58    2.54
  -1   5  -7  107.03    2.48
  -1   5  -8    3.98    0.57
   1  -5   9   11.21    1.52
   1  -5   9   14.96    0.75
  -1   5  -9   14.73    0.84
   1  -5  10    0.28    0.24
  -1   5 -10    0.35    0.30
  -1   5 -11    7.99    0.64
   1  -5  11    9.43    0.57
  -1   5 -11    8.97    0.62
  -1   5 -12   44.46    1.54
   1  -5  12   44.25    1.55
  -1   5 -12   48.69    1.75
   1  -5  13  236.97    1.86
  -1   5 -14  540.31  132.11
  -1   5 -15  192.26    4.99
  -1   5 -16   96.20    3.69
  -1   5 -17   -0.13    0.30
  -1   5 -18   52.12    2.46
  -1   5 -19    2.18    0.42
   1  -4 -20    1.22    0.38
  -1   4  20    0.58    0.36
   1  -4 -19   13.27    1.68
  -1   4  19   12.92    2.07
   1  -4 -18    0.54    0.42
  -1   4  18    0.81    0.46
   1  -4 -17    3.81    0.73
  -1   4  17    3.18    0.68
   1  -4 -16    2.28    0.62
  -1   4  16    0.58    0.42
   1  -4 -16    0.83    0.31
   1  -4 -15   14.33    0.88
  -1   4  15   16.73    1.65
   1  -4 -15   17.16    0.93
   1  -4 -14   12.02    0.82
  -1   4  14   11.08    1.23
   1  -4 -14    9.72    0.81
   1  -4 -13    2.43    0.51
  -1   4  13    1.37    0.28
   1  -4 -13    0.86    0.19
   1  -4 -12  227.89    5.05
  -1   4  12  215.16    5.37
   1  -4 -12  201.17    4.37
   1  -4 -11   51.85    1.41
  -1   4  11   48.14    1.57
   1  -4 -11   44.99    1.40
   1  -4 -10  236.59    4.12
  -1   4  10  228.59    4.45
   1  -4 -10  211.69    3.42
   1  -4  -9   66.64    1.45
  -1   4   9   61.98    1.48
   1  -4  -9   59.71    0.92
   1  -4  -8   31.04    0.86
  -1   4   8   34.62    2.14
   1  -4  -7    8.93    1.36
  -1   4   7    8.98    1.54
   1  -4  -6    3.11    0.48
  -1   4   6    1.83    0.31
  -1   4   6    2.30    0.41
   1  -4  -6    1.36    0.25
   1  -4  -5    0.99    0.23
  -1   4   5    1.52    0.37
  -1   4   5    2.03    0.45
   1  -4  -5    1.59    0.37
   1  -4  -4   15.06    1.70
  -1   4   4   21.63    0.66
  -1   4   4   15.25    2.22
   1  -4  -4   15.02    1.69
   1  -4  -3  141.81    2.31
  -1   4   3  144.85    2.64
  -1   4   3  144.04    2.56
   1  -4  -3  145.09    2.32
   1  -4  -2  114.73    1.92
  -1   4   2  105.71    1.74
   1  -4  -2  111.94    1.82
   1  -4  -1   11.91    0.45
  -1   4   1    9.74    0.41
   1  -4  -1    8.41    0.36
   1  -4  -1    9.57    0.42
   1  -4   0  239.31    2.98
  -1   4   0  241.36    2.99
   1  -4   0  231.68    3.29
   1  -4   0  228.67    2.84
   1  -4   1   46.17    0.82
  -1   4  -1   45.31    0.80
   1  -4   1   45.67    0.97
   1  -4   1   46.37    0.81
   1  -4   1   45.49    0.79
   1  -4   2    1.09    0.24
  -1   4  -2    3.03    0.56
   1  -4   2    0.97    0.23
   1  -4   2    1.24    0.28
  -1   4  -2    0.60    0.15
   1  -4   2    2.31    0.47
   1  -4   3   61.67    1.10
  -1   4  -3   60.71    1.09
   1  -4   3   61.90    1.37
   1  -4   3   62.79    1.12
  -1   4  -3   60.63    1.05
   1  -4   3   58.34    1.23
   1  -4   3   60.49    1.03
   1  -4   4    7.79    1.28
  -1   4  -4    6.10    0.73
   1  -4   4    8.16    1.03
   1  -4   4   10.38    1.17
  -1   4  -4    6.75    0.90
   1  -4   4    5.95    0.67
   1  -4   5   89.69    1.85
  -1   4  -5   84.00    1.43
   1  -4   5   84.57    1.41
   1  -4   5   86.93    1.48
  -1   4  -5   88.68    2.34
   1  -4   5   85.36    1.44
   1  -4   5   83.15    1.23
   1  -4   5   83.56    1.23
   1  -4   6   22.23    1.29
  -1   4  -6   19.81    2.17
   1  -4   6   19.62    2.14
  -1   4  -6   19.16    2.10
  -1   4  -6   18.91    2.09
   1  -4   6   18.67    2.05
   1  -4   7    3.46    0.59
  -1   4  -7    1.09    0.23
   1  -4   7    2.31    0.40
  -1   4  -7    1.50    0.32
  -1   4  -7    2.19    0.40
   1  -4   7    2.28    0.40
   1  -4   8    1.16    0.28
  -1   4  -8    0.51    0.25
   1  -4   8    0.20    0.21
  -1   4  -8    1.07    0.33
  -1   4  -8    1.82    0.46
   1  -4   8    0.92    0.28
   1  -4   9   11.51    1.69
  -1   4  -9    8.72    1.17
   1  -4   9   11.39    1.52
  -1   4  -9   10.10    1.35
  -1   4  -9   10.65    1.44
   1  -4  10    1.42    0.33
  -1   4 -10    1.25    0.35
   1  -4  10    2.29    0.54
  -1   4 -10    1.97    0.47
  -1   4 -10    1.98    0.64
   1  -4  11    0.45    0.26
   1  -4  11    0.31    0.39
  -1   4 -11   -0.41    0.26
   1  -4  12   52.23    1.48
  -1   4 -12   47.28    1.40
  -1   4 -13    5.56    0.72
   1  -4  13    5.81    0.79
  -1   4 -13    5.89    0.80
  -1   4 -14   56.39    1.83
   1  -4  14   57.76    1.92
  -1   4 -14   58.53    1.99
  -1   4 -15    0.17    0.20
   1  -4  15    0.76    0.36
  -1   4 -15    1.10    0.52
  -1   4 -16  597.58    3.75
  -1   4 -17   98.44    5.19
   1  -4  17  109.21    5.78
  -1   4 -17  108.59    5.89
  -1   4 -18   70.58    2.04
   1  -4  18   72.99    2.16
  -1   4 -18   70.40    4.71
  -1   4 -19    1.36    0.45
   1  -4  19    0.68    0.45
  -1   4 -19    0.33    0.32
  -1   4 -20   18.22    1.07
   1  -4  20   19.54    1.14
  -1   4 -20   19.52    1.25
  -1   4 -21    1.93    0.48
   1  -3 -22    2.28    0.53
   1  -3 -21   11.65    1.57
  -1   3  21   10.35    1.58
   1  -3 -21   10.23    1.34
   1  -3 -20    0.88    0.48
  -1   3  20    3.09    0.95
   1  -3 -20    1.22    0.47
   1  -3 -19   15.76    1.00
  -1   3  19   16.85    1.16
   1  -3 -19   12.14    0.69
   1  -3 -18   20.66    1.04
  -1   3  18   22.44    1.08
   1  -3 -18   21.10    0.83
   1  -3 -17   24.88    1.29
  -1   3  17   24.96    1.31
   1  -3 -17   22.44    0.98
   1  -3 -16   41.03    1.66
  -1   3  16   45.58    1.80
   1  -3 -16   41.19    1.40
   1  -3 -15    0.71    0.36
  -1   3  15    0.67    0.38
   1  -3 -15    0.34    0.24
   1  -3 -14    1.70    0.50
  -1   3  14    2.22    0.67
   1  -3 -14    1.19    0.28
   1  -3 -13    5.35    0.94
  -1   3  13    5.53    0.98
   1  -3 -13    5.55    0.89
   1  -3 -12    6.14    0.97
  -1   3  12    7.14    1.27
   1  -3 -12    6.18    0.86
  -1   3  12    5.24    0.73
   1  -3 -11    2.67    0.55
  -1   3  11    2.91    0.58
   1  -3 -11    2.41    0.43
  -1   3  11    1.80    0.32
   1  -3 -10   -0.13    0.28
  -1   3  10    0.83    0.41
   1  -3 -10    0.20    0.14
  -1   3  10    0.29    0.21
   1  -3  -9  217.10    3.46
  -1   3   9  211.76    3.95
   1  -3  -9  225.55    3.34
  -1   3   9  189.40    2.84
   1  -3  -8   63.60    1.30
  -1   3   8   68.08    1.43
   1  -3  -8   62.62    1.09
  -1   3   8   62.52    0.95
   1  -3  -7 1935.89  206.01
  -1   3   7 1830.69   20.81
  -1   3   7 1994.54  212.27
   1  -3  -7 1831.47   20.85
   1  -3  -7 1979.16  210.58
  -1   3   7 1919.52   21.58
  -1   3   6  193.02    2.84
   1  -3  -6  172.93    2.09
   1  -3  -6  186.90    1.91
  -1   3   6  184.84    1.90
   1  -3  -5    2.47    0.27
  -1   3   5    2.78    0.28
   1  -3  -5    2.67    0.31
   1  -3  -5    2.83    0.19
   1  -3  -4  471.33    4.83
  -1   3   4  477.68    5.14
  -1   3   4  476.62    4.92
   1  -3  -4  472.73    4.93
   1  -3  -3  179.75    1.69
  -1   3   3  183.54    1.71
  -1   3   3  188.74    2.29
   1  -3  -3  185.21    1.73
   1  -3  -2  119.40    1.30
  -1   3   2  122.03    1.27
  -1   3   2  119.37    1.75
   1  -3  -2  121.04    1.27
   1  -3  -1   15.46    0.50
  -1   3   1   15.18    0.45
   1  -3  -1   14.26    0.70
  -1   3   0  872.15    6.11
   1  -3   0  872.49    6.18
   1  -3   0  906.53    6.36
   1  -3   1   46.50    0.68
  -1   3  -1   47.09    0.69
   1  -3   1   52.09    0.92
   1  -3   1   46.74    0.70
  -1   3  -1   46.41    0.50
   1  -3   2    1.07    0.28
  -1   3  -2    1.29    0.28
   1  -3   2    1.07    0.20
   1  -3   2    0.40    0.21
  -1   3  -2    0.33    0.16
   1  -3   2    0.65    0.12
   1  -3   3   25.08    0.56
  -1   3  -3   22.35    0.49
   1  -3   3   23.03    0.46
   1  -3   3   22.73    0.50
  -1   3  -3   21.34    0.46
   1  -3   3   24.22    0.40
   1  -3   4   73.76    1.42
  -1   3  -4   70.45    1.00
  -1   3  -4   71.61    1.01
  -1   3  -4   72.93    1.06
   1  -3   4   68.10    0.92
   1  -3   4   68.96    0.80
   1  -3   5   16.82    0.84
  -1   3  -5   13.94    0.47
   1  -3   5   14.08    0.51
  -1   3  -5   14.22    0.47
  -1   3  -5   12.69    0.48
   1  -3   5   12.48    0.39
   1  -3   5   13.80    0.35
  -1   3  -6   69.45    1.03
   1  -3   6   78.11    1.15
  -1   3  -6   73.28    1.19
  -1   3  -6   75.13    1.20
   1  -3   6   73.87    1.08
   1  -3   7    0.49    0.25
  -1   3  -7    0.79    0.33
   1  -3   7    0.66    0.29
  -1   3  -7    0.64    0.27
  -1   3  -7    0.11    0.20
   1  -3   7    0.05    0.16
   1  -3   8  161.89    3.18
  -1   3  -8  161.65    2.21
   1  -3   8  161.48    2.23
  -1   3  -8  167.19    2.26
   1  -3   8  146.61    2.06
   1  -3   9  103.07    2.31
  -1   3  -9   98.15    1.70
   1  -3   9  101.36    1.77
  -1   3  -9   96.74    2.27
   1  -3  10    0.18    0.18
  -1   3 -10    0.80    0.23
   1  -3  10    0.37    0.24
  -1   3 -10    0.79    0.28
  -1   3 -10    1.86    0.36
   1  -3  11   11.80    1.84
   1  -3  11   10.36    1.50
  -1   3 -11   10.92    1.62
   1  -3  12   52.51    1.22
  -1   3 -12   45.65    1.17
  -1   3 -13    0.25    0.32
   1  -3  13    0.17    0.30
  -1   3 -13    1.37    0.56
  -1   3 -14   15.23    1.86
   1  -3  14   17.41    0.82
  -1   3 -14   16.34    1.85
  -1   3 -15   -0.17    0.23
   1  -3  15    0.93    0.49
  -1   3 -15    0.30    0.31
  -1   3 -16    0.62    0.24
   1  -3  16    1.88    0.59
  -1   3 -16    1.60    0.42
  -1   3 -17   10.61    0.66
   1  -3  17   11.32    0.76
  -1   3 -17   12.00    0.75
  -1   3 -18    0.74    0.33
   1  -3  18    0.27    0.28
  -1   3 -18    0.90    0.48
  -1   3 -19  115.82    6.09
   1  -3  19  112.84    5.97
  -1   3 -19  122.37    6.49
  -1   3 -20    1.96    0.60
   1  -3  20    2.03    0.63
  -1   3 -20    1.32    0.54
  -1   3 -21    2.48    0.80
   1  -3  21    3.22    0.90
  -1   3 -21    1.77    0.63
  -1   3 -22    2.30    0.62
   1  -3  22    0.31    0.35
  -1   3 -22    0.67    0.41
  -1   3 -23    3.25    0.47
   1  -3  23    2.69    0.47
   1  -2 -24    0.32    0.22
   1  -2 -23   23.44    1.33
   1  -2 -22    1.39    0.60
  -1   2  22    1.01    0.53
   1  -2 -22    2.91    0.83
   1  -2 -21   32.28    1.66
  -1   2  21   32.08    1.63
   1  -2 -21   29.24    1.42
   1  -2 -20   11.91    1.03
  -1   2  20   11.57    1.02
   1  -2 -20    8.67    0.79
   1  -2 -19   17.46    0.92
  -1   2  19   14.27    0.89
   1  -2 -19   12.98    0.68
   1  -2 -18  102.11    3.46
  -1   2  18   89.44    3.01
   1  -2 -18   88.39    2.87
   1  -2 -17   12.10    0.91
  -1   2  17    9.58    0.77
   1  -2 -17    9.93    0.72
   1  -2 -16  360.27    7.82
  -1   2  16  350.39    7.64
   1  -2 -16  364.09    7.75
   1  -2 -15    9.08    1.46
  -1   2  15    6.92    1.18
   1  -2 -15    9.45    1.47
   1  -2 -14  170.92    2.88
  -1   2  14  167.26    2.86
   1  -2 -14  174.30    2.75
   1  -2 -13   51.00    1.25
  -1   2  13   49.32    1.20
   1  -2 -13   45.02    1.65
   1  -2 -12   20.69    2.35
  -1   2  12   21.35    3.05
   1  -2 -12   21.96    1.00
  -1   2  12   16.70    1.85
   1  -2 -11   10.24    1.24
  -1   2  11   10.08    1.28
   1  -2 -11   10.45    1.20
  -1   2  11    9.39    1.08
   1  -2 -10    8.72    0.63
  -1   2  10    5.87    0.49
   1  -2 -10    7.06    0.40
  -1   2  10    6.45    0.35
   1  -2  -9   21.96    0.76
  -1   2   9   20.04    0.75
   1  -2  -9   21.57    0.57
  -1   2   9   25.94    0.70
   1  -2  -8    6.58    0.46
  -1   2   8    6.67    0.40
  -1   2   8    9.19    0.98
   1  -2  -8    6.83    0.44
   1  -2  -8    6.31    0.31
  -1   2   8    6.86    0.39
   1  -2  -7  329.76    2.86
  -1   2   7  325.35    2.78
  -1   2   7  326.15    3.33
   1  -2  -7  320.88    2.76
   1  -2  -7  322.18    2.55
  -1   2   7  336.23    2.70
   1  -2  -6 1960.95   13.39
  -1   2   6 1979.52   13.47
  -1   2   6 1993.19   19.16
   1  -2  -6 2000.66   19.11
   1  -2  -6 1983.31   13.23
  -1   2   6 1997.48   18.89
   1  -2  -5 2195.20   16.23
  -1   2   5 2200.52   16.18
  -1   2   5 2152.42   15.98
   1  -2  -5 2144.32   15.83
   1  -2  -5 2152.00   15.59
  -1   2   5 2175.43   15.76
   1  -2  -4 2757.88   20.13
  -1   2   4 2785.34   20.30
  -1   2   4 2752.09   20.11
   1  -2  -4 2712.42   19.85
   1  -2  -4 2816.90   20.25
  -1   2   4 2866.89   20.61
   1  -2  -3   69.01    0.93
  -1   2   3   72.80    0.96
  -1   2   3   71.11    1.10
   1  -2  -3   70.67    0.94
  -1   2   3   73.79    0.68
   1  -2  -2   83.99    1.00
  -1   2   2   79.88    0.95
  -1   2   2   88.24    1.24
   1  -2  -2   80.87    1.12
  -1   2   2   81.58    0.77
   1  -2  -1  269.01    2.31
  -1   2   1  272.41    2.31
  -1   2   1  276.77    2.69
   1  -2  -1  275.39    2.40
   1  -2   0    1.48    0.23
  -1   2   0    1.29    0.25
   1  -2   0    1.47    0.21
  -1   2   0    0.53    0.14
   1  -2   1  289.81    1.87
  -1   2  -1  289.13    1.86
   1  -2   1  287.24    2.04
   1  -2   1  285.35    1.82
  -1   2  -1  288.91    1.63
   1  -2   1  289.84    1.75
   1  -2   2   72.22    0.89
  -1   2  -2   69.05    0.87
   1  -2   2   71.55    0.89
  -1   2  -2   67.93    0.86
  -1   2  -2   66.51    0.74
   1  -2   2   68.31    0.74
  -1   2  -3 9229.79   66.12
  -1   2  -3 9294.03   60.70
  -1   2  -4  115.31    1.29
   1  -2   4  116.98    1.28
  -1   2  -4  115.53    1.33
   1  -2   4  111.23    1.20
   1  -2   4  114.26    0.98
   1  -2   5 3908.07   28.29
   1  -2   5 4268.68   30.86
   1  -2   6   42.61    1.08
  -1   2  -6   34.87    0.67
   1  -2   6   37.72    0.69
  -1   2  -6   35.51    0.67
  -1   2  -6   34.33    0.69
   1  -2   6   34.97    0.64
   1  -2   7  186.33    1.96
   1  -2   7  186.32    1.78
  -1   2  -7  198.38    1.87
   1  -2   7  190.64    1.81
  -1   2  -7  181.68    1.27
   1  -2   8  141.46    2.15
  -1   2  -8  149.53    1.89
   1  -2   8  136.37    1.71
  -1   2  -8  145.62    1.85
   1  -2   8  143.24    1.82
  -1   2  -8  142.37    1.42
   1  -2   9   43.60    1.80
  -1   2  -9   35.86    1.40
   1  -2   9   41.21    0.87
   1  -2   9   38.15    0.78
  -1   2  -9   40.35    0.51
   1  -2  10   21.34    1.59
  -1   2 -10   17.15    1.31
   1  -2  10   16.88    0.63
  -1   2 -10   16.60    0.82
  -1   2 -10   18.60    0.66
  -1   2 -10   16.89    0.35
   1  -2  11   41.89    2.02
   1  -2  11   38.43    0.98
  -1   2 -11   41.67    1.06
  -1   2 -11   39.39    0.69
   1  -2  12  201.30    4.30
   1  -2  12  196.06    3.23
  -1   2 -12  169.67    2.48
   1  -2  13    0.50    0.44
  -1   2 -13    1.09    0.51
  -1   2 -13    0.72    0.17
  -1   2 -14   67.31    1.48
   1  -2  14   67.00    1.57
  -1   2 -14   63.66    1.44
  -1   2 -14   51.67    1.57
  -1   2 -15   27.56    0.97
   1  -2  15   29.11    1.09
  -1   2 -15   27.20    0.99
  -1   2 -15   17.86    2.74
  -1   2 -16   16.53    1.86
   1  -2  16   17.48    0.86
  -1   2 -16   12.20    1.56
  -1   2 -17   56.14    2.39
   1  -2  17   56.22    2.45
  -1   2 -17   52.15    2.29
  -1   2 -18    5.05    0.53
   1  -2  18    5.90    0.64
  -1   2 -18    7.12    0.72
  -1   2 -19   39.22    1.12
   1  -2  19   42.95    1.17
  -1   2 -19   39.46    1.10
  -1   2 -20   30.31    1.83
   1  -2  20   28.41    1.79
  -1   2 -20   31.65    2.06
  -1   2 -21   50.65    1.76
   1  -2  21   55.86    1.93
  -1   2 -21   53.54    1.86
  -1   2 -22   38.15    4.38
   1  -2  22   39.84    4.61
  -1   2 -22   37.27    4.29
  -1   2 -23    1.49    0.49
   1  -2  23    1.90    0.67
   1  -1 -25    0.61    0.36
   1  -1 -24    0.21    0.37
   1  -1 -24    0.77    0.34
   1  -1 -23    1.03    0.58
  -1   1  23    2.03    0.66
   1  -1 -23    1.58    0.52
   1  -1 -22   38.05    1.83
  -1   1  22   47.26    2.23
   1  -1 -22   42.18    1.92
   1  -1 -21   52.08    1.89
  -1   1  21   48.86    1.82
   1  -1 -21   49.38    1.70
   1  -1 -20   78.60    1.58
  -1   1  20   86.96    1.67
   1  -1 -20   81.77    1.54
   1  -1 -19    7.65    1.34
  -1   1  19   11.15    0.90
   1  -1 -19    5.94    1.05
   1  -1 -18   22.37    1.16
  -1   1  18   20.64    1.17
   1  -1 -18   20.48    0.97
   1  -1 -17    1.23    0.65
  -1   1  17    0.88    0.54
   1  -1 -17    0.99    0.45
   1  -1 -16    4.21    0.78
  -1   1  16    3.52    0.67
   1  -1 -16    3.95    0.72
   1  -1 -15   15.07    2.04
  -1   1  15   14.69    2.00
   1  -1 -15   20.43    3.37
   1  -1 -14   11.43    1.71
  -1   1  14    9.10    1.43
   1  -1 -14   14.17    2.33
   1  -1 -13    2.69    0.46
  -1   1  13    2.09    0.48
   1  -1 -13    2.39    0.43
   1  -1 -12    0.79    0.36
  -1   1  12    0.23    0.33
   1  -1 -12    0.05    0.30
   1  -1 -11 1216.23   14.16
  -1   1  11 1174.22   13.72
   1  -1 -11 1152.57   13.34
  -1   1  11 1207.11   14.38
   1  -1 -10   22.14    0.77
  -1   1  10   21.76    0.76
   1  -1 -10   33.58    1.55
   1  -1  -9    9.74    0.48
  -1   1   9    8.03    0.46
  -1   1   9    8.07    0.57
   1  -1  -9    8.55    0.48
   1  -1  -9   10.37    0.44
  -1   1   9    8.58    0.38
   1  -1  -8    3.25    0.37
  -1   1   8    2.69    0.33
  -1   1   8    2.21    0.37
   1  -1  -8    1.73    0.26
   1  -1  -8    1.98    0.25
  -1   1   8    2.93    0.32
   1  -1  -7    0.06    0.21
  -1   1   7    0.61    0.34
  -1   1   7    0.68    0.37
   1  -1  -7    0.12    0.20
   1  -1  -7    0.01    0.16
  -1   1   7    0.70    0.30
   1  -1  -6   16.97    0.58
  -1   1   6   14.32    0.51
  -1   1   6   15.19    0.59
   1  -1  -6   13.82    0.49
   1  -1  -6   14.83    0.69
  -1   1   6   13.53    0.41
   1  -1  -5    6.43    0.42
  -1   1   5    5.34    0.35
  -1   1   5    9.03    0.95
   1  -1  -5    6.49    0.37
   1  -1  -5    7.59    0.59
  -1   1   5    5.26    0.28
   1  -1  -4  198.39    1.50
  -1   1   4  207.20    1.54
  -1   1   4  201.63    1.87
   1  -1  -4  206.72    1.56
   1  -1  -4  203.22    1.33
  -1   1   4  204.67    1.35
   1  -1  -3  106.69    0.99
  -1   1   3  107.37    0.99
  -1   1   3  109.28    1.46
   1  -1  -3  107.70    1.24
   1  -1  -3  108.46    0.89
  -1   1   3  106.95    0.82
   1  -1  -2  375.64    2.25
  -1   1   2  372.92    2.24
  -1   1   2  378.59    2.41
   1  -1  -2  377.36    2.24
   1  -1  -2  374.03    2.02
  -1   1   2  381.20    2.08
   1  -1  -1   11.71    0.41
  -1   1   1   10.17    0.39
  -1   1   1   11.13    0.51
   1  -1  -1   11.50    0.46
  -1   1   1   12.41    0.48
   1  -1  -1   11.53    0.41
   1  -1   0  302.47    1.87
  -1   1   0  294.10    1.83
   1  -1   0  294.87    1.84
   1  -1   0  288.18    1.79
   1  -1   0  298.77    1.79
   1  -1   1  185.70    1.32
  -1   1  -1  188.04    1.31
   1  -1   1  185.08    1.32
  -1   1  -1  185.37    1.31
   1  -1   1  184.42    1.19
  -1   1  -1  185.47    1.19
   1  -1   2  323.40    1.99
  -1   1  -2  322.14    1.99
   1  -1   2  317.60    1.96
  -1   1  -2  315.80    1.95
  -1   1  -2  305.32    1.79
   1  -1   2  316.99    1.78
  -1   1  -2  318.44    1.79
   1  -1   3   37.75    0.58
  -1   1  -3   37.11    0.63
   1  -1   3   36.61    0.58
  -1   1  -3   36.66    0.59
  -1   1  -3   34.36    0.51
   1  -1   3   35.28    0.42
  -1   1  -3   36.62    0.44
   1  -1   4   46.13    0.99
  -1   1  -4   44.17    0.63
   1  -1   4   44.07    0.65
  -1   1  -4   41.74    0.63
  -1   1  -4   44.47    0.64
   1  -1   4   46.14    0.62
  -1   1  -4   43.90    0.47
   1  -1   5 3539.87   25.64
  -1   1  -5 3584.78   25.98
   1  -1   5 3515.39   17.01
  -1   1  -5 3493.93   17.02
  -1   1  -5 3663.01   26.51
   1  -1   5 3513.24   16.66
  -1   1  -6 9154.61   65.72
   1  -1   6 9999.99   65.48
   1  -1   7 1358.86   10.46
  -1   1  -7 1394.93   10.52
   1  -1   7 1443.10   10.85
  -1   1  -7 1402.84   10.57
  -1   1  -7 1427.75   10.73
   1  -1   7 1410.59   10.57
   1  -1   7 1382.78   10.11
  -1   1  -7 1369.72   10.08
   1  -1   8   36.33    1.50
  -1   1  -8   32.30    1.39
   1  -1   8   34.21    0.77
  -1   1  -8   32.99    0.70
  -1   1  -8   38.27    1.53
   1  -1   8   34.57    0.74
  -1   1  -8   44.05    1.45
   1  -1   9   59.61    1.35
  -1   1  -9   58.07    1.65
   1  -1   9   59.19    0.94
  -1   1  -9   55.45    1.60
  -1   1  -9   71.06    2.03
   1  -1   9   60.34    0.95
  -1   1  -9   56.99    1.17
   1  -1  10   40.76    1.94
  -1   1 -10   32.06    1.33
   1  -1  10   34.91    0.80
  -1   1 -10   32.15    1.11
  -1   1 -10   33.70    0.81
  -1   1 -10   35.47    1.07
   1  -1  11    6.51    0.64
   1  -1  11    4.50    0.41
  -1   1 -11    6.28    0.50
  -1   1 -11    5.69    0.41
   1  -1  12   14.66    0.66
  -1   1 -12   19.88    0.76
  -1   1 -12   15.53    0.96
  -1   1 -13  180.46    3.16
   1  -1  13  199.55    3.41
  -1   1 -13  156.75    3.18
  -1   1 -15  227.73    3.52
   1  -1  15  225.96    3.54
  -1   1 -16   11.16    1.73
   1  -1  16   12.11    1.92
  -1   1 -16   10.08    1.56
  -1   1 -16    8.00    1.37
  -1   1 -17    2.23    0.48
   1  -1  17    1.12    0.37
  -1   1 -17    3.80    0.71
  -1   1 -18    2.18    0.64
   1  -1  18    1.86    0.49
  -1   1 -18    1.70    0.53
  -1   1 -19   28.63    1.24
   1  -1  19   29.57    1.41
  -1   1 -19   31.22    1.40
  -1   1 -20    2.10    0.61
   1  -1  20    1.30    0.50
  -1   1 -20    1.37    0.54
  -1   1 -21   12.68    1.03
   1  -1  21   13.36    1.10
  -1   1 -21   15.63    1.22
  -1   1 -22    2.81    0.76
   1  -1  22    1.11    0.46
  -1   1 -22    3.22    0.82
  -1   1 -23    1.63    0.58
   1  -1  23    2.15    0.77
   1   0 -24    7.22    0.59
   1   0 -23    1.81    0.70
  -1   0  23    0.56    0.36
   1   0 -23    0.69    0.35
   1   0 -23    1.78    0.65
   1   0 -22   15.22    1.02
  -1   0  22   15.58    1.11
   1   0 -22   15.38    1.02
   1   0 -22   14.85    0.89
   1   0 -21    1.38    0.51
  -1   0  21    1.53    0.53
   1   0 -21    1.33    0.52
   1   0 -21    0.95    0.32
   1   0 -20   66.38    1.47
  -1   0  20   60.26    1.58
   1   0 -20   63.82    1.38
   1   0 -19    1.96    0.63
  -1   0  19    1.59    0.56
   1   0 -19    0.87    0.49
   1   0 -18  176.66    6.86
  -1   0  18  159.51    6.21
   1   0 -18  173.44    6.70
   1   0 -17  293.06    6.46
  -1   0  17  288.75    6.39
   1   0 -17  291.20    6.38
   1   0 -16   80.95    1.89
  -1   0  16   81.06    1.95
   1   0 -16   89.95    2.73
   1   0 -15   52.25    3.17
  -1   0  15   45.90    1.34
   1   0 -15   49.86    1.73
   1   0 -14   34.60    2.36
  -1   0  14   34.75    1.00
   1   0 -14   44.94    2.79
   1   0 -13   50.69    1.28
  -1   0  13   50.76    1.31
   1   0 -12   48.82    1.12
  -1   0  12   50.80    1.21
   1   0 -12   69.47    2.71
   1   0 -11  265.65    3.22
  -1   0  11  260.75    3.16
   1   0 -10  204.00    2.56
  -1   0  10  194.60    2.36
  -1   0  10  200.33    2.54
  -1   0  10  180.95    2.19
  -1   0   9  212.82    2.03
  -1   0   9  212.40    2.18
   1   0  -9  207.80    2.05
   1   0  -9  215.71    2.10
  -1   0   9  233.50    2.20
   1   0  -8  420.19    3.60
  -1   0   8  407.69    3.47
  -1   0   8  420.25    3.66
   1   0  -8  406.67    3.51
  -1   0   8  414.25    3.49
   1   0  -7   11.26    0.49
  -1   0   7   10.74    0.42
  -1   0   7   11.36    0.48
   1   0  -7   12.07    0.48
   1   0  -7   10.84    0.43
  -1   0   7   10.44    0.44
   1   0  -6   77.93    0.97
  -1   0   6   76.35    0.92
  -1   0   6   78.19    1.03
   1   0  -6   80.26    1.01
   1   0  -6   76.66    0.92
  -1   0   6   82.85    0.98
   1   0  -5    1.63    0.27
  -1   0   5    1.55    0.22
  -1   0   5    1.32    0.28
   1   0  -5    1.23    0.19
   1   0  -5    1.53    0.30
  -1   0   5    1.44    0.25
   1   0  -5    1.70    0.26
   1   0  -4  177.68    1.34
  -1   0   4  179.47    1.35
  -1   0   4  179.14    1.65
   1   0  -4  177.91    1.37
   1   0  -4  178.43    1.34
  -1   0   4  177.75    1.30
   1   0  -4  180.23    1.37
   1   0  -3  122.07    1.05
  -1   0   3  122.78    1.00
  -1   0   3  122.41    1.11
   1   0  -3  121.08    1.07
   1   0  -3  122.17    1.05
  -1   0   3  127.09    1.07
   1   0  -3  122.64    1.02
   1   0  -2   70.93    0.74
  -1   0   2   70.47    0.71
  -1   0   2   78.01    1.04
   1   0  -2   69.74    0.95
   1   0  -2   71.11    0.68
  -1   0   2   71.42    0.70
   1   0  -2   69.25    0.72
  -1   0   2   71.55    0.70
   1   0  -1 4014.52   28.85
   1   0   0  119.65    0.98
  -1   0   0  123.65    0.94
   1   0   0  118.92    0.96
   1   0   0  130.48    0.98
  -1   0   0  125.71    0.94
   1   0   1  503.68    2.73
  -1   0  -1  500.88    2.73
   1   0   1  496.96    2.71
  -1   0  -1  494.79    2.69
   1   0   1  498.57    2.65
  -1   0  -1  485.66    2.60
   1   0   2    3.80    0.34
  -1   0  -2    3.74    0.27
   1   0   2    3.26    0.28
  -1   0  -2    3.42    0.27
   1   0   2    3.71    0.26
  -1   0  -2    3.34    0.25
   1   0   3  214.99    1.52
   1   0   3  214.64    1.41
  -1   0  -3  209.02    1.38
   1   0   4    3.20    0.52
  -1   0  -4    0.47    0.22
   1   0   4    1.40    0.27
  -1   0  -4    0.22    0.22
  -1   0  -4   -0.05    0.22
   1   0   4    1.71    0.23
  -1   0  -4    0.11    0.15
   1   0   5  219.19    1.63
  -1   0  -5  215.12    1.82
   1   0   5  220.62    1.61
  -1   0  -5  217.48    1.62
  -1   0  -5  212.14    1.56
   1   0   5  219.83    1.48
  -1   0  -5  222.69    1.49
   1   0   6    3.83    0.42
  -1   0  -6    2.97    0.34
   1   0   6    2.28    0.29
  -1   0  -6    2.13    0.26
  -1   0  -6    3.04    0.30
   1   0   6    2.55    0.29
   1   0   6    3.21    0.34
  -1   0  -6    3.03    0.33
   1   0   7  389.59    3.39
  -1   0  -7  378.67    3.29
   1   0   7  378.45    3.30
  -1   0  -7  373.91    3.22
  -1   0  -7  373.90    3.21
   1   0   7  371.77    3.17
   1   0   7  368.93    3.05
  -1   0  -7  372.91    3.07
   1   0   8  841.35    6.78
  -1   0  -8  809.61    6.38
   1   0   8  805.26    6.31
  -1   0  -8  853.50    6.69
  -1   0  -8  863.09    6.71
   1   0   8  840.84    6.54
  -1   0  -8  830.44    6.33
   1   0   9    1.06    0.33
  -1   0  -9    0.50    0.33
   1   0   9    0.35    0.41
  -1   0  -9    0.76    0.28
  -1   0  -9    3.00    0.32
   1   0   9    1.42    0.40
  -1   0  -9    0.09    0.16
  -1   0 -10  413.76    3.57
  -1   0 -10  444.08    3.65
  -1   0 -10  454.54    3.56
   1   0  11  544.39    5.70
  -1   0 -11  536.63    5.70
  -1   0 -11  528.53    5.62
  -1   0 -12   24.44    0.87
   1   0  12   28.66    1.02
  -1   0 -12   25.73    0.81
  -1   0 -12   25.38    1.39
  -1   0 -13  562.09    8.24
   1   0  13  542.63    7.97
  -1   0 -13  536.94    7.73
  -1   0 -14    0.86    0.47
   1   0  14    0.75    0.53
  -1   0 -14    0.93    0.45
  -1   0 -14    0.11    0.17
  -1   0 -15   63.85    1.47
   1   0  15   66.58    1.52
  -1   0 -15   71.22    1.58
  -1   0 -16   28.73    1.00
   1   0  16   24.78    1.04
  -1   0 -16   30.13    1.08
  -1   0 -17   24.38    1.03
   1   0  17   25.42    1.15
  -1   0 -17   25.31    1.05
  -1   0 -18   27.74    1.45
   1   0  18   26.51    1.45
  -1   0 -18   24.64    1.23
  -1   0 -19   60.05    2.05
   1   0  19   58.59    2.15
  -1   0 -19   68.14    2.34
  -1   0 -20   10.65    0.70
   1   0  20   17.32    1.03
  -1   0 -20   14.67    0.89
  -1   0 -21    1.98    0.59
   1   0  21    4.67    1.11
  -1   0 -21    1.79    0.53
  -1   0 -22   58.45    2.00
   1   0  22   55.73    2.00
  -1   0 -23    1.45    0.62
   1   0  23    1.40    0.61
  -1   0 -23    1.93    0.72
   1   1 -23    0.78    0.47
  -1  -1  23    2.64    0.72
   1   1 -22    3.51    0.86
  -1  -1  22    4.05    0.97
   1   1 -22    4.68    1.11
   1   1 -22    2.80    0.67
   1   1 -21    1.63    0.69
  -1  -1  21    0.73    0.42
   1   1 -21    1.32    0.53
   1   1 -20    5.23    0.47
  -1  -1  20    3.64    0.88
   1   1 -20    5.50    0.62
   1   1 -20    4.19    0.90
   1   1 -19   18.41    1.06
  -1  -1  19   20.05    1.09
   1   1 -19   18.42    0.99
   1   1 -19   18.97    0.94
   1   1 -18    0.67    0.51
  -1  -1  18    0.46    0.30
   1   1 -18    1.19    0.42
   1   1 -18    1.44    0.43
   1   1 -17  492.31   10.48
  -1  -1  17  471.29   10.02
   1   1 -17  477.65   10.15
   1   1 -17  487.99   10.24
   1   1 -16   34.08    1.83
  -1  -1  16   38.09    1.26
   1   1 -16   39.05    1.18
   1   1 -15  503.81    7.00
  -1  -1  15  508.11    7.00
   1   1 -15  530.18    7.29
   1   1 -15  529.53    7.19
   1   1 -14  110.42    1.44
  -1  -1  14  107.10    1.86
   1   1 -14  114.31    1.59
   1   1 -14   99.59    1.21
   1   1 -13  126.89    2.30
  -1  -1  13  123.95    2.27
   1   1 -13  113.96    2.12
   1   1 -13  117.28    2.06
   1   1 -12  196.37    2.77
  -1  -1  12  199.63    2.87
   1   1 -12  191.64    2.77
   1   1 -12  188.80    2.57
   1   1 -11   51.77    1.04
  -1  -1  11   61.18    1.28
   1   1 -11   60.12    1.25
   1   1 -11   52.62    1.04
   1   1 -10  190.53    2.35
  -1  -1  10  188.99    2.26
  -1  -1  10  194.61    2.41
   1   1 -10  186.20    2.28
   1   1 -10  172.60    2.19
   1   1 -10  189.81    2.28
   1   1  -9    3.05    0.37
  -1  -1   9    3.30    0.28
  -1  -1   9    3.84    0.40
   1   1  -9    4.11    0.36
   1   1  -9    3.30    0.41
  -1  -1   9    4.32    0.34
   1   1  -9    2.76    0.28
   1   1  -8 2644.75   19.42
   1   1  -8 2819.60   20.71
  -1  -1   8 2579.95   18.95
   1   1  -8 2675.31   19.73
   1   1  -7 1175.22    8.91
  -1  -1   7 1122.56    8.45
  -1  -1   7 1192.86    9.04
   1   1  -7 1102.73    8.35
   1   1  -7 1188.91    9.09
  -1  -1   7 1177.65    8.92
   1   1  -7 1153.11    8.83
  -1  -1   6 6668.22   47.89
  -1  -1   6 6773.83   48.69
   1   1  -6 6474.14   46.54
  -1  -1   6 6597.91   47.46
   1   1  -6 6776.60   48.75
   1   1  -5 1600.54    8.00
  -1  -1   5 1607.18    7.99
  -1  -1   5 1603.78    8.04
   1   1  -5 1605.41    8.03
   1   1  -5 1611.34    8.16
  -1  -1   5 1615.22    8.15
   1   1  -5 1605.55    8.03
  -1  -1   5 1609.01    7.97
   1   1  -4   79.16    0.80
  -1  -1   4   75.01    0.75
  -1  -1   4   79.87    0.90
   1   1  -4   79.08    0.80
   1   1  -4   77.84    0.96
  -1  -1   4   77.67    0.84
   1   1  -4   76.57    0.81
  -1  -1   4   78.00    0.76
   1   1  -3  167.05    1.18
  -1  -1   3  170.77    1.18
  -1  -1   3  168.06    1.25
   1   1  -3  166.97    1.19
   1   1  -3  171.95    1.58
   1   1  -3  171.21    1.27
  -1  -1   3  169.97    1.22
   1   1  -2   58.96    0.59
  -1  -1   2   60.94    0.59
  -1  -1   2   61.87    0.80
   1   1  -2   59.55    0.64
   1   1  -2   62.63    1.02
  -1  -1   2   61.78    0.76
   1   1  -2   62.98    0.70
  -1  -1   2   62.21    0.66
   1   1  -1  262.58    1.53
  -1  -1   1  266.73    1.54
   1   1  -1  268.28    1.66
   1   1  -1  270.68    1.83
  -1  -1   1  268.19    1.69
   1   1  -1  259.00    1.60
  -1  -1   1  263.62    1.61
   1   1   0   60.48    0.60
  -1  -1   0   58.37    0.56
   1   1   0   61.44    0.60
  -1  -1   0   62.17    0.58
  -1  -1   0   58.33    0.70
   1   1   0   58.94    0.65
  -1  -1   0   59.36    0.64
   1   1   1  773.77    3.94
  -1  -1  -1  772.30    3.92
   1   1   1  793.17    4.04
  -1  -1  -1  778.80    3.95
   1   1   1  790.50    4.11
  -1  -1  -1  791.23    4.12
   1   1   3 1116.24    5.67
  -1  -1  -3 1141.96    5.78
   1   1   3 1130.73    5.73
  -1  -1  -3 1142.09    5.77
   1   1   3 1097.15    5.62
  -1  -1  -3 1115.91    5.71
   1   1   4   14.59    0.58
  -1  -1  -4   14.56    0.65
   1   1   4   14.04    0.48
  -1  -1  -4   12.54    0.44
   1   1   4   17.08    0.69
  -1  -1  -4   13.99    0.64
   1   1   5  181.37    1.52
  -1  -1  -5  180.13    1.54
   1   1   5  183.61    1.46
  -1  -1  -5  181.09    1.41
  -1  -1  -5  188.42    1.48
   1   1   5  183.62    1.48
  -1  -1  -5  182.97    1.45
   1   1   6    9.67    0.64
  -1  -1  -6   11.74    1.15
   1   1   6    6.41    0.38
  -1  -1  -6    7.08    0.38
  -1  -1  -6    7.42    0.38
   1   1   6   10.48    0.67
  -1  -1  -6    8.76    0.66
   1   1   7  110.39    1.81
  -1  -1  -7  104.52    1.68
   1   1   7  101.96    1.28
  -1  -1  -7  104.74    1.24
  -1  -1  -7  103.78    1.27
   1   1   7  107.41    1.27
  -1  -1  -7  106.77    1.56
   1   1   8   46.68    1.08
  -1  -1  -8   46.80    1.81
   1   1   8   46.41    0.93
  -1  -1  -8   43.55    0.79
  -1  -1  -8   42.48    0.83
  -1  -1  -9  129.58    1.93
   1   1   9  127.25    1.50
  -1  -1  -9  126.77    1.47
  -1  -1  -9  124.37    1.45
  -1  -1  -9  124.35    2.17
  -1  -1 -10   14.65    1.00
  -1  -1 -10   14.10    0.56
   1   1  10   14.41    0.73
  -1  -1 -10   14.35    0.57
  -1  -1 -10   14.74    0.53
   1   1  10   14.40    0.59
  -1  -1 -10   14.16    0.79
  -1  -1 -11 1082.29   10.71
   1   1  11 1142.77   11.35
  -1  -1 -11 1032.67   10.43
  -1  -1 -11 1052.32   10.54
  -1  -1 -12   74.43    1.43
   1   1  12   75.27    1.46
  -1  -1 -12   75.01    1.44
  -1  -1 -13   38.91    1.10
   1   1  13   41.07    1.17
  -1  -1 -13   38.76    1.05
  -1  -1 -14   93.07    1.42
   1   1  14   89.62    1.40
  -1  -1 -14   88.35    1.32
  -1  -1 -15    8.74    1.23
   1   1  15    8.88    1.29
  -1  -1 -15   10.71    1.47
  -1  -1 -16    6.83    1.10
   1   1  16    5.30    0.92
  -1  -1 -16    8.36    1.37
  -1  -1 -17    1.50    0.48
   1   1  17    1.01    0.43
  -1  -1 -17    0.89    0.47
  -1  -1 -18   52.57    2.31
   1   1  18   50.09    2.24
  -1  -1 -18   51.49    2.23
  -1  -1 -19    4.73    0.71
   1   1  19    5.73    0.72
  -1  -1 -19    5.89    0.68
   1   1  20  810.93  108.00
  -1  -1 -21  175.73    9.22
   1   1  21  176.42    9.28
  -1  -1 -21  184.17    9.64
  -1  -1 -22  164.18    6.06
   1   1  22  163.23    6.07
  -1  -1 -22  172.70    6.36
  -1  -1 -23    2.87    0.86
   1   1  23    3.75    1.55
  -1  -1 -23    1.14    0.48
  -1  -1 -24    1.19    0.61
   1   2 -24    1.12    0.32
  -1  -2  24    1.24    0.39
   1   2 -23    2.78    0.61
  -1  -2  23    3.83    0.84
   1   2 -22   31.98    3.71
  -1  -2  22   32.44    3.78
   1   2 -22   28.94    3.40
   1   2 -21   95.82    3.70
  -1  -2  21   98.84    3.88
   1   2 -21   96.97    3.80
   1   2 -20   21.19    1.39
  -1  -2  20   21.22    1.42
   1   2 -20   28.26    1.79
   1   2 -19   22.81    0.94
  -1  -2  19   22.37    0.95
   1   2 -19   25.35    1.07
   1   2 -19   19.20    0.66
   1   2 -18    3.53    0.50
  -1  -2  18    3.48    0.51
   1   2 -18    2.22    0.55
   1   2 -18    3.09    0.38
   1   2 -17   16.93    1.40
  -1  -2  17   16.62    1.06
   1   2 -17   14.59    0.98
   1   2 -17   15.00    0.82
   1   2 -16    8.51    1.28
  -1  -2  16    9.13    1.28
   1   2 -16    7.32    1.04
   1   2 -16    4.96    0.70
   1   2 -15    5.34    0.89
  -1  -2  15    5.16    0.87
   1   2 -15    5.41    0.93
   1   2 -15    4.60    0.74
   1   2 -14  195.82    3.20
  -1  -2  14  193.01    3.21
   1   2 -14  184.26    2.96
   1   2 -14  192.13    2.82
   1   2 -13   38.43    0.92
  -1  -2  13   39.07    1.02
   1   2 -13   36.70    0.93
   1   2 -13   39.04    0.75
   1   2 -12   10.96    1.28
  -1  -2  12   11.42    1.36
   1   2 -12   10.31    1.23
   1   2 -12   11.87    1.36
   1   2 -11   30.60    1.56
   1   2 -11   31.83    0.80
  -1  -2  11   34.18    1.14
   1   2 -11   33.85    0.84
   1   2 -11   34.74    0.96
   1   2 -11   32.61    0.77
   1   2 -10   32.35    1.74
   1   2 -10   32.59    0.79
  -1  -2  10   37.14    1.48
   1   2 -10   31.85    0.76
   1   2 -10   32.06    0.84
   1   2 -10   32.89    0.71
   1   2  -9   50.91    0.93
  -1  -2   9   52.13    0.96
   1   2  -9   50.85    0.90
   1   2  -9   51.78    0.86
   1   2  -8   29.65    0.67
  -1  -2   8   29.03    0.86
  -1  -2   8   30.12    0.68
   1   2  -8   29.06    0.65
   1   2  -8   28.18    0.72
  -1  -2   8   27.58    0.67
   1   2  -8   28.59    0.58
   1   2  -7  128.22    1.33
  -1  -2   7  128.61    1.28
  -1  -2   7  131.72    1.38
   1   2  -7  126.26    1.31
  -1  -2   7  127.19    1.42
   1   2  -7  125.18    1.24
  -1  -2   6  208.37    1.87
  -1  -2   6  219.71    2.00
   1   2  -6  214.42    1.96
   1   2  -6  214.29    2.29
  -1  -2   6  213.37    2.04
   1   2  -6  216.39    1.93
  -1  -2   6  219.74    1.91
  -1  -2   5 9025.90   64.60
   1   2  -5 8790.91   62.94
  -1  -2   5 8753.67   62.85
   1   2  -4   40.51    0.60
  -1  -2   4   42.79    0.58
  -1  -2   4   41.20    0.66
   1   2  -4   41.01    0.61
   1   2  -4   42.74    0.79
  -1  -2   4   42.88    0.74
   1   2  -4   40.11    0.66
  -1  -2   4   43.00    0.61
   1   2  -3 2822.88   13.94
  -1  -2   3 2845.39   13.85
  -1  -2   3 2764.72   13.34
   1   2  -2   17.03    0.28
  -1  -2   2   18.66    0.28
   1   2  -2   17.52    0.30
   1   2  -2   18.48    0.60
  -1  -2   2   20.08    0.93
   1   2  -2   21.46    0.99
  -1  -2   2   17.47    0.38
   1   2  -1    3.53    0.15
  -1  -2   1    4.78    0.16
   1   2  -1    6.06    0.39
   1   2  -1    3.47    0.15
   1   2  -1    5.43    0.52
  -1  -2   1    6.30    0.65
   1   2  -1    6.98    0.60
  -1  -2   1    4.05    0.26
   1   2   0  170.92    1.13
  -1  -2   0  172.04    1.01
   1   2   0  172.90    1.03
  -1  -2   0  171.91    1.01
  -1  -2   0  176.19    1.32
   1   2   0  174.33    1.34
  -1  -2   0  173.72    1.28
   1   2   1    0.45    0.14
  -1  -2  -1    0.39    0.17
   1   2   1    0.41    0.15
  -1  -2  -1    0.36    0.14
  -1  -2  -1    0.16    0.09
   1   2   1    0.14    0.14
  -1  -2  -1    0.52    0.16
   1   2   2   99.58    0.87
  -1  -2  -2  100.72    0.84
   1   2   2  101.29    0.81
  -1  -2  -2   98.30    0.77
   1   2   2  100.12    1.23
  -1  -2  -2   99.50    1.07
   1   2   3   80.46    0.90
  -1  -2  -3   82.90    1.05
   1   2   3   80.17    0.81
  -1  -2  -3   84.73    0.99
   1   2   3   83.68    1.03
  -1  -2  -3   86.80    1.36
   1   2   4 2347.70   11.53
   1   2   4 2419.43   11.83
  -1  -2  -4 2405.97   11.73
   1   2   4 2347.92   11.75
   1   2   5    0.80    0.39
  -1  -2  -5    0.12    0.17
   1   2   5    0.40    0.43
  -1  -2  -5    0.64    0.26
   1   2   5    0.05    0.19
  -1  -2  -5    0.55    0.23
  -1  -2  -6   26.22    0.69
   1   2   6   29.66    0.69
  -1  -2  -6   26.57    0.58
  -1  -2  -6   26.88    0.59
   1   2   6   26.54    0.69
  -1  -2  -6   27.05    0.77
  -1  -2  -7  369.93    3.26
  -1  -2  -7  373.44    3.28
  -1  -2  -7  365.68    3.15
  -1  -2  -7  368.07    3.15
  -1  -2  -7  361.45    3.45
  -1  -2  -8  221.44    2.11
  -1  -2  -8  205.70    1.96
   1   2   8  212.70    2.08
  -1  -2  -8  215.16    2.06
  -1  -2  -8  213.62    2.03
  -1  -2  -8  207.83    2.06
  -1  -2  -9  107.95    2.17
  -1  -2  -9  114.61    1.62
   1   2   9  110.65    1.69
  -1  -2  -9  110.35    1.57
  -1  -2 -10   76.98    1.29
   1   2  10   81.58    1.39
  -1  -2 -10   70.14    1.13
  -1  -2 -11    1.01    0.33
   1   2  11    1.51    0.50
  -1  -2 -11    1.46    0.40
  -1  -2 -12   20.00    2.24
   1   2  12   19.10    2.17
  -1  -2 -12   30.03    1.05
  -1  -2 -13    9.75    1.47
   1   2  13    7.46    1.18
  -1  -2 -13    8.87    1.33
  -1  -2 -14   46.95    1.08
   1   2  14   46.06    1.08
  -1  -2 -14   46.46    0.94
  -1  -2 -15    0.02    0.27
   1   2  15    1.52    0.58
  -1  -2 -15    0.19    0.39
  -1  -2 -16   36.91    1.21
   1   2  16   38.53    1.31
  -1  -2 -16   41.20    1.18
  -1  -2 -17   28.32    1.53
   1   2  17   29.91    1.59
  -1  -2 -17   28.14    1.39
  -1  -2 -18   52.87    1.95
   1   2  18   52.04    1.93
  -1  -2 -18   54.53    1.89
  -1  -2 -19    1.60    0.49
   1   2  19    1.92    0.59
  -1  -2 -19    1.09    0.38
  -1  -2 -20   24.02    1.06
   1   2  20   26.51    1.11
  -1  -2 -20   25.48    0.93
  -1  -2 -21   69.56    2.25
   1   2  21   76.18    2.44
  -1  -2 -21   66.72    2.10
  -1  -2 -22   36.86    1.84
   1   2  22   38.04    1.90
  -1  -2 -22   33.93    1.66
  -1  -2 -23  193.98    8.12
   1   2  23  188.20    7.90
  -1  -2 -23  185.88    7.73
  -1  -2 -24    2.81    0.67
   1   3 -23    1.10    0.41
  -1  -3  23    0.79    0.27
   1   3 -22    1.47    0.46
  -1  -3  22    0.69    0.40
   1   3 -22    1.36    0.49
   1   3 -21   27.74    3.22
  -1  -3  21   28.60    3.34
   1   3 -21   33.21    3.88
   1   3 -20    7.41    0.61
  -1  -3  20    5.93    0.61
   1   3 -20    6.56    0.74
   1   3 -19   42.67    2.43
  -1  -3  19   39.48    2.30
   1   3 -19   43.69    2.59
   1   3 -18    7.64    0.56
  -1  -3  18    6.78    0.48
   1   3 -18    7.29    0.58
   1   3 -17    2.35    0.55
  -1  -3  17    2.99    0.61
   1   3 -17    2.38    0.50
   1   3 -17    1.50    0.31
   1   3 -16  104.66    4.11
  -1  -3  16  103.46    4.07
   1   3 -16  102.31    4.11
   1   3 -16  105.59    4.03
   1   3 -15    1.33    0.46
  -1  -3  15    0.38    0.26
   1   3 -15    0.75    0.32
   1   3 -15    0.33    0.21
   1   3 -14  263.55    4.46
  -1  -3  14  276.66    4.67
   1   3 -14  285.94    4.63
   1   3 -13   -0.08    0.21
  -1  -3  13    0.58    0.24
   1   3 -13    0.52    0.35
   1   3 -13    0.25    0.18
  -1  -3  12  526.06    2.58
   1   3 -12  556.66    2.15
   1   3 -11  139.54    1.77
   1   3 -11  136.22    1.50
  -1  -3  11  144.88    1.41
   1   3 -11  149.97    1.38
   1   3 -11  144.78    1.66
   1   3 -11  144.37    1.10
   1   3  -9    6.54    0.50
   1   3  -9    5.70    0.34
  -1  -3   9    7.40    0.42
   1   3  -9    6.32    0.37
   1   3  -9    9.81    1.06
   1   3  -9    5.88    0.33
   1   3  -8   22.70    1.12
   1   3  -8   21.34    0.55
  -1  -3   8   23.48    0.58
   1   3  -8   21.93    0.55
   1   3  -8   27.51    1.83
   1   3  -8   23.23    0.53
   1   3  -7   17.33    1.00
   1   3  -7   16.30    0.44
  -1  -3   7   17.03    0.47
   1   3  -7   15.54    0.42
   1   3  -7   24.53    1.83
  -1  -3   7   17.38    0.54
   1   3  -7   17.56    0.44
  -1  -3   7   18.07    0.42
   1   3  -6   37.88    1.54
   1   3  -6   37.09    0.60
  -1  -3   6   42.52    1.26
   1   3  -6   39.41    0.62
   1   3  -6   41.78    1.40
  -1  -3   6   39.91    0.84
   1   3  -6   42.03    1.07
  -1  -3   6   41.54    0.63
   1   3  -5    0.42    0.09
   1   3  -5    0.69    0.11
  -1  -3   5    0.50    0.14
   1   3  -5    0.52    0.15
   1   3  -5    1.09    0.31
  -1  -3   5    0.48    0.29
   1   3  -5    1.01    0.24
  -1  -3   5    0.56    0.11
   1   3  -4   62.03    0.82
  -1  -3   4   65.47    0.63
   1   3  -4   61.29    0.59
   1   3  -4   63.80    1.42
  -1  -3   4   64.58    1.02
   1   3  -4   61.75    0.85
  -1  -3   4   65.66    0.76
   1   3  -3   86.71    0.65
   1   3  -3   88.00    1.59
  -1  -3   3   89.67    1.01
   1   3  -3   89.70    1.34
  -1  -3   3   88.72    0.93
   1   3  -2   30.00    1.08
  -1  -3   2   31.67    0.56
   1   3  -2   31.95    0.95
  -1  -3   2   30.85    0.53
   1   3  -1  399.58    3.30
  -1  -3   1  414.68    3.34
   1   3  -1  410.50    3.40
  -1  -3   1  411.38    3.34
  -1  -3   0 1954.92   14.29
   1   3   0 1845.32   13.58
  -1  -3   0 1853.49   13.63
  -1  -3  -1   19.47    0.31
  -1  -3  -1   17.75    0.29
  -1  -3  -1   18.58    0.30
  -1  -3  -1   19.38    0.78
   1   3   1   20.15    1.06
  -1  -3  -1   20.48    1.25
  -1  -3  -2  301.09    2.39
  -1  -3  -2  283.35    2.23
   1   3   2  286.96    2.28
  -1  -3  -2  307.06    2.42
  -1  -3  -2  283.70    2.40
   1   3   2  298.53    2.88
  -1  -3  -2  285.59    2.68
  -1  -3  -3  445.10    3.26
  -1  -3  -3  444.64    3.18
   1   3   3  450.99    3.26
  -1  -3  -3  451.91    3.29
   1   3   3  448.02    3.61
  -1  -3  -3  444.33    3.70
  -1  -3  -4   27.40    1.02
  -1  -3  -4   24.70    0.46
   1   3   4   22.61    0.44
  -1  -3  -4   28.72    0.57
   1   3   4   29.66    0.86
  -1  -3  -4   27.89    1.03
  -1  -3  -5  334.21    2.88
  -1  -3  -5  332.93    2.61
   1   3   5  344.92    2.75
  -1  -3  -5  333.83    2.61
   1   3   5  336.20    2.88
  -1  -3  -5  335.78    3.06
  -1  -3  -6   41.39    1.34
  -1  -3  -6   40.16    0.68
   1   3   6   40.30    0.75
  -1  -3  -6   43.18    0.75
  -1  -3  -6   42.76    0.73
  -1  -3  -6   40.95    1.14
  -1  -3  -7   64.60    1.31
  -1  -3  -7   62.20    1.00
   1   3   7   63.99    1.08
  -1  -3  -7   68.66    1.12
  -1  -3  -7   65.31    1.03
  -1  -3  -8   57.69    1.38
  -1  -3  -8   58.00    1.02
   1   3   8   56.35    1.06
  -1  -3  -8   58.15    1.02
  -1  -3  -8   55.95    0.94
  -1  -3  -9  296.91    3.79
  -1  -3  -9  326.21    4.07
   1   3   9  330.20    4.17
  -1  -3  -9  281.57    3.59
  -1  -3  -9  292.41    3.71
  -1  -3 -10  108.58    1.93
   1   3  10  102.56    1.89
  -1  -3 -10  109.51    1.87
  -1  -3 -11  184.14    3.01
   1   3  11  182.72    3.07
  -1  -3 -12    0.74    0.42
   1   3  12    1.06    0.42
  -1  -3 -12    0.94    0.45
  -1  -3 -13   36.48    1.22
   1   3  13   31.18    1.06
  -1  -3 -13   30.14    0.86
  -1  -3 -14    2.81    0.53
   1   3  14    2.03    0.46
  -1  -3 -14    2.04    0.60
  -1  -3 -15   33.51    1.22
   1   3  15   35.07    1.32
  -1  -3 -15   38.60    1.28
  -1  -3 -16   16.04    1.03
   1   3  16   15.82    1.02
  -1  -3 -16   22.04    1.39
  -1  -3 -17    3.76    0.54
  -1  -3 -17    4.07    0.51
  -1  -3 -18    0.79    0.47
   1   3  18    1.65    0.56
  -1  -3 -18    1.74    0.62
  -1  -3 -19    0.93    0.38
   1   3  19    2.81    0.85
  -1  -3 -19    1.13    0.34
  -1  -3 -20    1.62    0.57
   1   3  20    2.33    0.81
  -1  -3 -20    2.26    0.77
  -1  -3 -21    1.23    0.51
   1   3  21    2.03    0.66
  -1  -3 -21    1.39    0.42
  -1  -3 -22   -0.07    0.30
   1   3  22    1.04    0.55
  -1  -3 -22    1.47    0.50
  -1  -3 -23    0.24    0.26
  -1  -3 -24    0.85    0.36
   1   4 -20    0.95    0.38
   1   4 -20    1.71    0.57
   1   4 -19   16.26    0.95
  -1  -4  19   13.55    0.90
   1   4 -19   19.99    2.08
   1   4 -18   68.78    2.01
  -1  -4  18   70.48    2.08
   1   4 -18   59.80    4.92
   1   4 -17  156.79    8.15
  -1  -4  17  158.14    8.22
   1   4 -17  159.60    8.78
   1   4 -16  539.03    2.78
  -1  -4  16  543.28    2.80
   1   4 -15   27.09    1.07
  -1  -4  15   28.81    1.15
   1   4 -15   31.79    2.34
   1   4 -14    3.46    0.49
  -1  -4  14    3.50    0.49
   1   4 -14    4.98    0.73
   1   4 -13   34.31    1.02
  -1  -4  13   32.05    0.99
   1   4 -13   39.99    2.59
   1   4 -12   38.23    2.38
   1   4 -12   50.83    1.31
  -1  -4  12   48.56    1.08
   1   4 -12   47.67    1.24
   1   4 -12   59.03    3.56
   1   4 -12   54.32    1.32
   1   4 -11  153.35    2.94
   1   4 -10    0.08    0.13
   1   4 -10   -0.18    0.18
  -1  -4  10   -0.08    0.15
   1   4 -10   -0.06    0.13
   1   4 -10    0.03    0.41
   1   4 -10    0.06    0.08
   1   4  -8    9.56    1.51
   1   4  -8   11.03    1.55
  -1  -4   8   11.76    1.78
   1   4  -8    9.07    1.39
   1   4  -8   14.32    2.25
   1   4  -8   11.75    1.72
  -1  -4   8   12.85    1.79
   1   4  -7    1.61    0.23
   1   4  -7    1.41    0.26
  -1  -4   7    1.37    0.19
   1   4  -7    0.95    0.16
   1   4  -7    1.81    0.35
   1   4  -7    0.90    0.20
  -1  -4   7    1.48    0.21
   1   4  -6   29.76    0.53
  -1  -4   6   31.97    0.61
   1   4  -6   28.49    0.50
   1   4  -6   35.03    1.51
  -1  -4   6   26.51    0.69
   1   4  -6   29.41    1.06
  -1  -4   6   30.55    0.61
   1   4  -5    1.32    0.36
  -1  -4   5    0.81    0.27
   1   4  -5    1.77    0.21
  -1  -4   5    1.04    0.14
   1   4  -4   36.63    1.97
  -1  -4   4   28.82    0.65
   1   4  -4   33.15    1.04
  -1  -4   4   29.91    0.58
   1   4  -3   22.12    1.32
  -1  -4   3   18.94    1.32
   1   4  -3   21.24    0.83
  -1  -4   3   20.45    0.47
   1   4  -2    0.89    0.24
  -1  -4   2    0.38    0.20
   1   4  -2    0.89    0.24
  -1  -4   2    0.42    0.17
  -1  -4   1    9.72    0.35
   1   4  -1   12.57    0.88
  -1  -4   1    9.21    0.40
  -1  -4   0  456.49    4.55
   1   4   0  487.05    5.05
  -1  -4   0  492.36    5.02
  -1  -4  -1   51.93    1.31
   1   4   1   64.51    1.23
  -1  -4  -1   52.44    1.67
  -1  -4  -2  486.07    4.68
  -1  -4  -2  516.40    4.96
  -1  -4  -2  482.77    5.50
  -1  -4  -2  478.93    5.58
  -1  -4  -2  491.47    5.19
  -1  -4  -3  102.29    1.49
  -1  -4  -3  104.30    1.38
   1   4   3   96.82    1.31
  -1  -4  -3  107.11    1.39
  -1  -4  -3  106.90    1.75
  -1  -4  -3   99.07    1.65
  -1  -4  -4   17.50    1.07
  -1  -4  -4   16.80    0.44
   1   4   4   14.47    0.44
  -1  -4  -4   16.56    0.44
  -1  -4  -4   16.10    0.96
  -1  -4  -5    1.69    0.21
  -1  -4  -5    1.85    0.20
   1   4   5    2.52    0.24
  -1  -4  -5    1.27    0.16
  -1  -4  -6   24.90    1.17
  -1  -4  -6   29.68    0.72
   1   4   6   28.44    0.74
  -1  -4  -6   28.35    0.67
  -1  -4  -6   29.12    0.66
  -1  -4  -7   10.67    1.37
  -1  -4  -7   12.07    1.39
   1   4   7   12.96    1.49
  -1  -4  -7   11.87    1.34
  -1  -4  -7   10.07    1.13
  -1  -4  -8    2.27    0.37
  -1  -4  -8    1.85    0.43
   1   4   8    2.68    0.46
  -1  -4  -8    1.86    0.32
  -1  -4  -8    3.62    0.48
  -1  -4 -10 2116.59  301.32
   1   4  10 2187.54  311.42
  -1  -4 -11  275.50    3.99
   1   4  11  273.92    4.04
  -1  -4 -11  289.05    4.05
  -1  -4 -12  291.68    4.97
   1   4  12  305.14    5.22
  -1  -4 -12  280.06    4.64
  -1  -4 -13   63.38    1.85
   1   4  13   62.82    1.81
  -1  -4 -13   54.38    1.44
  -1  -4 -14  191.76    7.32
   1   4  14  188.78    7.24
  -1  -4 -14  230.58    8.74
  -1  -4 -15    0.45    0.27
   1   4  15    0.63    0.29
  -1  -4 -15    0.94    0.29
  -1  -4 -16   40.49    1.62
   1   4  16   36.41    1.54
  -1  -4 -16   35.75    1.33
  -1  -4 -17    1.07    0.51
   1   4  17    1.01    0.45
  -1  -4 -17    1.44    0.52
  -1  -4 -18    5.80    0.69
   1   4  18    9.07    0.76
  -1  -4 -18    5.86    0.54
  -1  -4 -19    2.22    0.66
   1   4  19    4.04    1.10
  -1  -4 -19    3.12    0.87
  -1  -4 -20    1.33    0.52
   1   4  20    1.18    0.45
  -1  -4 -20    0.46    0.28
  -1  -4 -21    0.22    0.38
   1   4  21    0.24    0.27
  -1  -4 -21    0.97    0.51
  -1  -4 -22    0.21    0.19
   1   5 -19    0.28    0.34
   1   5 -18    2.07    0.74
   1   5 -17    0.77    0.49
   1   5 -16  127.68    4.41
   1   5 -15   65.47    4.29
   1   5 -14  479.55    3.90
   1   5 -13   67.80    4.76
   1   5 -12   29.74    2.08
   1   5 -11    2.19    0.30
  -1  -5  11    2.05    0.36
   1   5 -11    3.46    0.62
   1   5 -10   18.20    0.78
  -1  -5  10   11.82    1.45
   1   5 -10   24.71    1.86
   1   5  -9    2.31    0.30
  -1  -5   9    2.07    0.33
   1   5  -9    4.56    0.79
   1   5  -8  100.00    4.03
   1   5  -7  182.84    3.51
  -1  -5   7  188.26    3.03
   1   5  -6    0.96    0.30
  -1  -5   6    0.82    0.19
   1   5  -5   47.30    1.92
  -1  -5   5   45.71    0.82
  -1  -5   4  500.35    6.58
  -1  -5   4  495.78    6.46
  -1  -5   2   51.95    0.68
  -1  -5   2   55.63    0.76
  -1  -5   1   18.25    2.52
  -1  -5   1   20.83    0.50
  -1  -5   0    3.32    0.53
  -1  -5   0    2.46    0.46
  -1  -5  -1   13.43    1.88
  -1  -5  -2    6.78    1.06
  -1  -5  -3    0.49    0.14
  -1  -5  -3    0.34    0.13
   1   5   3    0.18    0.12
  -1  -5  -3    1.29    0.25
  -1  -5  -3    0.69    0.19
  -1  -5  -4    0.91    0.17
  -1  -5  -4    0.78    0.18
   1   5   4    0.30    0.13
  -1  -5  -4    0.88    0.19
  -1  -5  -4    1.31    0.24
  -1  -5  -5   23.40    3.09
  -1  -5  -5   28.05    0.62
   1   5   5   28.72    1.21
  -1  -5  -5   27.11    0.62
  -1  -5  -5   23.38    3.20
  -1  -5  -6    5.74    0.90
  -1  -5  -6    8.06    1.09
   1   5   6    6.68    0.92
  -1  -5  -6    6.44    0.86
  -1  -5  -6    6.38    0.93
  -1  -5  -6    7.03    0.93
  -1  -5  -7    4.68    0.77
  -1  -5  -7    6.25    0.87
   1   5   7    6.87    0.95
  -1  -5  -7    6.16    0.85
  -1  -5  -7    5.20    0.80
  -1  -5  -7    6.09    0.82
  -1  -5  -8   39.22    2.18
  -1  -5  -8   60.14    1.31
   1   5   8   57.07    1.27
  -1  -5  -8   47.31    1.05
  -1  -5  -8   54.97    1.10
  -1  -5  -9   15.24    2.26
   1   5   9   12.04    1.80
  -1  -5  -9   11.07    1.63
  -1  -5 -10   79.86    2.03
   1   5  10   80.96    2.04
  -1  -5 -11   18.07    1.53
   1   5  11   17.57    0.95
  -1  -5 -11   16.57    0.81
  -1  -5 -12  541.07   15.07
   1   5  12  538.84   14.81
  -1  -5 -12  508.79   13.88
  -1  -5 -13  189.50    5.42
   1   5  13  189.38    5.45
  -1  -5 -13  181.76    5.11
  -1  -5 -14   70.85    3.16
   1   5  14   78.90    2.65
  -1  -5 -14   80.04    2.53
  -1  -5 -15    1.00    0.40
   1   5  15    1.55    0.50
  -1  -5 -15    1.36    0.37
  -1  -5 -16    0.09    0.30
   1   5  16    0.69    0.41
  -1  -5 -17    0.90    0.40
   1   5  17    0.12    0.21
  -1  -5 -18    4.79    0.79
   1   5  18    2.19    0.69
  -1  -5 -19    0.00    0.29
   1   5  19    0.54    0.33
  -1  -5 -20   27.73    1.49
   1   5  20   25.65    1.44
   1   6 -18    0.22    0.29
   1   6 -17    3.72    0.84
   1   6 -16    0.52    0.43
   1   6 -15   10.12    1.94
   1   6 -14    0.08    0.21
   1   6 -13   19.34    2.07
   1   6 -12    9.02    1.03
   1   6 -11   25.98    2.44
   1   6 -10   17.89    1.45
   1   6  -9   10.38    0.94
   1   6  -8   21.59    1.36
   1   6  -7    6.82    0.77
   1   6  -6    0.60    0.23
   1   6  -5   26.83    2.23
   1   6  -4   93.37    3.61
   1   6   4    0.89    0.13
  -1  -6  -5   25.18    1.03
   1   6   5   19.60    1.30
  -1  -6  -5   24.60    0.99
  -1  -6  -6   53.04    2.07
   1   6   6   47.64    2.07
  -1  -6  -7    2.65    0.30
   1   6   7    3.12    0.45
  -1  -6  -8    4.59    0.40
   1   6   8    4.49    0.55
  -1  -6  -9    2.16    0.43
   1   6   9    1.52    0.33
  -1  -6 -10    2.13    0.41
   1   6  10    1.77    0.35
  -1  -6 -11    3.46    0.77
   1   6  11    2.72    0.62
  -1  -6 -12    4.87    0.74
   1   6  12    6.53    0.59
  -1  -6 -13    1.59    0.53
   1   6  13    2.03    0.59
  -1  -6 -14    3.07    0.84
   1   6  14    3.28    0.89
  -1  -6 -15    9.38    0.66
   1   6  15   12.42    0.76
  -1  -6 -16    5.79    0.80
   1   6  16    3.48    0.89
  -1  -6 -17    0.49    0.35
   1   6  17    0.57    0.33
  -1  -6 -18    2.65    0.49
   1   6  18    1.20    0.33
   1   6  19    0.81    0.28
   2  -7  -7    0.12    0.24
   2  -7  -6    1.01    0.50
   2  -7  -5    0.50    0.23
  -2   6  15    0.82    0.22
   2  -6 -14    0.70    0.42
  -2   6  14    0.32    0.28
   2  -6 -13    0.24    0.28
  -2   6  13    0.67    0.36
   2  -6 -12    1.48    0.49
  -2   6  12    0.74    0.39
   2  -6 -11    6.09    0.83
  -2   6  11    6.72    1.25
   2  -6 -10    5.50    0.52
  -2   6  10    5.16    0.78
   2  -6  -9   47.07    1.50
  -2   6   9   39.77    2.33
   2  -6  -8    5.26    0.48
  -2   6   8    5.01    0.52
   2  -6  -7   44.89    2.53
   2  -6  -6   75.41    4.04
   2  -6  -6   77.56    4.15
   2  -6  -5   63.25    1.12
   2  -6  -5   69.55    1.17
   2  -6  -4    0.79    0.34
   2  -6  -4    0.94    0.48
   2  -6  -3    2.06    0.50
   2  -6  -3    2.03    0.51
   2  -6  -3    1.42    0.42
   2  -6  -2    3.11    0.69
   2  -6  -2    2.52    0.60
   2  -6  -2    1.68    0.42
   2  -6  -1    0.80    0.26
   2  -6  -1    1.59    0.40
   2  -6  -1    1.77    0.42
   2  -6   0    0.27    0.25
   2  -6   0    0.64    0.27
   2  -6   0    0.52    0.30
   2  -6   1    5.01    0.35
   2  -6   1    5.71    0.36
   2  -5 -17    0.35    0.41
  -2   5  17    0.94    0.43
   2  -5 -16    1.13    0.58
  -2   5  16    0.63    0.35
   2  -5 -15    3.33    0.88
  -2   5  15    4.06    1.57
   2  -5 -14   20.06    1.24
  -2   5  14   15.34    2.35
   2  -5 -13    3.85    1.06
  -2   5  13    2.54    0.77
   2  -5 -12    3.39    0.69
  -2   5  12    3.95    0.73
   2  -5 -11   15.82    0.77
  -2   5  11   15.39    1.36
   2  -5 -10    1.48    0.44
  -2   5  10    1.55    0.38
   2  -5  -9   24.23    1.08
  -2   5   9   21.79    2.54
   2  -5  -8    1.67    0.39
  -2   5   8    1.00    0.29
   2  -5  -7    0.52    0.31
  -2   5   7    0.72    0.34
   2  -5  -6   41.83    1.84
  -2   5   6   35.89    1.60
   2  -5  -4  241.48    9.11
   2  -5  -4  240.30    9.07
   2  -5  -3   19.69    0.78
   2  -5  -3   19.14    0.77
   2  -5  -3   18.15    0.80
   2  -5  -2    0.14    0.20
   2  -5  -2    0.38    0.22
   2  -5  -2    0.52    0.25
   2  -5  -1    1.93    0.40
   2  -5  -1    3.98    0.61
   2  -5   0   46.32    1.26
   2  -5   0   50.73    1.34
   2  -5   0   50.27    1.36
   2  -5   1   26.88    0.90
   2  -5   1   27.53    0.92
   2  -5   1   24.88    0.81
   2  -5   2   44.31    1.22
   2  -5   2   38.83    1.12
   2  -5   3  477.03    9.91
   2  -5   3  493.55   10.24
   2  -5   4   50.29    2.74
   2  -5   5  436.04   16.47
   2  -5   5  473.27   17.60
  -2   5  -5  421.98   15.66
   2  -5   6   56.85    2.98
   2  -5   6   53.24    3.02
  -2   5  -6   59.28    2.35
   2  -5   7   36.83    2.30
   2  -5   7   36.35    1.25
  -2   5  -7   36.41    1.23
   2  -5   8    0.36    0.14
   2  -5   8    1.25    0.41
  -2   5  -8    0.51    0.25
   2  -5   9   14.43    1.26
   2  -5   9   15.19    0.75
  -2   5  -9   17.06    0.78
   2  -5  10    0.95    0.30
   2  -5  10    1.31    0.44
  -2   5 -10    1.93    0.48
   2  -5  11   15.16    1.57
   2  -5  11   19.56    0.67
  -2   5 -11   21.48    0.77
   2  -5  12    8.46    1.05
   2  -5  12   12.47    0.87
  -2   5 -12   14.60    1.00
   2  -5  13    1.79    0.62
   2  -5  13    2.74    0.75
  -2   5 -13    1.98    0.60
  -2   5 -14    1.63    0.54
  -2   5 -15   28.21    3.28
  -2   5 -16    8.71    0.73
  -2   5 -17    1.95    0.47
  -2   5 -18    4.95    0.81
  -2   5 -19    0.89    0.33
   2  -4 -19    1.88    0.69
  -2   4  19    1.66    0.45
   2  -4 -18    1.31    0.71
  -2   4  18    1.46    0.56
   2  -4 -17    0.80    0.32
  -2   4  17    1.06    0.36
   2  -4 -16    0.79    0.50
  -2   4  16    0.09    0.31
   2  -4 -15    5.66    0.62
  -2   4  15    5.41    1.44
   2  -4 -14    5.17    0.62
  -2   4  14    5.11    0.69
   2  -4 -13   37.89    1.82
  -2   4  13   22.15    1.87
   2  -4 -12    8.64    0.65
  -2   4  12   10.28    1.09
   2  -4 -11   34.33    1.61
  -2   4  11   37.08    3.01
   2  -4 -10   34.83    1.62
  -2   4  10   33.33    3.01
   2  -4  -9   27.13    1.10
  -2   4   9   28.70    1.93
   2  -4  -8    6.41    1.08
  -2   4   8    5.70    0.99
   2  -4  -7    8.17    1.30
  -2   4   7    9.85    1.72
   2  -4  -6    1.14    0.43
  -2   4   6    0.80    0.30
   2  -4  -5    0.92    0.40
  -2   4   5    0.40    0.24
   2  -4  -4   25.65    0.88
  -2   4   4   21.22    2.78
   2  -4  -3  232.38    1.85
   2  -4  -3  223.13    1.77
   2  -4  -3  231.73    1.97
   2  -4  -2 1432.36    4.95
   2  -4  -2 1435.20    4.93
   2  -4  -2 1438.54    5.28
   2  -4  -1 1990.43  249.26
   2  -4  -1 1989.33    5.56
   2  -4  -1 2045.44  256.15
   2  -4   0  192.57    1.58
  -2   4   0  182.52    0.64
   2  -4   0  183.72    1.44
   2  -4   1    4.15    0.67
  -2   4  -1    4.92    0.77
   2  -4   1    4.47    0.77
   2  -4   1    5.13    0.81
  -2   4  -1    4.71    0.68
   2  -4   1    3.89    0.62
   2  -4   2    3.23    0.56
  -2   4  -2    1.96    0.46
   2  -4   2    3.84    0.62
   2  -4   2    5.41    0.87
   2  -4   2    1.83    0.36
   2  -4   3   52.07    0.87
  -2   4  -3   46.86    0.78
   2  -4   3   44.38    1.01
   2  -4   3   52.90    0.90
  -2   4  -3   51.05    0.67
   2  -4   3   50.60    0.68
   2  -4   4    0.43    0.24
  -2   4  -4    0.13    0.20
   2  -4   4    0.25    0.13
  -2   4  -4    0.46    0.27
   2  -4   5   62.57    1.44
   2  -4   5   60.77    1.24
  -2   4  -5   63.66    1.14
   2  -4   5   58.09    0.94
   2  -4   6    5.67    0.91
   2  -4   6    5.44    0.80
  -2   4  -6    4.06    0.61
   2  -4   6    3.46    0.48
   2  -4   7    9.90    2.03
   2  -4   7   12.31    2.01
  -2   4  -7    8.51    1.28
   2  -4   7    4.40    0.66
   2  -4   8  131.77    2.74
   2  -4   8  125.36    2.35
  -2   4  -8  121.48    2.23
   2  -4   9    0.44    0.21
   2  -4   9    1.10    0.47
  -2   4  -9    1.31    0.48
   2  -4  10    6.36    0.96
   2  -4  10    6.65    0.90
  -2   4 -10    6.30    0.88
   2  -4  11   19.36    1.46
   2  -4  11   20.60    1.08
  -2   4 -11   17.64    0.95
   2  -4  12    2.74    0.34
   2  -4  12    3.62    0.49
  -2   4 -12    2.12    0.38
   2  -4  13    0.42    0.17
   2  -4  13    0.17    0.21
  -2   4 -13    0.79    0.38
   2  -4  14    7.08    0.85
   2  -4  14    7.73    0.58
  -2   4 -14   10.23    0.65
   2  -4  15  116.15    6.43
   2  -4  15  119.32    6.32
  -2   4 -15  103.68    5.50
   2  -4  16    2.03    0.67
  -2   4 -16    1.62    0.60
  -2   4 -17   55.13    2.24
   2  -4  17   61.57    2.57
  -2   4 -17   58.24    2.41
  -2   4 -18   34.05    3.91
   2  -4  18   38.66    4.44
  -2   4 -18   37.24    4.28
  -2   4 -19    2.81    0.60
   2  -4  19    6.91    0.71
  -2   4 -19    4.85    0.91
  -2   4 -20   29.09    1.59
   2  -4  20   37.96    2.09
  -2   4 -20   32.68    1.76
  -2   4 -21    6.61    0.63
   2  -3 -20    2.61    0.64
  -2   3  20    3.00    0.89
   2  -3 -19    0.49    0.33
  -2   3  19    0.78    0.44
   2  -3 -19    0.62    0.28
   2  -3 -18   12.79    0.85
  -2   3  18   13.24    1.39
   2  -3 -18    7.53    1.00
   2  -3 -17   57.16    3.20
  -2   3  17   52.05    5.12
   2  -3 -17   39.46    3.43
   2  -3 -16   37.98    1.26
  -2   3  16   40.74    2.81
   2  -3 -16   27.08    1.84
   2  -3 -15   99.14    3.28
  -2   3  15  103.78    5.20
   2  -3 -15   92.38    3.79
   2  -3 -14    0.46    0.54
  -2   3  14    1.54    0.53
   2  -3 -14    0.49    0.23
   2  -3 -13   32.38    1.58
  -2   3  13   30.95    2.47
   2  -3 -13   24.41    1.97
   2  -3 -12    2.74    0.53
  -2   3  12    2.55    0.49
   2  -3 -12    2.79    0.46
  -2   3  12    1.66    0.29
   2  -3 -11    0.91    0.47
  -2   3  11    1.12    0.40
   2  -3 -11   -0.05    0.13
  -2   3  11    1.32    0.35
   2  -3 -10   34.56    1.19
  -2   3  10   30.67    2.73
   2  -3 -10   27.98    1.58
  -2   3  10   28.64    0.89
   2  -3  -9    7.06    1.04
  -2   3   9    9.38    1.68
   2  -3  -9    8.12    1.27
  -2   3   9    7.51    1.01
   2  -3  -8  252.50    2.04
  -2   3   8  239.55    3.00
   2  -3  -8  255.17    1.41
  -2   3   8  249.24    1.32
   2  -3  -7   18.46    2.08
  -2   3   7   24.38    2.18
   2  -3  -7   16.22    1.89
  -2   3   7   18.18    1.98
   2  -3  -6    0.71    0.39
  -2   3   6    1.15    0.31
  -2   3   6    1.07    0.18
   2  -3  -5   50.37    1.14
  -2   3   5   50.81    1.34
  -2   3   5   51.85    0.88
   2  -3  -4    3.85    0.42
  -2   3   4    5.24    0.58
  -2   3   4    4.33    0.20
   2  -3  -4    4.02    0.36
   2  -3  -3   18.34    0.65
  -2   3   3   15.52    0.54
  -2   3   3   18.00    0.68
   2  -3  -3   18.86    1.47
  -2   3   3   16.21    0.87
   2  -3  -3   17.67    0.66
   2  -3  -2    1.26    0.34
  -2   3   2    0.84    0.24
   2  -3  -2    0.68    0.19
   2  -3  -2    0.58    0.30
  -2   3   2    0.51    0.13
   2  -3  -1   10.58    0.58
  -2   3   1    8.85    0.45
   2  -3  -1   10.41    0.88
   2  -3  -1    9.06    0.51
  -2   3   1    8.91    0.47
  -2   3   1    7.86    0.25
   2  -3  -1    9.43    0.51
   2  -3   0   25.78    0.73
  -2   3   0   24.90    0.66
   2  -3   0   18.07    0.91
   2  -3   0   24.40    0.70
   2  -3   1 1075.74   12.41
  -2   3  -1 1106.44   12.74
   2  -3   1 1019.33   11.81
   2  -3   1 1056.78   12.27
  -2   3  -1 1035.84   11.75
   2  -3   1 1067.00   12.23
   2  -3   2  160.49    2.25
  -2   3  -2  159.53    2.20
   2  -3   2  151.17    2.60
   2  -3   2  163.50    2.28
  -2   3  -2  159.44    2.04
   2  -3   2  157.66    2.07
   2  -3   3    0.64    0.30
  -2   3  -3    0.32    0.24
   2  -3   3    0.67    0.15
   2  -3   3    0.56    0.29
  -2   3  -3    0.76    0.31
   2  -3   3    0.50    0.22
   2  -3   4   14.33    0.55
  -2   3  -4   13.23    0.55
   2  -3   4   12.40    0.54
  -2   3  -4   11.58    0.44
   2  -3   4   12.49    0.38
   2  -3   5    7.80    0.93
  -2   3  -5    5.16    0.67
  -2   3  -5    4.61    0.59
  -2   3  -5   11.48    1.37
   2  -3   5    5.60    0.65
   2  -3   6  151.26    2.56
  -2   3  -6  138.02    2.30
   2  -3   6  148.01    2.48
  -2   3  -6  142.35    2.32
   2  -3   6  139.04    2.08
   2  -3   7    0.69    0.21
   2  -3   7    0.59    0.25
  -2   3  -7    0.84    0.29
   2  -3   7    0.78    0.17
  -2   3  -8  358.11    2.17
   2  -3  10  773.85   10.21
   2  -3  10  939.31  133.75
   2  -3  11  359.75    6.78
   2  -3  11  353.40    5.85
   2  -3  12    2.52    0.50
   2  -3  12    3.63    0.67
  -2   3 -12    2.30    0.48
   2  -3  13    2.56    0.44
   2  -3  13    1.98    0.54
  -2   3 -13    1.41    0.33
   2  -3  14    6.06    0.95
   2  -3  14    5.36    0.74
  -2   3 -14    7.15    0.96
   2  -3  15   12.72    1.31
   2  -3  15   11.40    0.75
  -2   3 -15   12.08    0.70
   2  -3  16    1.58    0.43
   2  -3  16    2.69    0.71
  -2   3 -16    2.09    0.49
  -2   3 -17   16.76    0.80
   2  -3  17   17.81    0.93
  -2   3 -17   16.54    0.82
  -2   3 -18    3.94    1.05
   2  -3  18    7.85    0.65
  -2   3 -18    3.43    0.95
  -2   3 -19    7.81    0.65
   2  -3  19    6.85    0.70
  -2   3 -19    9.37    0.80
  -2   3 -20    6.73    0.97
   2  -3  20    7.16    1.03
  -2   3 -20    6.13    0.89
  -2   3 -21    6.87    0.66
   2  -3  21    5.25    1.05
  -2   3 -21    6.69    0.65
  -2   3 -22    0.74    0.34
   2  -3  22    0.66    0.34
   2  -2 -23    0.40    0.17
   2  -2 -22    0.21    0.26
   2  -2 -22    1.92    0.46
   2  -2 -21    3.05    0.76
  -2   2  21    1.26    0.62
   2  -2 -21    1.49    0.50
   2  -2 -21    2.21    0.49
   2  -2 -20    1.29    0.53
  -2   2  20    0.76    0.37
   2  -2 -20    0.09    0.26
   2  -2 -20    1.31    0.52
   2  -2 -19    2.97    0.90
  -2   2  19    2.25    0.85
   2  -2 -19    1.57    0.50
   2  -2 -19    1.07    0.43
   2  -2 -18    2.40    0.61
  -2   2  18    2.12    0.64
   2  -2 -18    1.49    0.54
   2  -2 -17    9.87    0.85
  -2   2  17    8.88    1.88
   2  -2 -17    6.30    1.20
   2  -2 -16    1.96    0.41
  -2   2  16    2.90    0.53
   2  -2 -16    3.28    0.54
   2  -2 -15   38.83    1.86
  -2   2  15   44.33    3.28
   2  -2 -15   40.14    2.29
   2  -2 -14   19.50    0.98
  -2   2  14   21.90    1.60
   2  -2 -14   19.32    1.51
   2  -2 -13   30.33    1.18
  -2   2  13   31.51    2.19
   2  -2 -13   25.08    1.41
   2  -2 -12    1.14    0.45
  -2   2  12    1.18    0.51
   2  -2 -12    0.16    0.13
   2  -2 -11   16.04    2.32
  -2   2  11   18.81    2.76
   2  -2 -11   18.46    2.44
  -2   2  11   12.53    1.79
   2  -2 -10   62.24    1.17
  -2   2  10   61.94    1.71
   2  -2 -10   64.94    2.52
  -2   2  10   59.61    0.85
   2  -2  -9    6.63    0.88
  -2   2   9    8.26    1.23
   2  -2  -9    8.01    1.11
  -2   2   9    6.12    0.73
   2  -2  -8  109.22    1.87
  -2   2   8  106.13    2.16
   2  -2  -8   95.60    1.82
  -2   2   8  103.74    1.53
   2  -2  -7  272.76    3.74
  -2   2   7  278.65    4.57
   2  -2  -7  267.19    3.32
  -2   2   7  281.88    3.49
   2  -2  -6 1963.35   19.13
  -2   2   6 1954.54   19.08
   2  -2  -6 1926.65   18.51
  -2   2   6 1927.55   18.31
   2  -2  -6 1847.18   18.36
   2  -2  -5 2607.23   24.88
  -2   2   5 2892.55   32.74
   2  -2  -5 2795.20   31.61
   2  -2  -5 2829.71   31.84
  -2   2   5 2828.26   31.74
   2  -2  -5 2758.09   26.36
   2  -2  -4  346.26    3.77
  -2   2   4  350.49    3.78
  -2   2   4  355.68    4.38
   2  -2  -4  350.28    3.78
  -2   2   4  351.27    3.55
   2  -2  -4  347.52    3.75
   2  -2  -3    7.78    0.51
  -2   2   3    6.54    0.42
  -2   2   3   11.32    1.04
   2  -2  -3    9.15    0.86
  -2   2   3    7.04    0.58
   2  -2  -3    7.36    0.42
   2  -2  -2   63.60    1.00
  -2   2   2   64.04    0.97
  -2   2   2   64.34    1.02
   2  -2  -2   59.82    1.39
  -2   2   2   61.71    0.95
   2  -2  -2   62.20    0.98
   2  -2  -1   13.06    0.53
  -2   2   1   12.72    0.52
   2  -2  -1   14.95    1.16
   2  -2  -1   13.62    0.53
  -2   2   1   13.15    0.84
   2  -2  -1   11.83    0.53
   2  -2   0   31.25    0.71
  -2   2   0   30.87    0.68
   2  -2   0   32.30    0.95
   2  -2   0   32.78    0.72
   2  -2   0   32.68    0.67
   2  -2   1    1.67    0.29
  -2   2  -1    2.50    0.30
   2  -2   1    1.98    0.22
   2  -2   1    1.82    0.30
   2  -2   1    1.78    0.27
   2  -2   2    1.31    0.26
  -2   2  -2    2.18    0.36
   2  -2   2    1.41    0.20
   2  -2   2    0.92    0.22
   2  -2   2    1.53    0.23
   2  -2   3   16.59    0.56
  -2   2  -3   13.86    0.46
   2  -2   3   15.79    0.53
  -2   2  -3   16.14    0.55
  -2   2  -3   18.89    0.55
   2  -2   3   17.11    0.43
   2  -2   4  344.23    2.93
  -2   2  -4  346.77    2.91
   2  -2   4  343.11    2.90
  -2   2  -4  348.99    2.93
  -2   2  -4  341.92    2.76
   2  -2   4  342.25    2.65
  -2   2  -4  342.02    2.64
   2  -2   5   -0.09    0.20
  -2   2  -5   -0.05    0.20
   2  -2   5    0.96    0.32
  -2   2  -5    0.17    0.21
  -2   2  -5    0.26    0.24
   2  -2   5    0.08    0.15
  -2   2  -5    0.09    0.12
  -2   2  -6  105.31    1.52
   2  -2   6  119.60    1.74
  -2   2  -6  106.35    1.51
  -2   2  -6  113.77    1.60
   2  -2   6  106.60    1.27
  -2   2  -6  109.69    1.32
   2  -2   7    0.31    0.26
  -2   2  -7    0.59    0.20
   2  -2   7    1.72    0.36
  -2   2  -7    1.07    0.35
  -2   2  -7    0.76    0.31
   2  -2   7    1.22    0.19
  -2   2  -7    1.83    0.27
   2  -2   8   86.01    1.78
   2  -2   8   87.60    1.51
  -2   2  -8   85.34    1.45
   2  -2   8   81.60    1.35
  -2   2  -8   82.22    1.15
   2  -2   9   24.52    1.71
   2  -2   9   17.85    2.02
  -2   2  -9   19.46    2.19
   2  -2   9   17.60    1.97
  -2   2  -9   18.33    1.99
   2  -2  10   63.65    2.32
   2  -2  10   52.77    1.27
  -2   2 -10   62.83    2.11
   2  -2  10   54.29    1.43
  -2   2 -10   55.64    0.97
   2  -2  11   38.10    1.48
   2  -2  11   35.45    0.83
  -2   2 -11   39.67    1.01
  -2   2 -11   37.40    0.53
   2  -2  12   12.41    1.82
   2  -2  12   11.03    1.57
  -2   2 -12   10.11    1.41
  -2   2 -12    9.46    1.23
   2  -2  13   72.58    2.78
   2  -2  13   76.70    1.75
  -2   2 -13   73.64    1.69
  -2   2 -13   70.08    1.28
   2  -2  14   52.41    2.09
   2  -2  14   51.65    1.42
  -2   2 -14   55.61    1.49
  -2   2 -14   46.40    0.94
   2  -2  15   44.91    2.87
   2  -2  15   43.92    1.40
   2  -2  16  130.25    6.82
   2  -2  16  135.84    5.35
  -2   2 -16  121.64    4.81
   2  -2  17   17.35    1.00
  -2   2 -17   15.09    0.88
  -2   2 -18    2.24    0.69
   2  -2  18    4.61    1.20
  -2   2 -18    0.48    0.35
  -2   2 -19    1.82    0.56
   2  -2  19    1.29    0.58
  -2   2 -19    0.81    0.38
  -2   2 -20  177.42    4.80
   2  -2  20  160.26    4.42
  -2   2 -20  155.51    4.22
  -2   2 -21   34.44    3.99
   2  -2  21   34.24    4.00
  -2   2 -21   37.64    4.35
  -2   2 -22    2.89    0.63
   2  -2  22    5.52    0.81
  -2   2 -22    3.65    0.80
   2  -1 -23    0.56    0.17
   2  -1 -23    0.83    0.32
   2  -1 -22    5.99    0.64
  -2   1  22    4.77    1.11
   2  -1 -22    4.71    1.08
   2  -1 -22    4.96    0.93
   2  -1 -21   22.05    1.28
  -2   1  21   17.79    2.16
   2  -1 -21   14.21    2.11
   2  -1 -21   19.91    1.18
   2  -1 -20   29.70    1.30
  -2   1  20   24.29    2.70
   2  -1 -20   21.14    2.84
   2  -1 -20   24.72    1.15
   2  -1 -19    8.67    0.86
  -2   1  19    7.21    1.03
   2  -1 -19    6.71    1.04
   2  -1 -19    8.55    0.75
   2  -1 -18   10.68    0.83
  -2   1  18    9.29    1.04
   2  -1 -18    6.35    1.23
   2  -1 -18    7.70    1.33
   2  -1 -17    2.16    0.59
  -2   1  17    2.47    0.49
   2  -1 -17    1.71    0.32
   2  -1 -17    1.21    0.42
   2  -1 -16   11.16    1.40
  -2   1  16    9.94    1.50
   2  -1 -16   11.65    1.58
   2  -1 -16    7.84    0.99
   2  -1 -15    2.82    0.53
  -2   1  15    5.15    0.77
   2  -1 -15    3.71    0.59
   2  -1 -15    1.79    0.55
   2  -1 -14  110.57    2.33
  -2   1  14  115.68    2.91
   2  -1 -14  120.70    4.27
   2  -1 -14  108.80    2.25
   2  -1 -11   12.34    1.47
  -2   1  11   17.69    2.34
   2  -1 -11   14.75    2.03
   2  -1 -11    1.34    2.10
   2  -1 -10  580.84    8.50
  -2   1  10  578.19    8.90
   2  -1 -10  581.32    8.38
   2  -1  -9   59.07    1.29
  -2   1   9   57.09    1.84
   2  -1  -9   71.31    2.27
  -2   1   9   58.76    1.05
   2  -1  -9   51.23    1.23
   2  -1  -8  209.39    2.63
  -2   1   8  196.04    2.98
   2  -1  -8  196.36    2.39
  -2   1   8  193.84    2.24
   2  -1  -8  198.52    2.50
   2  -1  -7    1.51    0.34
  -2   1   7    2.05    0.26
   2  -1  -7    1.95    0.31
   2  -1  -7    1.13    0.19
  -2   1   7    0.64    0.23
   2  -1  -7    1.13    0.36
   2  -1  -6    1.15    0.26
  -2   1   6    2.51    0.32
  -2   1   6    0.90    0.34
   2  -1  -6    1.75    0.31
   2  -1  -6    2.49    0.29
  -2   1   6    1.85    0.23
   2  -1  -6    1.74    0.49
   2  -1  -5   42.01    0.86
  -2   1   5   41.20    0.81
  -2   1   5   45.32    0.97
   2  -1  -5   41.98    1.68
   2  -1  -5   46.77    1.19
  -2   1   5   42.51    0.71
   2  -1  -5   44.06    0.89
   2  -1  -4    1.16    0.25
  -2   1   4    1.15    0.24
  -2   1   4    2.21    0.31
   2  -1  -4    1.33    0.32
   2  -1  -4    0.92    0.24
  -2   1   4    1.12    0.18
   2  -1  -4    1.81    0.33
   2  -1  -3    3.72    0.37
  -2   1   3    3.44    0.35
  -2   1   3    6.98    0.73
   2  -1  -3    5.26    0.54
  -2   1   3    3.49    0.41
   2  -1  -3    3.67    0.40
   2  -1  -2   14.45    0.61
  -2   1   2   13.29    0.45
  -2   1   2   15.45    0.58
   2  -1  -2   17.22    1.34
  -2   1   2   15.52    0.97
   2  -1  -2   13.53    0.54
   2  -1  -1  119.65    1.38
  -2   1   1  124.06    1.41
   2  -1  -1  125.48    1.62
   2  -1  -1  124.45    1.41
  -2   1   1  125.16    1.53
   2  -1  -1  130.42    1.40
  -2   1   1  121.65    1.33
   2  -1   0   86.18    1.21
  -2   1   0   80.29    1.09
   2  -1   0   79.74    1.27
   2  -1   0   78.79    1.12
   2  -1   0   76.97    0.99
  -2   1   0   77.42    1.00
   2  -1   1    0.93    0.37
  -2   1  -1    0.99    0.21
   2  -1   1    0.60    0.19
   2  -1   1    0.96    0.47
   2  -1   1    0.91    0.37
  -2   1  -1    0.52    0.32
   2  -1   2  580.40    4.71
  -2   1  -2  564.52    4.59
   2  -1   2  580.89    4.71
  -2   1  -2  574.52    4.65
   2  -1   2  575.08    4.52
  -2   1  -2  559.36    4.40
   2  -1   3   13.11    0.51
  -2   1  -3   14.04    0.49
   2  -1   3   13.43    0.53
  -2   1  -3   12.49    0.47
   2  -1   3   13.39    0.39
  -2   1  -3   11.63    0.39
   2  -1   4  599.64    4.91
  -2   1  -4  574.62    4.69
   2  -1   4  580.46    4.74
  -2   1  -4  595.00    4.82
   2  -1   4  572.38    4.48
  -2   1  -4  582.68    4.56
   2  -1   5  297.54    2.61
  -2   1  -5  303.46    2.65
   2  -1   5  296.27    2.61
  -2   1  -5  308.81    2.68
  -2   1  -5  304.74    2.60
   2  -1   5  308.58    2.45
  -2   1  -5  301.43    2.43
   2  -1   6  711.06    5.37
  -2   1  -6  716.01    5.38
   2  -1   6  706.45    5.32
  -2   1  -6  719.08    5.39
  -2   1  -6  706.63    5.25
   2  -1   6  705.11    5.05
  -2   1  -6  707.47    5.06
   2  -1   7  455.76    3.71
  -2   1  -7  470.91    3.78
   2  -1   7  475.31    4.06
  -2   1  -7  477.24    3.81
  -2   1  -7  471.13    3.76
   2  -1   7  463.96    3.46
  -2   1  -7  476.72    3.53
   2  -1   8    0.38    0.17
  -2   1  -8    0.91    0.29
   2  -1   8    0.21    0.23
  -2   1  -8    0.75    0.31
  -2   1  -8    0.33    0.25
   2  -1   8    1.28    0.20
  -2   1  -8    0.71    0.16
   2  -1   9  105.97    2.02
   2  -1   9  103.86    1.70
  -2   1  -9  104.74    1.70
   2  -1   9  104.35    1.74
  -2   1  -9  104.57    1.47
   2  -1  10    1.29    0.35
   2  -1  10    2.11    0.54
   2  -1  10    2.06    0.21
  -2   1 -10    1.08    0.25
   2  -1  11   10.73    1.40
   2  -1  11    7.22    0.91
  -2   1 -11    8.95    1.08
   2  -1  11    8.92    1.23
  -2   1 -11    8.87    1.00
   2  -1  12    0.42    0.28
   2  -1  12    0.66    0.44
  -2   1 -12    0.33    0.36
  -2   1 -12    0.82    0.23
   2  -1  13   24.02    1.87
   2  -1  13   21.65    0.78
  -2   1 -13   24.65    1.78
  -2   1 -13   22.54    0.60
   2  -1  14  795.21  113.26
  -2   1 -14  682.63    8.87
   2  -1  15  138.67    4.63
   2  -1  15  138.40    2.74
  -2   1 -15  148.35    2.89
  -2   1 -15  128.00    2.29
   2  -1  16  684.73   14.38
   2  -1  16  643.83   13.47
  -2   1 -16  779.65   16.32
  -2   1 -17   17.15    1.05
   2  -1  17   17.39    1.11
  -2   1 -17   14.49    0.90
  -2   1 -18    1.05    0.48
   2  -1  18    2.05    0.60
  -2   1 -18    1.08    0.49
  -2   1 -19   50.19    1.22
   2  -1  19   53.26    1.39
  -2   1 -19   50.69    1.24
  -2   1 -20    5.08    0.90
   2  -1  20    6.03    0.69
  -2   1 -20    4.80    0.89
  -2   1 -21    6.34    0.72
   2  -1  21    3.85    0.96
  -2   1 -21    5.23    0.60
  -2   1 -22    8.06    1.11
   2  -1  22   10.72    1.45
  -2   1 -22    7.52    1.11
  -2   1 -23   33.24    1.67
   2  -1  23   58.76    2.82
   2   0 -24    0.58    0.38
   2   0 -23    4.87    1.18
   2   0 -23    7.20    0.71
   2   0 -22    3.23    0.90
  -2   0  22    3.94    1.57
   2   0 -22    3.29    0.97
   2   0 -22    3.99    1.52
   2   0 -21   18.22    1.11
  -2   0  21   14.97    1.49
   2   0 -21   14.25    1.77
   2   0 -21   15.38    0.90
   2   0 -20   -0.38    0.34
  -2   0  20    0.18    0.31
   2   0 -20    1.10    0.41
   2   0 -20    0.51    0.38
   2   0 -19   35.29    1.15
  -2   0  19   28.09    2.22
   2   0 -19   27.94    2.28
   2   0 -19   35.46    1.10
   2   0 -18   16.07    0.95
  -2   0  18   15.89    1.35
   2   0 -18   14.63    1.36
   2   0 -18   15.07    0.88
   2   0 -17    6.87    0.70
  -2   0  17    5.69    0.71
   2   0 -17    5.73    0.71
   2   0 -17    6.46    0.73
   2   0 -16    5.37    0.83
  -2   0  16    7.29    1.21
   2   0 -16    6.36    1.00
   2   0 -16    4.73    0.72
   2   0 -15    0.90    0.49
  -2   0  15    1.97    0.47
   2   0 -15    0.71    0.29
   2   0 -15    2.19    0.57
   2   0 -14    0.94    0.49
  -2   0  14    1.75    0.45
   2   0 -14    0.57    0.36
   2   0 -14    2.27    0.71
   2   0 -13   16.77    2.42
  -2   0  13   23.33    1.29
   2   0 -13   22.19    1.69
   2   0 -13   15.18    2.20
   2   0 -12    1.46    0.36
  -2   0  12    1.45    0.34
   2   0 -12    2.79    0.51
   2   0 -12    1.60    0.73
   2   0 -11  178.45    3.10
  -2   0  11  179.76    3.42
   2   0 -11  176.32    4.01
   2   0 -11  176.00    5.27
   2   0 -10  443.72    5.55
  -2   0  10  453.53    6.38
   2   0 -10  443.49    5.52
   2   0 -10  442.96    5.75
   2   0  -9  322.15    3.66
  -2   0   9  315.19    4.10
   2   0  -9  325.61    3.63
   2   0  -9  313.99    3.57
   2   0  -8    5.07    0.47
  -2   0   8    5.55    0.55
  -2   0   8    7.46    0.70
   2   0  -8    4.66    0.38
   2   0  -8    6.61    0.61
  -2   0   8    5.06    0.42
   2   0  -8    4.29    0.45
   2   0  -7   21.42    0.63
  -2   0   7   22.93    0.66
  -2   0   7   29.55    1.93
   2   0  -7   20.42    0.61
   2   0  -7   21.53    1.14
  -2   0   7   20.93    0.59
   2   0  -7   18.51    0.66
  -2   0   6  161.72    1.75
  -2   0   6  152.57    2.31
   2   0  -6  144.45    1.95
  -2   0   6  146.72    1.53
   2   0  -6  151.88    1.71
   2   0  -5   22.91    0.65
  -2   0   5   23.10    0.61
  -2   0   5   28.86    1.53
   2   0  -5   26.62    1.77
   2   0  -5   25.02    1.08
  -2   0   5   22.91    1.28
   2   0  -5   24.46    0.84
   2   0  -4  371.54    3.24
  -2   0   4  359.16    3.08
  -2   0   4  375.54    3.94
   2   0  -4  360.18    3.17
   2   0  -4  365.18    3.11
  -2   0   4  360.53    3.09
   2   0  -4  374.59    3.27
  -2   0   4  373.57    3.19
   2   0  -3   41.90    0.81
  -2   0   3   39.42    0.72
  -2   0   3   43.03    1.10
   2   0  -3   41.03    1.28
   2   0  -3   40.96    1.02
  -2   0   3   40.24    1.08
   2   0  -3   41.98    0.80
  -2   0   3   42.74    0.78
   2   0  -2 4346.13   31.49
  -2   0   2 4273.56   30.94
  -2   0   2 4331.27   31.39
   2   0  -2 4374.20   31.70
  -2   0   2 4092.57   29.67
   2   0  -2 4193.09   30.37
  -2   0   2 4138.03   29.96
   2   0  -1 1076.50    5.78
  -2   0   1 1124.17    5.97
   2   0  -1 1108.93    6.09
   2   0  -1 1098.03    5.89
  -2   0   1 1086.55    5.72
  -2   0   1 1105.69    5.88
  -2   0   0 5640.95   40.65
   2   0   0 5641.41   40.70
   2   0   0 5658.43   40.79
  -2   0   0 5892.46   42.42
   2   0   1    6.79    0.43
  -2   0  -1    7.44    0.42
   2   0   1    7.49    0.43
  -2   0  -1    7.16    0.41
   2   0   1    7.67    0.45
  -2   0  -1    6.25    0.39
   2   0   2  400.02    2.65
  -2   0  -2  418.35    2.66
   2   0   2  404.94    2.64
  -2   0  -2  409.22    2.60
   2   0   2  423.04    2.60
  -2   0  -2  410.92    2.54
   2   0   3    1.76    0.28
  -2   0  -3    1.17    0.23
   2   0   3    2.04    0.32
  -2   0  -3    0.90    0.34
   2   0   3    1.85    0.26
  -2   0  -3    1.52    0.24
   2   0   4   26.53    0.71
  -2   0  -4   28.14    0.64
   2   0   4   26.58    0.68
  -2   0  -4   28.51    0.66
   2   0   4   26.09    0.57
  -2   0  -4   24.72    0.55
   2   0   5   31.38    1.38
  -2   0  -5   29.49    0.68
   2   0   5   29.79    0.73
  -2   0  -5   29.72    0.67
   2   0   5   31.80    1.01
  -2   0  -5   26.54    0.60
   2   0   6    3.08    0.41
  -2   0  -6    2.83    0.32
   2   0   6    4.43    0.51
  -2   0  -6    3.12    0.32
  -2   0  -6    2.94    0.35
   2   0   6    3.27    0.29
  -2   0  -6    2.85    0.29
   2   0   7   92.68    1.64
  -2   0  -7   87.02    1.17
   2   0   7   95.26    1.31
  -2   0  -7   89.30    1.19
  -2   0  -7   99.55    1.34
   2   0   7   92.28    1.37
  -2   0  -7   90.49    1.08
   2   0   8    5.43    0.58
  -2   0  -8    3.72    0.34
   2   0   8    3.54    0.38
  -2   0  -8    2.96    0.32
  -2   0  -8    3.63    0.33
   2   0   8    5.65    0.52
  -2   0  -8    4.17    0.33
   2   0   9   37.10    1.59
   2   0   9   31.76    0.87
  -2   0  -9   32.12    0.79
   2   0   9   33.67    1.01
  -2   0  -9   29.80    0.64
   2   0  10    4.77    0.53
   2   0  10    4.10    0.43
  -2   0 -10    3.21    0.39
   2   0  10    5.53    0.50
  -2   0 -10    3.51    0.31
   2   0  11   37.78    1.66
   2   0  11   37.19    1.05
  -2   0 -11   35.84    0.97
   2   0  11   34.32    1.25
  -2   0 -11   31.72    0.73
   2   0  12    5.96    0.85
   2   0  12    3.72    0.61
  -2   0 -12    3.16    0.49
   2   0  12    5.12    0.66
  -2   0 -12    4.14    0.57
   2   0  13    1.03    0.39
   2   0  13    0.94    0.47
  -2   0 -13    2.61    0.69
  -2   0 -13    0.97    0.31
   2   0  14   11.80    1.91
   2   0  14   10.91    1.56
  -2   0 -14   14.83    2.05
   2   0  15    2.16    0.65
   2   0  15    1.53    0.47
  -2   0 -15    1.47    0.47
   2   0  16   42.01    1.44
  -2   0 -16   51.93    1.67
  -2   0 -17   85.32    3.51
   2   0  17   85.74    3.57
  -2   0 -17   81.16    3.33
  -2   0 -18   88.13    2.80
   2   0  18   91.55    2.96
  -2   0 -18  103.97    3.31
  -2   0 -19   17.16    1.07
   2   0  19   13.00    1.00
  -2   0 -19   19.06    1.34
  -2   0 -20    3.65    0.72
   2   0  20    3.50    0.74
  -2   0 -20    3.15    0.63
  -2   0 -21    4.15    1.18
  -2   0 -21    2.03    0.62
  -2   0 -22    0.43    0.32
   2   0  22    0.85    0.50
  -2   0 -22    0.76    0.37
  -2   0 -23    0.56    0.47
   2   0  23    0.27    0.33
  -2   0 -23    0.78    0.53
   2   1 -23    3.89    0.78
  -2  -1  23    3.26    0.76
   2   1 -22    3.81    0.77
  -2  -1  22    1.40    0.35
   2   1 -22    3.61    1.00
   2   1 -22    3.64    0.70
   2   1 -21    3.03    0.81
  -2  -1  21    1.65    0.48
   2   1 -21    0.82    0.33
   2   1 -21    2.47    0.64
   2   1 -20    0.51    0.35
  -2  -1  20    0.91    0.48
   2   1 -20    0.56    0.36
   2   1 -20    2.02    0.69
   2   1 -19   15.09    0.76
  -2  -1  19   13.98    1.09
   2   1 -19   14.03    1.25
   2   1 -19   13.93    0.67
   2   1 -18   28.49    1.32
  -2  -1  18   25.96    1.72
   2   1 -18   25.21    2.14
   2   1 -18   22.57    1.04
   2   1 -17  117.51    3.64
  -2  -1  17  115.10    4.72
   2   1 -17  104.08    4.49
   2   1 -17   98.95    3.00
   2   1 -16 1183.81   62.08
  -2  -1  16 1182.48   62.17
   2   1 -16 1193.29   62.58
   2   1 -16 1328.77   69.64
   2   1 -15    0.66    0.53
  -2  -1  15    0.28    0.37
   2   1 -15    0.54    0.40
   2   1 -15   -0.60    0.35
   2   1 -14  119.67    2.40
  -2  -1  14  120.54    4.12
   2   1 -14  136.42    3.28
   2   1 -14  125.76    2.48
   2   1 -13   26.72    0.94
  -2  -1  13   32.77    1.95
   2   1 -13   33.29    2.55
   2   1 -13   27.26    0.89
   2   1 -12    1.45    0.37
  -2  -1  12    1.19    0.33
   2   1 -12    2.12    0.41
   2   1 -12    1.59    0.51
   2   1 -11   23.50    0.85
  -2  -1  11   30.23    1.82
   2   1 -11   29.20    1.29
   2   1 -11   24.06    0.80
   2   1 -10    7.72    0.55
  -2  -1  10   10.75    0.88
   2   1 -10   11.35    0.91
   2   1 -10    7.69    0.53
   2   1  -9    2.30    0.30
  -2  -1   9    2.56    0.37
  -2  -1   9    4.02    0.38
   2   1  -9    2.29    0.28
   2   1  -9    3.57    0.40
   2   1  -9    2.47    0.36
   2   1  -8   73.16    1.25
  -2  -1   8   70.59    1.11
  -2  -1   8   76.30    1.65
   2   1  -8   71.68    1.18
   2   1  -8   77.59    2.32
   2   1  -8   75.13    1.26
   2   1  -7  830.38    6.09
  -2  -1   7  811.94    5.93
  -2  -1   7  820.00    6.09
   2   1  -7  805.20    6.27
   2   1  -7  828.80    6.23
  -2  -1   7  808.47    5.96
   2   1  -7  821.73    6.13
   2   1  -6    0.03    0.28
  -2  -1   6    0.65    0.31
  -2  -1   6   -0.03    0.22
   2   1  -6    0.04    0.18
   2   1  -6    0.45    0.13
  -2  -1   6   -0.09    0.17
   2   1  -6    0.07    0.29
  -2  -1   6    1.35    0.32
   2   1  -5  129.98    1.48
  -2  -1   5  128.89    1.43
  -2  -1   5  129.72    1.84
   2   1  -5  133.02    1.64
   2   1  -5  127.12    1.57
  -2  -1   5  130.30    1.51
   2   1  -5  130.12    1.53
  -2  -1   5  132.13    1.49
   2   1  -4    5.17    0.35
  -2  -1   4    5.44    0.34
  -2  -1   4    6.97    0.60
   2   1  -4    7.11    0.60
   2   1  -4    6.91    0.77
  -2  -1   4    6.69    0.57
   2   1  -4    4.95    0.42
  -2  -1   4    5.77    0.37
   2   1  -3  179.51    1.78
  -2  -1   3  186.80    1.80
  -2  -1   3  181.55    1.94
   2   1  -3  180.14    1.94
   2   1  -3  185.75    2.03
  -2  -1   3  185.30    2.04
   2   1  -3  183.76    1.86
  -2  -1   3  186.18    1.84
   2   1  -2   41.41    0.73
  -2  -1   2   41.12    0.68
   2   1  -2   38.59    0.90
   2   1  -2   40.39    0.73
  -2  -1   2   39.53    1.10
   2   1  -2   40.74    0.77
  -2  -1   2   39.67    0.72
   2   1  -1  190.92    1.51
  -2  -1   1  189.50    1.45
   2   1  -1  190.72    1.61
   2   1  -1  193.07    1.52
  -2  -1   1  183.64    1.63
   2   1  -1  189.44    1.54
  -2  -1   1  193.14    1.52
   2   1   0   65.04    0.84
  -2  -1   0   64.64    0.78
   2   1   0   62.62    0.79
   2   1   0   66.76    0.85
  -2  -1   0   66.41    1.02
   2   1   0   60.75    0.84
  -2  -1   0   67.36    0.88
   2   1   1  467.19    2.84
  -2  -1  -1  473.52    2.85
   2   1   1  465.58    2.84
  -2  -1  -1  470.16    2.83
   2   1   1  469.70    2.89
  -2  -1  -1  473.18    2.92
   2   1   2   21.84    0.56
  -2  -1  -2   23.77    0.58
   2   1   2   22.04    0.56
  -2  -1  -2   23.04    0.55
   2   1   2   22.49    0.58
  -2  -1  -2   24.01    0.55
   2   1   3 1394.95   10.43
  -2  -1  -3 1411.06   10.54
   2   1   3 1415.62   10.58
  -2  -1  -3 1405.86   10.50
   2   1   3 1409.35   10.54
  -2  -1  -3 1447.56   10.82
   2   1   4  121.38    1.55
  -2  -1  -4  113.17    1.33
   2   1   4  119.59    1.42
  -2  -1  -4  115.81    1.36
   2   1   4  116.81    1.93
  -2  -1  -4  112.07    1.30
   2   1   5  170.50    1.88
  -2  -1  -5  176.96    1.82
   2   1   5  168.00    1.95
  -2  -1  -5  174.63    1.78
   2   1   5  168.46    1.76
  -2  -1  -5  183.74    1.86
   2   1   6   50.96    1.21
  -2  -1  -6   48.17    0.87
   2   1   6   47.65    0.92
  -2  -1  -6   46.46    0.82
   2   1   6   48.68    1.11
  -2  -1  -6   46.20    0.82
   2   1   7  219.78    2.15
  -2  -1  -7  225.58    2.16
   2   1   7  220.75    2.12
  -2  -1  -7  217.66    2.08
   2   1   7  227.16    2.14
  -2  -1  -7  216.68    2.04
   2   1   8    2.24    0.30
  -2  -1  -8    1.02    0.22
   2   1   8    0.75    0.24
  -2  -1  -8    1.28    0.24
  -2  -1  -8    1.11    0.36
   2   1   8    1.87    0.23
  -2  -1  -8    1.45    0.27
   2   1   9  299.90    3.46
   2   1   9  300.78    3.45
  -2  -1  -9  314.21    3.58
   2   1   9  309.28    3.48
  -2  -1  -9  321.09    3.58
   2   1  10 1601.61   18.51
   2   1  10 1578.84   18.21
  -2  -1 -10 1579.93   18.16
   2   1  10 1514.81   17.43
  -2  -1 -10 1529.50   17.55
   2   1  11  103.55    2.11
   2   1  11  107.90    1.84
  -2  -1 -11  103.64    1.77
   2   1  11  111.11    3.13
   2   1  12   32.11    2.76
   2   1  12   26.34    0.91
  -2  -1 -12   28.90    0.88
   2   1  12   26.24    0.81
   2   1  13   12.42    1.94
   2   1  13    9.71    1.46
  -2  -1 -13   11.40    1.67
   2   1  14   32.03    2.98
   2   1  14   28.11    1.08
  -2  -1 -14   24.60    0.86
  -2  -1 -15    1.15    0.39
   2   1  15    1.68    0.45
  -2  -1 -15    1.61    0.56
  -2  -1 -16    0.77    0.38
   2   1  16    1.79    0.55
  -2  -1 -16   -0.19    0.29
  -2  -1 -17    2.52    0.54
   2   1  17    2.82    0.52
  -2  -1 -17    1.90    0.42
  -2  -1 -18    2.48    0.58
   2   1  18    1.50    0.55
  -2  -1 -18    0.76    0.47
  -2  -1 -19   27.98    1.32
   2   1  19   31.24    1.54
  -2  -1 -19   27.05    1.33
  -2  -1 -20    1.28    0.49
   2   1  20    3.51    0.86
  -2  -1 -20    3.72    0.90
  -2  -1 -21   18.45    1.03
   2   1  21   19.82    1.19
  -2  -1 -21   19.29    1.07
  -2  -1 -22    0.43    0.30
   2   1  22    0.74    0.37
  -2  -1 -22    1.29    0.64
  -2  -1 -23    1.97    0.68
  -2  -1 -23    1.32    0.59
   2   2 -23  153.13    7.00
  -2  -2  23  102.52    7.86
   2   2 -22   47.40    2.30
  -2  -2  22   35.12    3.69
   2   2 -21  164.81   59.81
  -2  -2  21  136.20   15.86
   2   2 -21  153.47   55.82
   2   2 -20   12.01    0.78
  -2  -2  20   13.47    1.16
   2   2 -20   11.77    1.47
   2   2 -20   12.55    0.68
   2   2 -19    2.30    0.60
  -2  -2  19    2.00    0.40
   2   2 -19    1.81    0.46
   2   2 -19    2.28    0.58
   2   2 -18   17.52    0.75
  -2  -2  18   17.51    1.05
   2   2 -18   17.76    2.20
   2   2 -18   21.14    0.76
   2   2 -17    0.74    0.26
  -2  -2  17    1.57    0.53
   2   2 -17    1.09    0.36
   2   2 -17    1.92    0.39
   2   2 -16    9.06    1.11
  -2  -2  16    9.40    1.24
   2   2 -16    8.51    1.40
   2   2 -16    7.72    0.95
   2   2 -15   35.01    1.21
  -2  -2  15   33.25    2.00
   2   2 -15   32.97    2.78
   2   2 -15   26.46    0.98
   2   2 -14   59.82    1.46
  -2  -2  14   71.01    2.47
   2   2 -14   65.98    3.84
   2   2 -14   66.02    1.49
   2   2 -13   -0.05    0.27
  -2  -2  13    0.91    0.30
   2   2 -13    0.65    0.28
   2   2 -13    0.58    0.26
   2   2 -12   67.53    1.11
  -2  -2  12   75.09    2.87
   2   2 -12   76.00    2.27
   2   2 -12   71.74    1.08
   2   2 -11  199.23    3.23
  -2  -2  11  209.53    3.44
   2   2 -11  201.18    3.27
   2   2 -10  112.47    2.00
  -2  -2  10  109.82    2.42
   2   2 -10  106.28    1.90
   2   2  -9  227.80    3.04
  -2  -2   9  242.40    3.17
  -2  -2   9  228.97    3.32
   2   2  -9  226.53    3.00
   2   2  -9  231.00    3.12
   2   2  -8  298.46    3.76
  -2  -2   8  312.74    3.86
  -2  -2   8  330.85    4.62
   2   2  -8  314.36    3.92
   2   2  -8  324.47    4.10
  -2  -2   8  318.73    3.94
   2   2  -7    4.78    0.43
  -2  -2   7    4.05    0.30
  -2  -2   7    4.76    0.42
   2   2  -7    3.99    0.32
   2   2  -7    6.63    0.75
   2   2  -7    3.78    0.40
  -2  -2   7    4.23    0.34
   2   2  -6 1117.75    7.82
  -2  -2   6 1103.64    7.68
  -2  -2   6 1108.43    7.77
   2   2  -6 1086.72    7.71
   2   2  -6 1135.13    8.22
  -2  -2   6 1106.95    7.91
   2   2  -6 1132.29    8.03
  -2  -2   6 1145.13    8.06
   2   2  -5  224.71    2.03
  -2  -2   5  222.96    1.93
  -2  -2   5  225.10    2.43
   2   2  -5  223.44    1.98
   2   2  -5  233.99    2.58
   2   2  -5  228.42    2.22
  -2  -2   5  230.96    2.09
   2   2  -4 1772.87   11.99
  -2  -2   4 1760.97   11.87
  -2  -2   4 1763.65   11.93
   2   2  -4 1789.50   12.10
   2   2  -4 1772.78   12.19
  -2  -2   4 1758.91   12.19
   2   2  -4 1771.19   12.12
  -2  -2   4 1818.32   12.38
   2   2  -3   63.20    0.89
  -2  -2   3   61.56    0.80
   2   2  -3   61.30    0.88
   2   2  -3   68.09    1.39
  -2  -2   3   62.14    1.26
   2   2  -3   64.39    1.01
  -2  -2   3   62.62    0.91
   2   2  -2   89.99    1.07
  -2  -2   2   89.68    1.00
   2   2  -2   87.66    1.05
   2   2  -2   90.17    1.06
   2   2  -2   88.05    1.29
  -2  -2   2   87.44    1.18
   2   2  -2   89.82    1.18
  -2  -2   2   87.25    1.09
   2   2  -1    9.26    0.40
  -2  -2   1    9.04    0.37
   2   2  -1   10.23    0.81
   2   2  -1    8.35    0.38
  -2  -2   1   10.67    0.98
   2   2  -1    7.97    0.44
  -2  -2   1    8.04    0.35
   2   2   0   93.51    1.09
  -2  -2   0   89.55    0.98
   2   2   0   88.28    1.01
   2   2   0   89.83    1.04
  -2  -2   0   88.03    1.21
   2   2   0   89.33    1.16
  -2  -2   0   85.69    1.07
   2   2   1   16.42    0.48
  -2  -2  -1   15.89    0.45
   2   2   1   16.52    0.49
  -2  -2  -1   16.07    0.43
  -2  -2  -1   18.81    1.07
   2   2   1   20.09    1.11
  -2  -2  -1   15.21    0.47
   2   2   2   30.33    0.67
  -2  -2  -2   31.00    0.59
   2   2   2   29.00    0.55
  -2  -2  -2   30.20    0.58
   2   2   2   32.58    1.41
  -2  -2  -2   30.47    0.64
   2   2   3 1209.86    9.19
  -2  -2  -3 1224.40    9.16
   2   2   3 1207.85    9.08
  -2  -2  -3 1232.12    9.23
   2   2   3 1195.31    9.28
  -2  -2  -3 1140.80    8.70
   2   2   4    3.35    0.34
  -2  -2  -4    1.56    0.25
   2   2   4    1.56    0.29
  -2  -2  -4    1.31    0.23
   2   2   4    2.37    0.43
  -2  -2  -4    1.03    0.23
   2   2   5 5342.22   50.24
  -2  -2  -5 5488.60   51.57
   2   2   5 5216.22   49.04
  -2  -2  -5 5342.26   50.20
   2   2   5 5552.06   52.26
   2   2   6 1361.39    9.68
  -2  -2  -6 1343.24    9.35
   2   2   6 1371.47    9.58
  -2  -2  -6 1365.93    9.49
   2   2   6 1336.33    9.50
  -2  -2  -6 1307.07    9.19
   2   2   7  133.82    2.32
  -2  -2  -7  131.56    1.87
   2   2   7  137.17    1.81
  -2  -2  -7  130.20    1.69
   2   2   7  135.43    1.91
   2   2   8  308.66    3.80
   2   2   8  301.62    3.45
   2   2   8  299.21    3.44
   2   2   9    3.10    0.50
   2   2   9    2.50    0.37
  -2  -2  -9    2.95    0.40
   2   2   9    3.86    0.52
   2   2  10    1.26    0.31
   2   2  10    1.38    0.38
  -2  -2 -10    0.81    0.30
   2   2  10    0.77    0.26
   2   2  11    2.03    0.47
   2   2  11    1.83    0.37
  -2  -2 -11    1.47    0.33
   2   2  11    1.39    0.40
   2   2  12   36.85    2.32
   2   2  12   38.20    1.07
  -2  -2 -12   34.54    0.84
   2   2  13   90.45    1.44
  -2  -2 -13   89.50    1.39
  -2  -2 -14  233.24    3.70
   2   2  14  240.54    3.83
  -2  -2 -14  202.89    3.15
  -2  -2 -15  429.20    7.13
   2   2  15  444.25    7.41
  -2  -2 -16   75.26    2.21
   2   2  16   63.93    1.94
  -2  -2 -16   83.15    2.43
  -2  -2 -17  126.74    3.86
   2   2  17  134.99    4.12
  -2  -2 -17  131.47    3.95
  -2  -2 -18    2.50    0.73
   2   2  18    1.58    0.61
  -2  -2 -18    1.16    0.35
  -2  -2 -19    0.78    0.40
   2   2  19    2.59    0.82
  -2  -2 -19    1.87    0.57
  -2  -2 -20    3.28    0.70
   2   2  20    2.93    0.70
  -2  -2 -20    2.28    0.63
  -2  -2 -21    9.00    0.80
   2   2  21    7.53    0.72
  -2  -2 -21    9.89    0.91
  -2  -2 -22   42.31    4.87
   2   2  22   50.57    5.80
  -2  -2 -22   47.82    5.47
  -2  -2 -23    0.09    0.30
   2   3 -23    0.84    0.36
  -2  -3  23    1.21    0.41
   2   3 -22   37.67    1.99
  -2  -3  22   23.51    2.49
   2   3 -21    0.37    0.32
  -2  -3  21    2.13    0.52
   2   3 -21    1.12    0.55
   2   3 -20   54.94    6.21
  -2  -3  20   41.48    5.50
   2   3 -20   56.69    6.83
   2   3 -19    0.44    0.29
  -2  -3  19    0.88    0.36
   2   3 -19    0.23    0.23
   2   3 -18   32.98    1.92
  -2  -3  18   35.95    2.53
   2   3 -18   35.84    3.02
   2   3 -17   -0.08    0.19
  -2  -3  17    0.91    0.30
   2   3 -17    1.30    0.41
   2   3 -17    1.36    0.43
   2   3 -16    0.53    0.27
  -2  -3  16    0.65    0.28
   2   3 -16    0.30    0.22
   2   3 -16    0.77    0.34
   2   3 -15    1.63    0.34
  -2  -3  15    1.94    0.43
   2   3 -15    2.87    0.46
   2   3 -15    1.09    0.27
   2   3 -14    0.72    0.38
  -2  -3  14    1.29    0.32
   2   3 -14    0.68    0.26
   2   3 -14    1.67    0.43
   2   3 -13  153.55    2.77
  -2  -3  13  154.20    4.29
   2   3 -13  157.05    3.82
   2   3 -13  162.69    2.90
   2   3 -12   -0.14    0.33
   2   3 -12    1.02    0.39
   2   3 -12   -0.39    0.26
   2   3 -11  676.00    8.89
  -2  -3  11  800.26  113.97
   2   3 -11  846.64  120.56
  -2  -3  10  267.72    3.54
   2   3 -10  270.92    1.86
   2   3 -10  262.55    2.01
   2   3  -9  849.15   11.98
  -2  -3   9  858.06   12.09
  -2  -3   9  871.21   12.30
   2   3  -9  858.32   12.13
   2   3  -9  861.44   12.20
  -2  -3   9  883.99   12.48
   2   3  -8   35.04    0.90
  -2  -3   8   33.01    0.75
  -2  -3   8   37.16    1.86
   2   3  -8   35.39    0.86
   2   3  -8   40.51    2.11
   2   3  -8   33.84    0.89
  -2  -3   8   38.00    0.85
   2   3  -7  162.03    2.18
  -2  -3   7  167.75    2.18
  -2  -3   7  167.75    2.38
   2   3  -7  164.83    2.19
   2   3  -7  160.25    2.43
   2   3  -7  166.07    2.33
  -2  -3   7  166.44    2.24
   2   3  -6   65.45    1.07
  -2  -3   6   68.54    1.04
  -2  -3   6   70.47    1.70
   2   3  -6   66.34    1.07
   2   3  -6   68.55    1.78
   2   3  -6   66.61    1.17
  -2  -3   6   70.93    1.17
   2   3  -5  164.86    1.88
  -2  -3   5  170.04    1.88
  -2  -3   5  170.78    1.95
   2   3  -5  167.64    1.89
   2   3  -5  173.48    2.33
   2   3  -5  176.79    2.19
  -2  -3   5  170.50    2.03
   2   3  -4    5.12    0.30
  -2  -3   4    6.53    0.54
   2   3  -4    5.76    0.27
   2   3  -4    4.87    0.27
   2   3  -4    7.64    0.76
  -2  -3   4    6.54    0.70
   2   3  -4    7.18    0.47
  -2  -3   4    8.62    0.46
   2   3  -3  145.11    1.64
  -2  -3   3  149.90    1.64
   2   3  -3  152.90    1.71
   2   3  -3  144.11    1.62
   2   3  -3  146.36    2.16
  -2  -3   3  147.50    2.03
   2   3  -3  152.86    2.27
  -2  -3   3  150.12    1.84
   2   3  -2   47.42    0.63
  -2  -3   2   48.51    0.60
   2   3  -2   47.12    0.73
   2   3  -2   48.22    0.65
   2   3  -2   46.00    0.88
  -2  -3   2   52.52    1.48
   2   3  -2   53.83    1.72
  -2  -3   2   49.94    0.84
   2   3  -1  485.99    3.50
  -2  -3   1  496.97    3.54
   2   3  -1  495.69    3.64
   2   3  -1  487.74    3.51
  -2  -3   1  494.40    3.84
   2   3  -1  510.76    4.05
  -2  -3   1  490.88    3.80
   2   3   0   20.53    1.13
  -2  -3   0   17.17    0.37
   2   3   0   18.38    1.12
   2   3   0   18.38    0.41
  -2  -3   0   17.94    1.07
   2   3   0   17.52    1.61
  -2  -3   0   20.16    0.59
   2   3   1   11.04    0.74
  -2  -3  -1    8.66    0.31
   2   3   1   10.29    0.72
  -2  -3  -1   10.15    0.36
  -2  -3  -1    9.94    0.78
   2   3   1   12.63    1.22
  -2  -3  -1    8.46    0.42
   2   3   2   20.67    1.17
  -2  -3  -2   19.59    0.46
   2   3   2   21.10    0.51
  -2  -3  -2   19.22    0.44
  -2  -3  -2   20.09    1.20
   2   3   2   23.90    1.36
  -2  -3  -2   18.72    0.55
   2   3   3   95.19    1.81
  -2  -3  -3   95.52    1.23
   2   3   3   95.81    1.27
  -2  -3  -3   96.18    1.24
   2   3   3  101.38    1.64
  -2  -3  -3   89.71    1.31
   2   3   4   10.35    0.76
  -2  -3  -4    9.57    0.37
   2   3   4    8.95    0.43
  -2  -3  -4    8.35    0.42
   2   3   4   13.34    1.15
  -2  -3  -4    7.95    0.39
   2   3   5    0.79    0.29
  -2  -3  -5    0.57    0.28
   2   3   5    0.38    0.23
  -2  -3  -5    0.79    0.27
   2   3   5    0.96    0.35
   2   3   6  270.94    3.39
   2   3   6  277.90    3.09
   2   3   6  275.43    3.25
   2   3   7   97.37    2.91
  -2  -3  -7   82.11    2.73
   2   3   7   89.98    1.54
  -2  -3  -7   92.57    1.45
   2   3   7   93.02    1.76
  -2  -3  -8  536.78    6.46
   2   3   9    4.19    0.68
   2   3   9    4.05    0.65
  -2  -3  -9    3.99    0.58
   2   3   9    5.79    0.95
   2   3  10   21.04    2.98
  -2  -3 -10   21.11    2.97
   2   3  10   22.66    0.81
  -2  -3 -11    0.51    0.45
   2   3  11    0.85    0.49
  -2  -3 -11    1.14    0.43
  -2  -3 -12   11.15    1.56
   2   3  12   11.30    1.55
  -2  -3 -12   11.12    1.50
  -2  -3 -13    5.42    0.95
   2   3  13    2.07    0.55
  -2  -3 -13    4.90    0.85
  -2  -3 -14   19.79    0.97
   2   3  14   17.74    0.93
  -2  -3 -14   18.57    0.84
  -2  -3 -15  886.43   32.91
   2   3  15  889.80   46.73
  -2  -3 -16   36.98    1.56
   2   3  16   36.34    1.64
  -2  -3 -16   50.06    1.98
  -2  -3 -17  355.39   10.48
   2   3  17  354.72   10.49
  -2  -3 -17  373.77   10.98
  -2  -3 -18   43.76    1.28
   2   3  18   42.62    1.19
  -2  -3 -18   45.27    1.18
  -2  -3 -19    6.47    0.74
   2   3  19    7.26    0.79
  -2  -3 -19    5.70    0.61
  -2  -3 -20   31.78    1.39
   2   3  20   30.64    1.42
  -2  -3 -20   27.65    1.20
  -2  -3 -21    0.96    0.38
   2   3  21    2.21    0.67
  -2  -3 -21    1.43    0.51
  -2  -3 -22    6.45    0.67
   2   3  22    9.34    0.90
  -2  -3 -22    6.32    0.65
  -2  -3 -23    3.42    0.45
   2   4 -19   24.02    3.85
   2   4 -18   28.48    1.28
  -2  -4  18   23.28    2.03
   2   4 -18   27.94    2.93
   2   4 -17   25.56    0.98
  -2  -4  17   20.42    1.60
   2   4 -17   25.71    2.38
   2   4 -16   13.60    0.62
  -2  -4  16   12.87    0.95
   2   4 -16   14.94    1.50
   2   4 -15    9.10    1.81
  -2  -4  15    7.77    1.38
   2   4 -15   11.59    1.07
   2   4 -14    7.90    0.53
  -2  -4  14    5.58    0.62
   2   4 -14   10.90    0.97
   2   4 -14    6.81    0.52
   2   4 -13    0.91    0.29
  -2  -4  13    0.88    0.29
   2   4 -13    0.02    0.36
   2   4 -13    1.40    0.31
   2   4 -12    5.41    0.73
  -2  -4  12    4.47    0.63
   2   4 -12    5.79    1.00
   2   4 -12    5.42    0.73
   2   4 -11   -0.03    0.12
   2   4 -11    1.99    0.50
  -2  -4  11    0.78    0.25
   2   4 -11    0.70    0.22
   2   4 -11    1.38    0.49
   2   4 -11    0.26    0.17
   2   4 -10   12.38    2.04
   2   4 -10   21.78    2.55
  -2  -4  10   19.59    3.08
   2   4 -10   18.77    2.72
   2   4 -10   25.10    1.62
   2   4 -10   22.60    2.65
   2   4  -9    0.15    0.15
   2   4  -9    0.68    0.28
  -2  -4   9    0.35    0.16
   2   4  -9    0.52    0.20
   2   4  -9    0.24    0.22
   2   4  -9    0.60    0.27
  -2  -4   9    0.55    0.20
   2   4  -8   75.73    1.24
  -2  -4   8   81.36    1.80
   2   4  -8   80.49    1.32
   2   4  -8   82.76    3.11
   2   4  -8   77.91    1.58
  -2  -4   8   80.42    1.35
   2   4  -7    0.31    0.18
  -2  -4   7    0.77    0.19
   2   4  -7    0.68    0.21
   2   4  -7    1.48    0.37
   2   4  -7    0.83    0.29
  -2  -4   7    0.92    0.25
   2   4  -6    2.73    0.43
   2   4  -6    3.27    0.51
   2   4  -6    3.09    0.55
   2   4  -6    3.25    0.60
  -2  -4   6    3.04    0.49
   2   4  -5    0.84    0.15
  -2  -4   5    1.19    0.21
   2   4  -5    1.45    0.26
   2   4  -5    1.17    0.19
   2   4  -5    1.70    0.30
   2   4  -5    0.54    0.19
  -2  -4   5    1.64    0.28
   2   4  -4    0.98    0.16
  -2  -4   4    0.66    0.11
   2   4  -4    1.77    0.26
   2   4  -4    0.53    0.11
   2   4  -4    1.21    0.30
   2   4  -4    1.13    0.32
  -2  -4   4    1.14    0.27
  -2  -4   3  103.66    1.52
   2   4  -3  107.68    1.58
   2   4  -3  112.58    2.14
   2   4  -3  114.26    2.75
  -2  -4   3  108.78    1.84
   2   4  -2   98.53    1.45
  -2  -4   2   99.45    1.88
   2   4  -2  110.46    2.15
  -2  -4   2  101.12    1.73
  -2  -4   1  920.89   10.36
   2   4  -1  933.05   10.51
  -2  -4   1  925.19   10.75
   2   4  -1 1038.51   12.57
  -2  -4   1  962.69   11.18
  -2  -4   0   58.93    0.81
   2   4   0   52.39    0.98
  -2  -4   0   55.44    1.26
  -2  -4   0   54.85    1.07
   2   4   1  745.38    8.53
  -2  -4  -1  731.66    8.31
   2   4   1  739.07    8.43
  -2  -4  -1  740.21    8.78
   2   4   1  769.61    9.14
   2   4   2  205.39    2.63
  -2  -4  -2  205.62    2.50
   2   4   2  210.53    2.57
  -2  -4  -2  203.68    2.47
  -2  -4  -2  203.40    3.08
  -2  -4  -3   24.57    0.57
   2   4   3   25.56    0.64
  -2  -4  -3   26.28    0.60
  -2  -4  -3   23.24    1.61
   2   4   3   23.83    1.36
  -2  -4  -4   21.71    0.56
   2   4   4   23.38    0.66
  -2  -4  -4   20.97    2.28
  -2  -4  -4   22.03    1.55
   2   4   4   24.06    1.33
  -2  -4  -5    0.31    0.16
  -2  -4  -5    0.87    0.28
   2   4   5    0.45    0.31
  -2  -4  -5    1.05    0.27
   2   4   5    0.47    0.26
  -2  -4  -6   10.42    1.18
  -2  -4  -6   10.65    1.21
   2   4   6   12.26    1.41
  -2  -4  -6   11.03    1.24
   2   4   6   11.96    1.58
  -2  -4  -7    1.53    0.31
  -2  -4  -7    1.16    0.28
   2   4   7    1.02    0.27
  -2  -4  -7    1.99    0.36
   2   4   7    1.42    0.41
  -2  -4  -8   44.81    1.96
  -2  -4  -8   56.43    1.04
   2   4   8   52.27    1.07
  -2  -4  -8   47.66    1.95
   2   4   8   51.20    1.19
   2   4   9   93.79    1.73
  -2  -4 -10   69.95    1.43
   2   4  10   67.59    1.47
  -2  -4 -10   67.62    1.37
  -2  -4 -11   41.53    1.16
   2   4  11   40.50    1.31
  -2  -4 -11   35.34    0.96
  -2  -4 -12    6.02    0.87
   2   4  12    4.97    0.75
  -2  -4 -12    5.15    0.75
  -2  -4 -13   41.58    1.89
   2   4  13   39.92    1.81
  -2  -4 -13   39.44    1.74
  -2  -4 -14    5.21    0.75
   2   4  14    4.61    0.65
  -2  -4 -14    4.20    0.60
  -2  -4 -15   10.19    0.68
   2   4  15    9.73    0.66
  -2  -4 -15    9.99    0.62
  -2  -4 -16    0.60    0.49
   2   4  16    1.02    0.41
  -2  -4 -16    0.00    0.30
  -2  -4 -17   21.11    1.42
   2   4  17   18.38    1.29
  -2  -4 -17   18.04    1.21
  -2  -4 -18    4.45    1.02
   2   4  18    3.55    1.00
  -2  -4 -18    4.56    1.01
  -2  -4 -19    0.77    0.33
   2   4  19    1.02    0.41
  -2  -4 -19    1.92    0.62
  -2  -4 -20    3.90    1.48
   2   4  20    6.20    0.92
  -2  -4 -20    9.20    1.36
  -2  -4 -21    1.48    0.50
   2   4  21    1.37    0.50
  -2  -4 -21    2.00    0.55
  -2  -4 -22    2.25    0.45
   2   5 -18    0.70    0.55
   2   5 -17   21.84    4.00
   2   5 -16   14.57    1.58
   2   5 -15  290.08    7.55
   2   5 -14    2.69    0.61
   2   5 -13   38.23    2.89
   2   5 -12    0.02    0.19
   2   5 -11   13.73    1.21
   2   5 -11    9.71    1.00
   2   5 -10    1.19    0.25
   2   5 -10    1.23    0.42
   2   5 -10    0.24    0.17
   2   5  -9   25.07    1.02
   2   5  -9   31.57    2.20
   2   5  -9   25.91    1.75
   2   5  -8   17.27    1.20
   2   5  -8   14.20    2.00
   2   5  -7  142.26    5.22
   2   5  -7  140.11    4.07
  -2  -5   7  137.76    3.00
   2   5  -6  534.96    8.78
   2   5  -6  515.71    9.24
  -2  -5   6  488.73    7.75
   2   5  -5  746.67   11.85
   2   5  -5  735.68   11.94
  -2  -5   5  689.24   10.83
   2   5  -4   61.43    1.34
   2   5  -4   60.74    1.75
  -2  -5   4   54.72    1.05
   2   5  -3    1.97    0.39
   2   5  -2    5.34    0.82
   2   5  -1    4.74    0.75
   2   5   0    4.76    0.76
  -2  -5  -1   56.29    1.16
   2   5   1   65.89    2.49
  -2  -5  -2    3.29    0.43
  -2  -5  -2    3.74    0.69
   2   5   2    6.19    0.96
  -2  -5  -3    3.53    0.48
  -2  -5  -3    4.54    0.61
   2   5   3    3.86    0.52
  -2  -5  -3    3.53    0.48
  -2  -5  -3    3.57    0.59
   2   5   3    5.35    0.96
  -2  -5  -4  785.28   10.05
  -2  -5  -4  790.61  112.55
   2   5   4  791.84  112.73
  -2  -5  -4  739.10    9.45
  -2  -5  -4  751.92    9.81
   2   5   4  856.91  122.04
  -2  -5  -5   11.53    1.49
  -2  -5  -5   11.95    1.54
   2   5   5   11.65    1.51
  -2  -5  -5   12.12    1.56
  -2  -5  -5   10.48    1.57
   2   5   5   16.62    2.28
  -2  -5  -6    4.90    0.77
  -2  -5  -6    5.77    0.90
   2   5   6    6.33    0.96
  -2  -5  -6    5.70    0.86
   2   5   6    6.20    1.07
  -2  -5  -7   16.19    2.36
  -2  -5  -7   19.19    2.79
   2   5   7   19.37    2.83
  -2  -5  -7   17.64    2.57
  -2  -5  -8   30.16    0.93
   2   5   8   30.18    0.95
  -2  -5  -8   31.25    0.98
  -2  -5  -9   10.35    1.29
   2   5   9   10.19    1.29
  -2  -5  -9   10.00    1.24
  -2  -5 -10    4.38    0.60
   2   5  10    6.43    0.82
  -2  -5 -10    5.79    0.74
  -2  -5 -11  183.82    6.97
   2   5  11  179.98    6.85
  -2  -5 -11  167.98    6.41
  -2  -5 -12   15.72    0.80
   2   5  12   15.34    0.83
  -2  -5 -12   17.06    0.78
  -2  -5 -13   67.75    2.27
   2   5  13   67.41    2.27
  -2  -5 -13   61.59    2.01
  -2  -5 -14    5.41    0.57
   2   5  14    3.76    0.82
  -2  -5 -14    4.98    0.42
  -2  -5 -15    2.90    0.64
   2   5  15    1.49    0.36
  -2  -5 -15    2.68    0.62
  -2  -5 -16   13.99    0.77
   2   5  16   17.24    0.90
  -2  -5 -16   16.89    0.83
  -2  -5 -17    1.83    0.51
   2   5  17    1.72    0.49
  -2  -5 -17    3.39    0.79
  -2  -5 -18    6.58    0.95
   2   5  18    7.54    1.07
  -2  -5 -18    7.51    1.03
  -2  -5 -19    1.39    0.41
   2   5  19    2.17    0.56
  -2  -5 -20    3.63    0.57
   2   5  20    2.93    0.52
   2   6 -16   11.46    1.94
   2   6 -15    1.04    0.56
   2   6 -14   22.24    3.65
   2   6 -13    3.30    0.90
   2   6 -12   14.01    1.40
   2   6 -11    9.00    1.03
   2   6 -10    8.54    0.76
   2   6  -9    3.88    0.89
   2   6  -8    0.00    0.24
   2   6  -7    5.94    1.09
   2   6  -7    4.16    0.83
   2   6  -6   40.62    2.58
   2   6  -6   39.65    2.02
   2   6  -5    1.39    0.39
   2   6  -5    0.91    0.33
   2   6  -4   56.45    3.20
   2   6  -3  324.02   12.27
   2   6  -2    4.52    0.73
   2   6  -1    0.46    0.21
   2   6   0    4.05    0.66
   2   6   1    0.52    0.26
   2   6   7  344.09    9.41
  -2  -6  -7  418.61   11.48
  -2  -6  -8   39.69    1.52
   2   6   8   40.92    1.38
  -2  -6  -8   48.65    1.62
  -2  -6  -9    6.61    1.07
   2   6   9    6.48    1.08
  -2  -6  -9    7.45    1.18
  -2  -6 -10    0.29    0.17
   2   6  10    0.37    0.20
  -2  -6 -10    0.40    0.19
  -2  -6 -11    1.15    0.33
   2   6  11    0.22    0.15
  -2  -6 -12    0.51    0.24
   2   6  12    1.29    0.32
  -2  -6 -13    0.46    0.24
   2   6  13    0.81    0.33
  -2  -6 -14    1.58    0.46
   2   6  14    2.13    0.54
  -2  -6 -15    3.84    1.45
   2   6  15    1.90    0.53
  -2  -6 -16    1.29    0.37
   2   6  16    1.05    0.48
  -2  -6 -17    0.86    0.42
   2   6  17    0.19    0.20
   2   6  18    0.45    0.24
   2   7 -14    3.01    0.69
   2   7 -13    1.32    0.55
   2   7 -12    1.69    0.48
   2   7 -11    1.63    0.44
   2   7 -10   82.79    9.71
   2   7  -9   57.79    4.05
   2   7  -8    2.43    0.65
  -3   6  13    0.23    0.17
   3  -6 -12    1.31    0.52
  -3   6  12    0.49    0.28
   3  -6 -11    1.19    0.44
  -3   6  11    0.04    0.16
   3  -6 -11    0.36    0.26
   3  -6 -10    0.47    0.31
   3  -6 -10    2.35    0.61
   3  -6  -9    3.60    0.72
   3  -6  -9    3.83    0.76
   3  -6  -9    3.67    0.74
   3  -6  -8   36.86    1.85
   3  -6  -8   35.40    1.80
   3  -6  -8   30.53    1.59
   3  -6  -7    0.70    0.43
   3  -6  -7    1.34    0.54
   3  -6  -7    0.25    0.26
   3  -6  -6   25.05    2.91
   3  -6  -6   29.36    3.39
   3  -6  -6   27.91    3.25
   3  -6  -5    1.51    0.62
   3  -6  -5    0.69    0.34
   3  -6  -4    2.39    0.60
   3  -6  -4    3.86    0.91
   3  -6  -4    3.62    0.84
   3  -6  -3    0.36    0.24
   3  -6  -3    0.33    0.30
   3  -6  -3    1.17    0.43
   3  -6  -2    5.74    0.50
   3  -6  -2    6.47    0.50
   3  -6  -2    6.91    0.61
   3  -6  -1    1.11    0.41
   3  -6  -1    1.76    0.59
   3  -6   0    6.97    0.54
   3  -6   0    6.75    0.49
   3  -5 -15    2.26    0.40
  -3   5  15    0.96    0.29
   3  -5 -14    0.28    0.31
  -3   5  14    2.00    0.43
   3  -5 -14    0.66    0.41
   3  -5 -13    7.37    0.68
  -3   5  13    6.96    1.05
   3  -5 -13    9.33    0.83
   3  -5 -12   58.88    6.68
  -3   5  12   41.75    5.74
   3  -5 -12   59.63    6.77
   3  -5 -11    2.24    0.60
  -3   5  11    2.10    0.56
   3  -5 -11    2.46    0.73
   3  -5 -10    2.24    0.78
  -3   5  10    1.91    0.70
   3  -5 -10    1.75    0.66
   3  -5  -9    1.36    0.62
  -3   5   9    0.40    0.31
   3  -5  -9    0.98    0.51
   3  -5  -8   12.14    0.90
  -3   5   8   11.79    0.89
   3  -5  -8   12.10    0.96
   3  -5  -7   22.17    1.42
   3  -5  -7   20.69    1.38
   3  -5  -6   52.30    1.21
   3  -5  -6   53.14    1.24
   3  -5  -6   49.85    1.17
   3  -5  -5   15.83    0.72
   3  -5  -5   16.33    0.78
   3  -5  -5   17.14    0.83
   3  -5  -4   26.41    1.15
   3  -5  -4   27.63    1.14
   3  -5  -4   25.36    1.10
   3  -5  -3    0.24    0.17
   3  -5  -3    0.75    0.38
   3  -5  -3    2.22    0.56
   3  -5  -2    9.40    0.63
   3  -5  -2    7.01    1.17
   3  -5  -2    8.02    1.31
   3  -5  -1    0.95    0.27
   3  -5  -1    1.83    0.46
   3  -5  -1    1.95    0.48
   3  -5   0    0.23    0.26
   3  -5   0    1.85    0.49
   3  -5   0    0.49    0.24
   3  -5   1   22.75    1.01
   3  -5   1   19.92    0.96
   3  -5   1   19.70    0.84
   3  -5   2    5.75    0.97
   3  -5   2    6.45    1.16
   3  -5   2    6.27    1.03
   3  -5   3   41.80    1.54
   3  -5   3   38.72    1.43
   3  -5   3   33.53    1.18
   3  -5   4  235.40    7.00
   3  -5   4  229.27    6.83
   3  -5   5   86.50    2.20
   3  -5   5   85.69    1.31
   3  -5   6  136.00    3.06
   3  -5   6  159.62    1.71
   3  -5   7    3.99    0.87
   3  -5   7    2.92    0.73
   3  -5   8   15.63    1.38
   3  -5   8   17.36    1.15
   3  -5   9    1.95    0.52
   3  -5   9    3.38    0.61
   3  -5  10    4.34    1.06
   3  -5  10    4.87    0.46
   3  -5  11    0.71    0.30
   3  -5  11    1.12    0.52
   3  -5  12   11.39    1.33
   3  -5  12   18.59    1.02
   3  -4 -17    2.67    0.83
   3  -4 -16    9.88    0.82
  -3   4  16    8.93    1.32
   3  -4 -16    9.32    0.84
   3  -4 -15   12.94    1.65
  -3   4  15    9.30    2.03
   3  -4 -15   13.30    1.72
   3  -4 -14    6.89    0.68
  -3   4  14    7.97    1.35
   3  -4 -14    7.29    0.76
   3  -4 -13    1.15    0.57
  -3   4  13   -0.12    0.33
   3  -4 -13    0.21    0.38
   3  -4 -12  107.20    5.73
  -3   4  12   98.28    5.39
   3  -4 -12  101.93    5.46
   3  -4 -11    0.77    0.45
  -3   4  11    0.40    0.33
   3  -4 -11    0.72    0.48
   3  -4 -10   49.64    1.86
  -3   4  10   49.22    3.28
   3  -4 -10   50.42    1.96
   3  -4  -9   20.59    1.03
  -3   4   9   20.90    2.30
   3  -4  -9   20.95    1.12
   3  -4  -8    4.37    0.53
  -3   4   8    3.91    0.63
   3  -4  -8    4.30    0.59
   3  -4  -7    0.09    0.26
  -3   4   7    0.83    0.43
   3  -4  -7    0.47    0.36
   3  -4  -6    2.59    0.49
  -3   4   6    1.94    0.46
   3  -4  -6    2.27    0.44
   3  -4  -5    0.92    0.36
   3  -4  -5    1.45    0.46
   3  -4  -5    0.66    0.44
   3  -4  -3  377.46    8.13
   3  -4  -3  452.86    9.72
   3  -4  -3  354.63    7.63
   3  -4  -2  787.13   16.32
   3  -4  -2  815.64   16.86
  -3   4   2  732.99   14.97
   3  -4  -2  802.51   16.63
   3  -4  -1  685.57   14.22
   3  -4  -1  756.15   15.67
  -3   4   1  705.78   14.41
   3  -4  -1  657.42   13.61
   3  -4   0   45.59    1.38
   3  -4   0   53.98    1.86
  -3   4   0   36.25    0.91
   3  -4   0   42.16    1.24
   3  -4   1   58.69    1.60
   3  -4   1   53.58    1.48
  -3   4  -1   56.69    1.36
   3  -4   1   58.52    1.54
   3  -4   2    9.21    1.17
   3  -4   2   10.23    1.31
  -3   4  -2    7.59    0.94
   3  -4   2    9.90    1.22
   3  -4   3   18.24    0.80
   3  -4   3   19.89    0.83
  -3   4  -3   21.80    0.81
   3  -4   3   19.55    0.71
   3  -4   4   10.60    1.34
   3  -4   4   11.63    1.45
  -3   4  -4   11.54    1.48
   3  -4   4   10.06    1.22
   3  -4   5    8.72    1.18
   3  -4   5    8.50    1.11
  -3   4  -5    8.62    1.09
   3  -4   5    7.72    0.95
   3  -4   6    3.44    0.65
   3  -4   6    5.01    0.69
  -3   4  -6    3.82    0.56
   3  -4   6    3.02    0.40
   3  -4   7    0.09    0.20
   3  -4   7   -0.22    0.22
  -3   4  -7    1.13    0.44
   3  -4   7    0.44    0.14
   3  -4   8   17.24    1.17
   3  -4   8   15.23    0.79
  -3   4  -8   17.51    0.82
   3  -4   9    2.75    0.32
   3  -4   9    1.95    0.37
  -3   4  -9    2.78    0.37
   3  -4  10    4.30    0.86
   3  -4  10    2.62    0.58
  -3   4 -10    1.77    0.43
   3  -4  11    2.37    0.54
   3  -4  11    4.97    0.55
  -3   4 -11    4.43    0.96
   3  -4  12   28.27    1.78
   3  -4  12   28.90    0.98
  -3   4 -12   30.51    0.90
   3  -4  13    0.31    0.16
   3  -4  13    0.88    0.48
  -3   4 -13    1.34    0.42
   3  -4  14   36.37    2.80
   3  -4  14   50.05    1.68
  -3   4 -14   49.24    1.60
   3  -4  15    0.04    0.20
   3  -4  15    0.91    0.56
  -3   4 -15    0.41    0.27
   3  -4  16   24.55    3.42
   3  -4  16   34.09    3.94
  -3   4 -16   34.19    3.93
   3  -4  17    0.34    0.25
   3  -4  17    1.20    0.68
  -3   4 -17    1.08    0.58
   3  -4  18   28.15    3.85
   3  -4  18   56.83    2.67
  -3   4 -18   47.07    2.26
   3  -4  19    7.64    0.76
  -3   4 -19    7.95    0.70
   3  -3 -18   16.67    1.18
  -3   3  18   13.90    2.25
   3  -3 -18   16.23    1.12
   3  -3 -17   13.81    1.80
  -3   3  17   12.41    2.31
   3  -3 -17   19.24    2.34
   3  -3 -16    1.15    0.55
  -3   3  16    0.81    0.45
   3  -3 -16   -0.17    0.30
   3  -3 -15    2.27    0.62
  -3   3  15    1.31    0.47
   3  -3 -15    1.15    0.33
   3  -3 -14    0.74    0.35
  -3   3  14    0.69    0.49
   3  -3 -14    0.31    0.17
   3  -3 -13    8.70    1.79
  -3   3  13    7.74    1.48
   3  -3 -13    6.29    1.24
   3  -3 -13    5.88    1.05
   3  -3 -12    0.72    0.41
  -3   3  12    0.63    0.35
   3  -3 -12    0.69    0.22
   3  -3 -12    0.84    0.39
   3  -3 -11    4.78    0.55
  -3   3  11    5.65    0.97
   3  -3 -11    5.11    0.53
   3  -3 -11    4.61    0.65
   3  -3 -10   27.26    1.39
  -3   3  10   35.49    2.85
   3  -3 -10   26.20    1.32
   3  -3  -9  210.77    4.75
  -3   3   9  209.24    5.16
   3  -3  -9  209.36    4.83
   3  -3  -8   11.62    1.49
  -3   3   8   13.83    2.20
  -3   3   8    9.13    1.11
   3  -3  -8   12.17    1.63
   3  -3  -7  376.62    6.31
  -3   3   7  383.16    7.06
   3  -3  -7  364.91    6.10
   3  -3  -6   13.10    2.01
  -3   3   6   14.10    2.49
  -3   3   6   11.68    1.71
   3  -3  -6   10.63    1.67
   3  -3  -5   47.40    1.22
  -3   3   5   45.53    1.22
  -3   3   5   41.16    1.23
   3  -3  -5   44.64    1.17
   3  -3  -4   12.46    1.70
  -3   3   4   10.55    1.54
   3  -3  -4   13.54    1.83
   3  -3  -3   32.72    1.05
   3  -3  -3   33.84    1.12
  -3   3   3   28.33    1.27
   3  -3  -3   29.84    1.05
   3  -3  -2   70.41    1.31
  -3   3   2   58.64    1.16
   3  -3  -2   69.64    1.20
   3  -3  -1  123.89    1.57
   3  -3  -1  121.45    1.45
  -3   3  -1  207.24    1.48
   3  -3   1  204.54    1.67
  -3   3  -2  518.37    2.47
   3  -3   2  506.74    2.60
   3  -3   3   42.95    1.05
   3  -3   3   37.08    0.94
   3  -3   3   36.72    0.75
   3  -3   4  131.13    2.26
   3  -3   4  136.39    2.34
   3  -3   4  135.53    2.11
   3  -3   5   53.75    1.28
   3  -3   5   58.01    1.35
  -3   3  -5   50.24    1.08
   3  -3   5   53.85    1.05
   3  -3   6   65.42    1.49
   3  -3   6   65.37    1.41
  -3   3  -6   66.43    1.34
   3  -3   6   63.56    1.13
   3  -3   7   16.06    2.64
   3  -3   7    9.12    1.45
  -3   3  -7    7.94    1.22
   3  -3   7    7.06    1.07
   3  -3   8    1.56    0.35
   3  -3   8    1.47    0.47
  -3   3  -8    0.97    0.43
   3  -3   8    1.45    0.27
   3  -3   9   62.88    3.40
   3  -3   9   60.27    2.54
  -3   3  -9   59.04    1.62
   3  -3   9   51.88    1.59
   3  -3  10   18.16    1.38
   3  -3  10   20.08    0.96
  -3   3 -10   17.18    0.98
   3  -3  10   13.53    1.74
   3  -3  11    4.72    0.68
   3  -3  11    3.16    0.51
  -3   3 -11    6.76    0.93
   3  -3  12    3.58    0.54
   3  -3  12    3.19    0.45
  -3   3 -12    3.36    0.65
   3  -3  13    4.18    0.82
   3  -3  13    4.06    0.78
  -3   3 -13    3.42    0.67
   3  -3  14    0.85    0.38
   3  -3  14    0.93    0.42
  -3   3 -14    0.44    0.33
   3  -3  15    2.07    0.53
   3  -3  15    2.43    0.63
  -3   3 -15    1.70    0.49
   3  -3  16    0.94    0.40
   3  -3  16    1.38    0.64
  -3   3 -16    0.37    0.35
   3  -3  17   35.25    3.00
   3  -3  17   46.21    2.08
  -3   3 -17   45.13    1.99
   3  -3  18   50.36    6.78
   3  -3  18   70.51    7.96
  -3   3 -18   82.93    9.34
   3  -3  19  312.03   13.93
  -3   3 -19  275.54   11.31
  -3   3 -20    1.76    0.51
   3  -3  20    2.42    0.59
  -3   3 -20    1.84    0.56
   3  -2 -20    6.21    1.07
  -3   2  19   23.28    3.58
   3  -2 -19   17.14    2.43
   3  -2 -19   29.59    3.47
   3  -2 -18   28.14    1.67
  -3   2  18   14.69    2.28
   3  -2 -18   12.57    2.00
   3  -2 -18   24.97    1.36
   3  -2 -17   13.43    1.10
  -3   2  17    5.73    0.99
   3  -2 -17    4.72    0.69
   3  -2 -17    7.69    0.74
   3  -2 -16    2.91    0.83
  -3   2  16    1.22    0.42
   3  -2 -16    0.68    0.26
   3  -2 -16    1.79    0.58
   3  -2 -15    1.16    0.53
  -3   2  15    1.00    0.42
   3  -2 -15    1.92    0.49
   3  -2 -15    0.94    0.42
   3  -2 -14    2.83    0.62
  -3   2  14    3.83    0.95
   3  -2 -14    2.75    0.56
   3  -2 -14    3.66    0.77
   3  -2 -13    0.81    0.42
  -3   2  13    0.97    0.41
   3  -2 -13    0.72    0.25
   3  -2 -13    0.35    0.39
   3  -2 -12    4.36    0.71
  -3   2  12    5.31    0.84
   3  -2 -12    5.38    0.75
   3  -2 -12    4.45    0.66
   3  -2 -11    2.77    0.55
  -3   2  11    2.24    0.39
   3  -2 -11    3.25    0.55
   3  -2 -11    3.66    0.70
   3  -2 -10    5.20    0.91
  -3   2  10    6.53    1.17
   3  -2 -10    5.39    0.96
   3  -2 -10    6.00    1.00
   3  -2  -9    0.68    0.32
  -3   2   9    0.93    0.33
   3  -2  -9    0.27    0.21
   3  -2  -9    1.32    0.55
   3  -2  -8    1.96    0.62
  -3   2   8    1.73    0.45
   3  -2  -8    1.76    0.38
  -3   2   8    1.81    0.40
   3  -2  -8    1.06    0.38
  -3   2   7  249.58    3.06
  -3   2   6  252.19    2.87
   3  -2  -6  241.30    2.10
   3  -2  -5   60.65    1.39
  -3   2   5   67.08    1.67
  -3   2   5   70.03    1.37
   3  -2  -5   63.44    1.51
   3  -2  -4  149.59    2.59
  -3   2   4  155.70    2.75
  -3   2   4  143.93    2.77
   3  -2  -4  145.71    2.50
   3  -2  -3   81.24    1.63
   3  -2  -3   77.31    1.57
  -3   2   3   78.10    1.68
   3  -2  -3   81.02    1.61
   3  -2  -2   19.62    2.22
   3  -2  -2   20.08    2.27
  -3   2   2   16.46    2.07
   3  -2  -2   20.66    2.30
   3  -2  -1   68.87    1.47
   3  -2  -1   65.21    1.39
  -3   2   1   65.51    2.49
   3  -2  -1   71.36    1.48
   3  -2   0   15.70    1.80
   3  -2   0   13.95    1.63
  -3   2   0    9.72    1.26
   3  -2   0   16.10    1.82
   3  -2   1  139.41    2.42
   3  -2   1  142.07    2.59
   3  -2   1  147.60    2.46
   3  -2   2  152.74    2.63
   3  -2   2  144.01    2.50
   3  -2   2  154.71    2.53
   3  -2   3  604.08    8.78
  -3   2  -3  685.33    9.74
   3  -2   4   74.01    1.55
   3  -2   4   74.50    1.54
  -3   2  -4   74.38    1.47
   3  -2   4   73.28    1.39
  -3   2  -4   70.88    1.39
   3  -2   5  119.41    2.19
   3  -2   5  115.81    2.11
  -3   2  -5  125.18    2.22
   3  -2   5  114.17    1.95
  -3   2  -5  119.93    2.03
   3  -2   6   28.79    0.85
   3  -2   6   32.54    0.96
  -3   2  -6   33.83    0.89
   3  -2   6   32.57    0.78
  -3   2  -6   34.52    0.87
   3  -2   7   29.86    2.03
   3  -2   7   24.99    0.92
  -3   2  -7   17.67    2.29
   3  -2   7   19.69    0.55
  -3   2  -7   19.84    0.56
   3  -2   8  126.69    3.47
   3  -2   8  117.93    1.53
  -3   2  -8  109.67    1.36
   3  -2   8  122.78    1.51
  -3   2  -8  111.60    1.07
   3  -2   9   59.34    2.56
   3  -2   9   49.57    1.39
  -3   2  -9   53.42    1.27
   3  -2   9   50.98    1.99
  -3   2  -9   49.84    0.97
   3  -2  10   46.55    1.81
   3  -2  10   38.99    1.14
  -3   2 -10   36.51    1.14
   3  -2  10   37.71    1.62
  -3   2 -10   36.23    0.86
   3  -2  11   41.88    2.18
   3  -2  11   35.82    1.13
  -3   2 -11   38.52    1.17
   3  -2  11   35.02    1.37
  -3   2 -11   31.52    0.78
   3  -2  12    1.23    0.40
   3  -2  12    1.17    0.43
  -3   2 -12    0.68    0.31
   3  -2  12    0.47    0.19
   3  -2  13    1.72    0.44
   3  -2  13    4.71    0.83
  -3   2 -13    4.64    0.76
   3  -2  13    1.71    0.30
   3  -2  14   14.90    1.43
   3  -2  14   14.48    0.89
  -3   2 -14   14.03    0.84
   3  -2  15    0.47    0.27
   3  -2  15    1.81    0.75
  -3   2 -15    1.40    0.53
   3  -2  16    1.25    0.39
   3  -2  16    3.03    0.91
  -3   2 -16    1.52    0.51
   3  -2  17    0.75    0.46
   3  -2  17    1.30    0.47
  -3   2 -17    0.91    0.55
   3  -2  18    0.53    0.49
   3  -2  18    1.89    0.77
  -3   2 -18    1.14    0.48
   3  -2  19   18.78    2.68
   3  -2  19   28.15    1.52
  -3   2 -19   23.95    1.32
   3  -2  20   19.91    1.27
  -3   2 -20   22.72    1.36
  -3   2 -21  230.57    9.60
   3  -2  21  220.83    9.22
   3  -1 -22    3.66    0.74
   3  -1 -21    9.01    1.74
   3  -1 -21   19.26    1.30
   3  -1 -20   19.93    1.27
  -3   1  20   11.81    2.03
   3  -1 -20   10.08    2.13
   3  -1 -20   17.67    1.17
   3  -1 -19    1.67    0.73
  -3   1  19    0.74    0.49
   3  -1 -19    0.55    0.26
   3  -1 -19    0.98    0.48
   3  -1 -18    1.95    0.68
  -3   1  18    1.35    0.57
   3  -1 -18    1.42    0.56
   3  -1 -18    0.23    0.28
   3  -1 -17   19.27    1.35
  -3   1  17   16.85    1.75
   3  -1 -17   12.89    1.61
   3  -1 -17   17.10    1.23
   3  -1 -16    0.82    0.43
  -3   1  16    0.23    0.30
   3  -1 -16    0.29    0.17
   3  -1 -16    0.68    0.38
   3  -1 -15   45.91    1.81
  -3   1  15   46.02    3.37
   3  -1 -15   35.76    1.97
   3  -1 -15   40.76    1.54
   3  -1 -14   15.04    1.37
  -3   1  14   17.12    1.73
   3  -1 -14   15.12    1.51
   3  -1 -14   11.96    1.44
   3  -1 -13 1227.81  126.75
  -3   1  13  979.01   20.34
   3  -1 -13 1010.22  104.27
   3  -1 -12  153.89    3.22
  -3   1  12  150.35    4.34
   3  -1 -12  149.75    4.98
   3  -1 -11  614.58    9.94
  -3   1  11  627.45   10.47
   3  -1 -11  663.26   10.58
   3  -1 -11  634.13   10.24
   3  -1 -10    1.32    0.60
  -3   1  10    3.34    0.59
   3  -1 -10    2.23    0.41
   3  -1 -10    1.02    0.59
   3  -1  -9   15.17    2.20
  -3   1   9   21.70    1.49
   3  -1  -9   19.49    1.35
   3  -1  -9   13.90    2.05
   3  -1  -8    2.94    0.60
  -3   1   8    2.30    0.48
   3  -1  -8    3.27    0.57
   3  -1  -8    2.17    0.54
   3  -1  -7    0.71    0.35
  -3   1   7    0.18    0.29
   3  -1  -7    0.84    0.24
   3  -1  -7    0.90    0.42
   3  -1  -6    8.92    1.11
  -3   1   6   11.44    1.60
   3  -1  -6    8.82    1.03
  -3   1   6   11.05    1.35
   3  -1  -6    9.79    1.23
   3  -1  -5    0.75    0.49
  -3   1   5    0.51    0.32
  -3   1   5   -0.18    0.14
   3  -1  -5    0.27    0.39
   3  -1  -4    1.01    0.48
  -3   1   4    1.46    0.41
  -3   1   4    0.52    0.20
   3  -1  -4    0.54    0.27
   3  -1  -3    1.81    0.57
  -3   1   3    0.00    0.12
   3  -1  -3    1.31    0.49
   3  -1  -2  210.97    2.64
   3  -1  -2  208.34    2.62
  -3   1   2  193.12    2.51
   3  -1  -2  220.13    2.70
   3  -1  -1    1.24    0.37
   3  -1  -1    1.87    0.56
  -3   1   1    1.61    0.20
   3  -1  -1    1.21    0.26
  -3   1   1    1.71    0.35
   3  -1   0  170.06    2.25
   3  -1   0  168.11    2.21
  -3   1   0  154.68    2.60
   3  -1   0  173.53    2.18
  -3   1   0  157.21    2.02
   3  -1   1   52.12    1.06
   3  -1   1   52.10    1.06
   3  -1   1   53.65    1.01
  -3   1  -1   47.49    0.91
   3  -1   2  116.26    1.72
   3  -1   2  118.71    1.74
   3  -1   2  123.39    1.69
  -3   1  -2  119.55    1.65
   3  -1   3   15.85    0.70
   3  -1   3   15.50    0.68
   3  -1   3   14.98    0.59
  -3   1  -3   14.90    0.56
   3  -1   4  343.74    4.44
   3  -1   4  351.04    4.53
   3  -1   4  355.42    4.44
  -3   1  -4  331.87    4.16
   3  -1   5  782.32    9.31
   3  -1   5  781.92    9.31
   3  -1   5  803.34    9.38
  -3   1  -5  766.43    8.95
   3  -1   6   28.51    0.88
   3  -1   6   29.12    0.87
  -3   1  -6   32.79    1.00
   3  -1   6   29.50    0.73
  -3   1  -6   29.14    0.74
   3  -1   7    2.35    0.45
   3  -1   7    1.46    0.34
  -3   1  -7    1.76    0.61
   3  -1   7    1.51    0.27
  -3   1  -7    1.52    0.36
   3  -1   8    1.89    0.37
   3  -1   8    2.38    0.47
  -3   1  -8    2.61    0.60
   3  -1   8    1.71    0.28
  -3   1  -8    1.94    0.37
   3  -1   9   10.42    1.67
   3  -1   9   10.21    1.57
  -3   1  -9    6.84    1.05
   3  -1   9   10.57    1.67
  -3   1  -9    7.26    1.08
   3  -1  10  232.52    3.27
   3  -1  10  237.18    2.15
  -3   1 -10  216.23    2.08
   3  -1  10  221.00    2.02
  -3   1 -10  224.31    1.59
   3  -1  11    6.95    1.07
   3  -1  11    3.97    0.69
  -3   1 -11    5.18    0.82
   3  -1  11    6.42    1.04
  -3   1 -11    3.31    0.51
   3  -1  12  145.59    5.45
   3  -1  12  140.92    2.79
  -3   1 -12  133.27    2.63
   3  -1  12  131.09    3.23
  -3   1 -12  123.41    2.23
   3  -1  13  207.92    6.92
   3  -1  13  191.59    4.40
  -3   1 -13  189.31    4.31
   3  -1  13  178.72    4.22
   3  -1  14   74.66    2.95
   3  -1  14   74.50    2.06
  -3   1 -14   72.88    2.01
   3  -1  14   67.59    1.67
   3  -1  15  433.28   16.53
   3  -1  15  434.62   16.31
  -3   1 -15  398.64   15.01
   3  -1  16   13.34    1.10
   3  -1  16   12.40    0.88
  -3   1 -16   10.92    0.88
   3  -1  17   11.87    1.47
   3  -1  17   15.16    0.92
  -3   1 -17   13.58    0.77
   3  -1  18    1.77    0.54
   3  -1  18    2.91    0.79
  -3   1 -18    1.30    0.63
   3  -1  19    1.89    0.76
   3  -1  19    1.04    0.44
  -3   1 -19    2.32    0.90
  -3   1 -20   -0.01    0.28
   3  -1  20    1.45    0.56
  -3   1 -20    1.32    0.69
  -3   1 -21    0.67    0.38
   3  -1  21    1.22    0.58
  -3   1 -21    0.61    0.50
   3   0 -22    2.29    0.58
   3   0 -21   10.60    0.88
  -3   0  21    7.78    1.06
   3   0 -21    6.91    1.38
   3   0 -21    9.01    0.78
   3   0 -20   13.38    1.70
  -3   0  20   11.06    1.91
   3   0 -20    9.29    1.57
   3   0 -20   11.25    1.44
   3   0 -19    6.72    0.67
  -3   0  19    3.91    1.19
   3   0 -19    4.72    1.20
   3   0 -19    4.08    0.95
   3   0 -18  166.94    8.79
  -3   0  18  143.19    8.88
   3   0 -18  151.10    8.36
   3   0 -18  159.31    8.35
   3   0 -17   13.60    0.83
  -3   0  17   12.83    1.08
   3   0 -17   10.99    1.08
   3   0 -17   12.89    0.82
   3   0 -16   10.91    0.83
  -3   0  16   12.06    0.98
   3   0 -16    7.46    1.31
   3   0 -16    9.38    0.79
   3   0 -15    7.48    0.76
  -3   0  15    7.18    0.84
   3   0 -15    7.22    0.91
   3   0 -15    5.99    0.67
   3   0 -14   43.93    2.00
  -3   0  14   54.01    3.39
   3   0 -14   44.68    2.48
   3   0 -14   44.79    2.02
   3   0 -13   28.08    1.27
  -3   0  13   26.47    1.62
   3   0 -13   24.05    2.08
   3   0 -13   19.98    0.89
   3   0 -12    1.05    0.49
  -3   0  12    1.14    0.45
   3   0 -12    0.67    0.25
   3   0 -12    0.19    1.43
   3   0 -11  573.68    7.84
  -3   0  11  644.96    9.34
   3   0 -11  653.86    8.84
   3   0 -11  661.69   16.76
   3   0 -10 1130.85    5.06
  -3   0  10 1109.89    6.35
   3   0 -10 1148.08    4.89
   3   0  -9  534.01    3.08
  -3   0   9  534.60    3.16
   3   0  -9  562.23    3.10
   3   0  -8    3.30    0.74
  -3   0   8    3.69    0.57
   3   0  -8    2.25    0.41
   3   0  -8    2.10    0.47
   3   0  -7    1.13    0.31
  -3   0   7    2.78    0.45
   3   0  -7    2.56    0.44
   3   0  -7    2.31    0.57
   3   0  -6    1.90    0.66
  -3   0   6    0.14    0.23
   3   0  -6    1.55    0.34
   3   0  -6    1.86    0.62
   3   0  -5   14.57    0.74
  -3   0   5   19.27    1.35
   3   0  -5   14.36    0.57
   3   0  -5   13.95    0.72
   3   0  -4   79.27    1.43
  -3   0   4   76.62    1.34
  -3   0   4   71.80    2.49
   3   0  -4   84.31    1.39
   3   0  -3   23.80    0.75
  -3   0   3   21.74    1.74
   3   0  -3   22.67    0.74
   3   0  -2  184.02    2.35
   3   0  -2  190.51    2.42
  -3   0   2  179.93    2.20
   3   0  -2  185.76    2.31
   3   0  -1  355.80    3.93
   3   0  -1  351.12    3.86
   3   0  -1  359.57    3.96
  -3   0   1  344.29    3.73
   3   0  -1  376.14    4.09
   3   0   0    4.13    0.47
  -3   0   0    4.63    0.39
   3   0   0    4.94    0.42
   3   0   0    4.39    0.48
  -3   0   0    5.13    0.52
   3   0   0    5.11    0.49
  -3   0   0    4.64    0.38
   3   0   1   98.86    1.38
  -3   0  -1   92.13    1.23
   3   0   1   88.78    1.18
   3   0   1   96.55    1.28
  -3   0  -1   94.90    1.37
   3   0   2    4.53    0.46
  -3   0  -2    3.82    0.37
   3   0   2    3.48    0.43
  -3   0  -2    3.17    0.29
   3   0   2    4.21    0.36
  -3   0  -2    3.41    0.35
   3   0   3  170.58    2.23
   3   0   3  168.32    2.17
   3   0   3  159.70    1.99
  -3   0  -3  164.77    2.03
   3   0   4    6.38    0.52
   3   0   4    6.80    0.51
   3   0   4    7.49    0.51
  -3   0  -4    6.25    0.40
   3   0   5  135.58    1.93
   3   0   5  135.08    1.91
   3   0   5  140.87    1.85
  -3   0  -5  141.89    1.86
   3   0   6   86.53    1.94
   3   0   6   82.16    1.49
   3   0   6   81.60    1.41
  -3   0  -6   81.04    1.34
   3   0   7  160.78    2.95
   3   0   7  173.92    2.58
   3   0   7  162.86    2.73
  -3   0  -7  156.16    2.23
   3   0   8 1244.19  170.68
   3   0   8 1034.95   14.72
  -3   0  -8 1232.54  169.08
   3   0   8 1252.25  171.77
   3   0   9  414.57    6.32
   3   0   9  419.58    6.38
  -3   0  -9  384.63    5.88
   3   0   9  422.09    6.21
   3   0  10  856.73    3.57
   3   0  11   46.77    2.97
   3   0  11   32.84    1.06
  -3   0 -11   33.65    0.94
   3   0  11   36.63    1.59
   3   0  12   64.88    3.22
   3   0  12   58.33    1.48
  -3   0 -12   50.87    1.27
   3   0  12   57.31    2.43
   3   0  13  153.83    4.40
   3   0  13  158.65    3.05
  -3   0 -13  180.62    3.48
   3   0  13  147.12    3.60
   3   0  14    5.10    0.83
   3   0  14    5.48    0.90
  -3   0 -14    3.20    0.64
   3   0  14    3.50    0.51
   3   0  15  206.92    9.05
   3   0  15  222.45    8.52
  -3   0 -15  212.52    8.13
   3   0  16   14.26    1.41
   3   0  16   15.23    0.99
  -3   0 -16   13.34    0.84
   3   0  17   14.11    1.21
   3   0  17   14.53    0.93
  -3   0 -17   22.81    1.38
   3   0  18    3.65    0.90
   3   0  18    3.96    1.14
  -3   0 -18    2.27    0.63
   3   0  19    1.63    0.61
  -3   0 -19    0.96    0.55
  -3   0 -20    5.94    0.76
   3   0  20    3.86    1.06
  -3   0 -20    2.99    0.77
  -3   0 -21    1.43    0.56
   3   0  21    1.49    0.70
  -3   0 -21    1.31    0.47
   3   1 -22    1.10    0.34
   3   1 -21    7.05    0.74
  -3  -1  21    5.63    0.72
   3   1 -21    4.24    1.06
   3   1 -21    6.72    0.66
   3   1 -20    2.04    0.77
  -3  -1  20    0.17    0.25
   3   1 -20    1.82    0.61
   3   1 -20    1.95    0.70
   3   1 -19   27.40    1.45
  -3  -1  19   27.38    2.06
   3   1 -19   17.79    2.58
   3   1 -19   26.26    1.34
   3   1 -18   27.20    1.77
  -3  -1  18   27.32    2.15
   3   1 -18   23.38    3.17
   3   1 -18   28.32    1.73
   3   1 -17   27.03    1.07
  -3  -1  17   24.89    1.56
   3   1 -17   22.96    2.13
   3   1 -17   23.76    0.89
   3   1 -16    2.88    0.75
  -3  -1  16    1.50    0.40
   3   1 -16    4.43    0.94
   3   1 -16    3.86    0.82
   3   1 -15  159.09    4.68
  -3  -1  15  168.55    6.82
   3   1 -15  158.84    5.46
   3   1 -15  167.30    4.87
   3   1 -14   12.41    1.48
  -3  -1  14   14.94    1.17
   3   1 -14   12.84    1.17
   3   1 -14   11.08    1.33
   3   1 -13    0.59    0.41
  -3  -1  13    0.02    0.24
   3   1 -13    1.16    0.38
   3   1 -13    1.15    0.47
   3   1 -12    5.11    0.96
  -3  -1  12    6.33    1.11
   3   1 -12    7.01    1.27
   3   1 -12    3.53    0.65
   3   1 -11    8.82    1.27
  -3  -1  11   11.01    1.61
   3   1 -11   11.63    1.81
   3   1 -11   10.34    1.46
   3   1 -10   32.32    0.89
  -3  -1  10   41.54    2.14
   3   1 -10   35.63    2.46
   3   1 -10   29.38    0.93
   3   1  -9    2.26    0.45
  -3  -1   9    3.60    0.66
   3   1  -9    3.15    0.60
   3   1  -9    2.12    0.49
   3   1  -8  184.07    3.07
  -3  -1   8  184.83    3.12
   3   1  -8  177.00    2.97
   3   1  -8  174.70    2.97
   3   1  -7    6.11    0.82
  -3  -1   7    9.04    1.23
   3   1  -7    8.50    1.18
   3   1  -7    5.45    0.78
   3   1  -6  937.93   11.01
  -3  -1   6  944.85   11.25
   3   1  -6  924.11   10.92
   3   1  -6  972.92   11.48
   3   1  -5  414.55    5.15
  -3  -1   5  402.89    5.06
   3   1  -5  410.82    5.14
   3   1  -5  407.77    5.10
   3   1  -4    0.82    0.41
  -3  -1   4    0.57    0.36
  -3  -1   4   -0.18    0.23
   3   1  -4    0.07    0.15
   3   1  -4    0.55    0.31
   3   1  -4    1.14    0.33
   3   1  -3  243.94    2.86
   3   1  -3  243.06    3.07
   3   1  -3  242.31    2.87
   3   1  -3  246.13    2.93
   3   1  -2    1.04    0.43
  -3  -1   2    1.31    0.26
   3   1  -2    2.60    0.33
   3   1  -2    1.71    0.30
  -3  -1   2    1.69    0.23
   3   1  -2    1.97    0.62
   3   1  -1    1.09    0.24
  -3  -1   1    1.18    0.21
   3   1  -1    1.82    0.24
   3   1  -1    1.82    0.33
  -3  -1   1    2.20    0.32
   3   1  -1    1.74    0.34
  -3  -1   1    2.34    0.31
   3   1   0   61.36    1.03
  -3  -1   0   61.43    0.95
   3   1   0   55.25    1.82
   3   1   0   60.09    1.00
  -3  -1   0   62.02    2.29
   3   1   0   60.62    1.02
  -3  -1   0   55.94    0.93
  -3  -1  -1  133.59    1.48
   3   1   1  127.74    1.45
   3   1   1  136.38    1.57
  -3  -1  -1  127.81    1.46
   3   1   1  137.35    1.59
   3   1   2   72.75    1.24
  -3  -1  -2   72.41    1.18
   3   1   2   71.43    1.21
  -3  -1  -2   73.49    1.19
   3   1   2   73.06    1.23
  -3  -1  -2   71.91    1.16
   3   1   3  135.75    1.87
   3   1   3  134.14    1.84
  -3  -1  -3  136.55    1.83
   3   1   3  139.81    1.87
  -3  -1  -3  136.88    1.84
   3   1   4  101.70    1.56
  -3  -1  -4   93.37    1.40
   3   1   4  103.58    1.55
  -3  -1  -4  100.07    1.47
   3   1   4  106.57    1.61
   3   1   5   -0.12    0.34
   3   1   5    0.87    0.43
   3   1   5    0.27    0.28
   3   1   6  157.75    3.00
   3   1   6  158.87    2.35
   3   1   6  159.05    2.92
   3   1   7   12.70    1.18
   3   1   7    9.65    0.61
   3   1   7   14.30    1.26
   3   1   8   36.27    1.84
   3   1   8   37.88    1.03
   3   1   8   38.15    1.88
   3   1   9  166.02    3.44
   3   1   9  161.65    2.85
   3   1   9  161.39    3.35
   3   1  10  575.07    8.45
   3   1  11 1024.65    4.18
   3   1  12    9.71    1.58
   3   1  12    9.40    1.38
  -3  -1 -12    9.63    1.40
   3   1  12   12.30    1.95
   3   1  13  147.30    4.43
   3   1  13  149.50    2.96
  -3  -1 -13  136.63    3.52
   3   1  13  136.07    3.40
   3   1  14   31.68    2.93
   3   1  14   28.25    1.09
  -3  -1 -14   30.52    1.13
   3   1  14   31.81    2.48
   3   1  15   27.04    2.38
   3   1  15   26.33    1.42
  -3  -1 -15   28.93    1.52
   3   1  15   25.70    1.26
   3   1  16    6.01    0.92
   3   1  16    6.28    0.76
  -3  -1 -16    6.12    0.69
   3   1  17    8.03    1.52
   3   1  17    8.15    1.47
  -3  -1 -17    4.83    0.94
   3   1  18   63.82    1.44
  -3  -1 -19    1.31    0.62
   3   1  19    2.03    0.77
  -3  -1 -19    1.58    0.54
  -3  -1 -20  240.20    8.70
   3   1  20  239.52    6.28
  -3  -1 -20  275.73    7.42
  -3  -1 -21    9.81    1.40
   3   1  21    7.43    1.10
  -3  -1 -21    8.33    1.22
  -3  -1 -22    3.93    0.87
   3   2 -21   12.65    0.93
  -3  -2  21    9.24    1.12
   3   2 -20   10.54    1.35
  -3  -2  20    9.72    1.34
   3   2 -20    9.41    1.89
   3   2 -20    9.38    1.22
   3   2 -19    0.55    0.38
  -3  -2  19    0.99    0.38
   3   2 -19    0.55    0.33
   3   2 -19    1.70    0.63
   3   2 -18   16.59    0.91
  -3  -2  18   14.47    1.46
   3   2 -18   18.59    0.97
   3   2 -17    1.85    0.49
  -3  -2  17    1.18    0.40
   3   2 -17    1.54    0.52
   3   2 -17    2.39    0.59
   3   2 -16   14.94    0.89
  -3  -2  16   11.61    1.06
   3   2 -16   13.40    1.43
   3   2 -16   13.01    0.79
   3   2 -15    1.01    0.46
  -3  -2  15    0.06    0.29
   3   2 -15    0.77    0.22
   3   2 -15    0.99    0.44
   3   2 -14   26.16    1.38
  -3  -2  14   20.98    1.50
   3   2 -14   20.80    2.14
   3   2 -14   18.35    1.09
   3   2 -13   25.61    1.05
  -3  -2  13   27.32    1.77
   3   2 -13   23.87    1.94
   3   2 -13   29.56    1.13
   3   2 -12   22.56    2.70
  -3  -2  12   23.93    1.42
   3   2 -12   25.00    2.00
   3   2 -12   24.07    0.98
   3   2 -11   15.37    2.28
  -3  -2  11   17.70    2.74
   3   2 -11   17.93    2.88
   3   2 -11   15.57    2.35
   3   2 -10    0.57    0.45
  -3  -2  10    0.80    0.25
   3   2 -10    1.59    0.48
   3   2 -10    0.97    0.46
   3   2  -9   39.05    0.87
  -3  -2   9   51.50    2.55
   3   2  -9   47.30    1.92
   3   2  -9   42.03    1.06
   3   2  -8    0.40    0.26
  -3  -2   8    1.50    0.30
   3   2  -8    0.24    0.24
   3   2  -8    0.60    0.29
   3   2  -7  230.55    3.63
  -3  -2   7  236.53    3.92
   3   2  -7  255.84    4.09
   3   2  -7  234.00    3.75
   3   2  -6   82.15    1.57
  -3  -2   6   81.79    1.50
  -3  -2   6   88.29    2.47
   3   2  -6   81.21    1.51
   3   2  -6   89.21    2.32
   3   2  -6   85.58    1.72
   3   2  -5  176.29    2.47
  -3  -2   5  177.21    2.39
  -3  -2   5  185.18    2.56
   3   2  -5  185.06    2.64
   3   2  -5  176.93    2.72
   3   2  -5  184.20    2.67
   3   2  -4   60.51    1.15
  -3  -2   4   63.11    1.12
   3   2  -4   56.96    2.26
   3   2  -4   60.93    1.16
   3   2  -4   61.49    1.26
   3   2  -4   60.93    1.26
   3   2  -3  195.54    2.67
  -3  -2   3  199.60    2.65
   3   2  -3  189.38    2.94
   3   2  -3  199.34    2.71
   3   2  -3  191.93    2.69
   3   2  -2   24.12    0.73
  -3  -2   2   23.38    0.60
   3   2  -2   22.44    1.46
   3   2  -2   22.99    0.71
   3   2  -2   24.04    0.76
   3   2  -1    1.27    0.38
  -3  -2   1    1.17    0.34
   3   2  -1    0.91    0.25
   3   2  -1    1.18    0.44
   3   2  -1    1.27    0.42
   3   2   0   25.19    0.69
  -3  -2   0   24.03    0.61
   3   2   0   22.73    1.06
   3   2   0   24.92    0.72
   3   2   0   25.52    0.76
   3   2   1   50.56    0.95
  -3  -2  -1   53.48    0.91
   3   2   1   53.15    0.96
   3   2   1   53.32    1.04
   3   2   2  321.58    3.55
  -3  -2  -2  331.01    3.60
   3   2   2  326.05    3.57
  -3  -2  -2  298.56    3.27
   3   2   2  319.37    3.60
   3   2   3  137.26    1.89
  -3  -2  -3  128.99    1.71
   3   2   3  138.67    1.89
  -3  -2  -3  130.92    1.72
   3   2   3  137.99    2.06
   3   2   5  385.60    5.07
   3   2   5  391.44    5.03
   3   2   5  363.48    4.96
   3   2   6  851.07   10.31
   3   2   6  844.88    9.93
   3   2   6  886.25   10.55
   3   2   7   13.70    1.94
   3   2   7   12.01    1.42
   3   2   7   12.50    1.82
   3   2   8   35.03    2.36
   3   2   8   31.37    0.94
   3   2   8   36.99    2.25
   3   2   9   23.95    2.07
   3   2   9   19.84    2.25
   3   2   9   27.79    2.14
   3   2  10    0.71    0.32
   3   2  10    0.55    0.38
  -3  -2 -10    0.13    0.32
   3   2  10    0.10    0.23
   3   2  11    4.59    0.76
   3   2  11    3.90    0.69
  -3  -2 -11    4.04    0.74
   3   2  11    5.23    0.87
   3   2  12   14.99    2.15
   3   2  12   11.24    1.56
  -3  -2 -12   12.12    1.66
   3   2  12   15.50    2.30
   3   2  13  210.59    4.40
   3   2  13  209.91    3.83
  -3  -2 -13  218.81    3.96
   3   2  13  212.34    4.14
   3   2  14   53.71    3.52
   3   2  14   54.05    1.64
  -3  -2 -14   50.97    1.57
   3   2  14   53.72    1.57
   3   2  15    0.50    0.25
   3   2  15    1.37    0.51
  -3  -2 -15    1.67    0.62
   3   2  16    0.52    0.28
   3   2  16    0.95    0.49
  -3  -2 -16    0.63    0.44
  -3  -2 -17    4.08    0.90
   3   2  17    3.85    0.79
  -3  -2 -17    3.49    0.76
  -3  -2 -18    2.13    0.77
   3   2  18    0.40    0.38
  -3  -2 -18    1.40    0.67
  -3  -2 -19    9.48    0.77
   3   2  19   12.58    0.98
  -3  -2 -19   16.94    1.28
  -3  -2 -20    2.77    0.75
   3   2  20    3.23    0.90
  -3  -2 -20    3.44    0.89
  -3  -2 -21   29.26    3.44
   3   2  21   31.90    3.74
  -3  -2 -21   31.42    3.67
  -3  -2 -22   10.60    1.01
   3   3 -21  263.87   11.80
  -3  -3  21  245.60   11.26
   3   3 -20    6.28    0.64
  -3  -3  20    5.84    0.81
   3   3 -19  126.72   14.18
  -3  -3  19   99.06   11.47
   3   3 -18   29.89    1.47
  -3  -3  18   19.06    2.00
   3   3 -18   18.99    2.69
   3   3 -18   21.54    1.07
   3   3 -17    1.56    0.55
  -3  -3  17    1.02    0.48
   3   3 -17    0.48    0.29
   3   3 -17    1.29    0.52
   3   3 -16    7.52    0.71
  -3  -3  16    7.36    0.89
   3   3 -16    8.13    1.08
   3   3 -16    6.32    0.60
   3   3 -15    1.53    0.47
  -3  -3  15    0.22    0.22
   3   3 -15    2.04    0.59
   3   3 -15    1.99    0.59
   3   3 -14    0.35    0.21
  -3  -3  14    1.67    0.36
   3   3 -14    0.05    0.20
   3   3 -14    0.51    0.26
   3   3 -13    3.68    0.55
  -3  -3  13    4.13    0.63
   3   3 -13    5.38    0.90
   3   3 -13    3.16    0.50
  -3  -3  12  105.56    4.84
   3   3 -12  115.70    5.46
   3   3 -12  125.69    4.89
   3   3 -11   14.06    1.73
  -3  -3  11   17.58    1.09
   3   3 -11   17.63    1.68
   3   3 -11   13.71    1.73
   3   3 -10   23.85    2.81
  -3  -3  10   24.85    1.46
   3   3 -10   29.57    2.01
   3   3 -10   22.65    2.71
   3   3  -9   28.53    0.80
  -3  -3   9   30.70    1.79
   3   3  -9   33.02    2.63
   3   3  -9   30.78    0.97
   3   3  -8    9.75    1.34
  -3  -3   8    8.52    1.24
   3   3  -8   11.83    1.86
   3   3  -8    9.49    1.32
   3   3  -7    5.36    0.85
  -3  -3   7    5.06    0.76
  -3  -3   7    5.26    0.82
   3   3  -7    5.23    0.78
   3   3  -7    6.89    1.23
   3   3  -7    6.17    0.99
   3   3  -6    9.72    1.42
  -3  -3   6   11.31    1.62
   3   3  -6   10.73    1.54
   3   3  -6   16.58    2.75
   3   3  -6   10.79    1.60
   3   3  -5    6.92    0.86
  -3  -3   5    7.04    0.83
   3   3  -5    6.27    0.77
   3   3  -5    5.73    0.73
   3   3  -5    7.78    1.13
   3   3  -5    7.36    0.93
   3   3  -4   21.82    0.69
  -3  -3   4   23.33    0.65
   3   3  -4   17.79    2.33
   3   3  -4   20.73    2.29
   3   3  -4   24.02    0.90
   3   3  -4   20.30    2.29
   3   3  -3  508.88    7.33
  -3  -3   3  502.65    7.19
   3   3  -3  489.42    7.19
   3   3  -3  467.04    6.72
   3   3  -3  525.10    7.69
   3   3  -2 1111.82   15.57
  -3  -3   2 1312.83  180.07
   3   3  -2 1041.26   12.05
   3   3  -2 1142.85   13.13
   3   3  -2 1156.49   13.48
   3   3  -1  590.62    7.00
  -3  -3   1  587.58    6.90
   3   3  -1  580.97    7.14
   3   3  -1  594.87    7.04
   3   3  -1  600.37    7.32
   3   3   0  155.34    2.17
  -3  -3   0  162.24    2.19
   3   3   0  156.68    2.22
   3   3   0  158.45    2.17
   3   3   0  167.22    3.46
   3   3   1   10.03    0.49
  -3  -3  -1   12.26    0.48
   3   3   1    9.86    0.43
   3   3   1   10.29    0.48
   3   3   1   12.77    1.25
   3   3   2  146.67    2.31
  -3  -3  -2  156.87    2.15
   3   3   2  146.94    2.07
  -3  -3  -2  157.01    2.15
   3   3   2  150.54    2.49
   3   3   3   38.15    1.41
  -3  -3  -3   36.36    0.79
   3   3   3   38.85    0.93
  -3  -3  -3   36.77    0.79
   3   3   3   38.15    1.73
   3   3   4    3.03    0.51
  -3  -3  -4    2.24    0.36
   3   3   4    2.55    0.41
  -3  -3  -4    2.29    0.36
   3   3   4    3.40    0.54
  -3  -3  -5  283.54    4.28
   3   3   5  295.00    4.96
   3   3   6  389.44    6.14
   3   3   6  399.23    5.93
   3   3   6  413.04    6.52
   3   3   7  212.11    3.43
   3   3   7  222.00    3.57
   3   3   7  217.89    3.63
   3   3   8   12.22    1.93
   3   3   8   13.08    1.90
   3   3   8   13.57    2.23
   3   3   9    2.93    0.58
   3   3   9    4.07    0.69
   3   3   9    3.57    0.63
   3   3  10    7.79    1.34
   3   3  10    6.09    0.91
  -3  -3 -10    9.32    1.37
   3   3  10   10.20    1.49
   3   3  11    0.43    0.29
   3   3  11    1.59    0.49
  -3  -3 -11    0.70    0.39
   3   3  11    0.88    0.32
   3   3  12   34.42    3.13
   3   3  12   35.20    1.28
  -3  -3 -12   39.03    1.25
   3   3  12   35.77    1.48
   3   3  13    3.01    0.60
   3   3  13    2.44    0.53
  -3  -3 -13    3.17    0.57
   3   3  13    1.88    0.50
   3   3  14   69.15    2.90
  -3  -3 -14   76.06    3.16
  -3  -3 -15    1.93    0.47
   3   3  15    2.74    0.69
  -3  -3 -15    2.14    0.50
  -3  -3 -16  135.02    4.31
   3   3  16  128.39    4.15
  -3  -3 -16  125.56    3.97
  -3  -3 -17    5.10    0.54
   3   3  17    7.44    0.66
  -3  -3 -17    4.38    0.99
  -3  -3 -18    0.60    0.55
   3   3  18    2.73    0.89
  -3  -3 -18    1.98    0.71
  -3  -3 -19    4.29    1.00
   3   3  19    4.06    0.97
  -3  -3 -19    6.09    0.79
  -3  -3 -20    0.44    0.31
   3   3  20    1.94    0.73
  -3  -3 -20    0.15    0.27
  -3  -3 -21    0.82    0.52
   3   3  21    0.06    0.28
  -3  -3 -21    0.60    0.36
   3   4 -18    0.65    0.36
   3   4 -17   36.63    5.84
   3   4 -16   77.59    2.21
  -3  -4  16   59.16    3.45
   3   4 -16   80.97    3.96
   3   4 -15    1.68    0.39
  -3  -4  15    1.25    0.33
   3   4 -15    1.21    0.36
   3   4 -15    1.86    0.46
   3   4 -14    0.61    0.32
  -3  -4  14    1.07    0.36
   3   4 -14    0.42    0.31
   3   4 -14    2.19    0.60
   3   4 -13   31.38    1.18
  -3  -4  13   24.15    2.11
   3   4 -13   33.07    2.66
   3   4 -13   31.23    1.21
   3   4 -12   21.08    0.91
  -3  -4  12   18.42    1.73
   3   4 -12   24.57    1.71
   3   4 -12   21.08    0.91
   3   4 -11   52.84    1.69
  -3  -4  11   46.77    2.61
   3   4 -11   58.34    2.64
   3   4 -11   57.30    1.86
   3   4 -10    5.61    0.71
  -3  -4  10    5.36    0.72
   3   4 -10    7.79    1.10
   3   4 -10    5.56    0.71
   3   4  -9    0.49    0.29
  -3  -4   9    0.60    0.22
   3   4  -9    0.67    0.21
   3   4  -9    0.42    0.24
   3   4  -9    1.08    0.41
   3   4  -8   15.56    2.28
  -3  -4   8   15.01    2.19
   3   4  -8   14.31    2.10
   3   4  -8   17.51    2.94
   3   4  -8   14.34    2.14
   3   4  -7   44.03    1.01
  -3  -4   7   40.57    0.91
   3   4  -7   42.18    0.95
   3   4  -7   44.91    1.02
   3   4  -7   51.82    3.45
   3   4  -7   48.91    1.27
   3   4  -6    3.35    0.50
  -3  -4   6    2.36    0.36
   3   4  -6    3.28    0.49
   3   4  -6    3.42    0.52
   3   4  -6    1.84    0.42
   3   4  -6    2.64    0.45
   3   4  -5    9.66    1.28
  -3  -4   5    7.38    1.10
   3   4  -5    8.44    1.12
   3   4  -5    9.67    1.30
   3   4  -5    8.36    1.19
   3   4  -5    9.85    1.37
   3   4  -4    1.15    0.35
  -3  -4   4    1.15    0.26
   3   4  -4    0.61    0.19
   3   4  -4    1.05    0.30
   3   4  -4    0.57    0.23
   3   4  -3    1.78    0.41
  -3  -4   3    1.78    0.30
   3   4  -3    2.81    0.48
   3   4  -3    1.92    0.35
   3   4  -3    4.82    0.85
   3   4  -2   17.29    2.43
  -3  -4   2   15.98    2.23
   3   4  -2   14.11    2.31
   3   4  -2   17.42    2.44
   3   4  -2   22.58    1.57
   3   4  -1   19.20    2.46
   3   4  -1   16.73    2.59
   3   4  -1   20.01    0.55
   3   4  -1   24.72    1.42
   3   4   1  216.95    2.36
  -3  -4  -1  219.70    1.40
   3   4   1  212.23    1.71
   3   4   2  413.78    2.52
  -3  -4  -2  402.40    1.96
   3   4   2  419.68    2.05
   3   4   2  413.72    3.99
   3   4   3    2.18    0.47
  -3  -4  -3    1.39    0.33
   3   4   3    2.03    0.39
  -3  -4  -3    1.33    0.26
   3   4   3    2.99    0.68
   3   4   4    3.70    0.64
  -3  -4  -4    2.52    0.44
   3   4   4    2.00    0.41
  -3  -4  -4    2.37    0.40
   3   4   4    4.34    0.76
   3   4   5    1.31    0.36
  -3  -4  -5    0.39    0.18
   3   4   5    1.35    0.44
  -3  -4  -5    0.58    0.21
   3   4   5    1.06    0.24
   3   4   6    0.55    0.39
  -3  -4  -6    0.19    0.12
   3   4   6    1.12    0.40
   3   4   6    1.57    0.45
   3   4   7   54.10    1.89
   3   4   7   60.24    1.27
   3   4   7   57.06    2.55
   3   4   8   10.93    1.97
   3   4   8    9.67    1.47
   3   4   8   14.55    2.54
   3   4   9  254.34    5.35
   3   4   9  257.87    4.43
   3   4   9  263.96    4.95
   3   4  10  347.54    8.55
   3   4  10  352.18    7.64
  -3  -4 -10  340.52    7.42
   3   4  11  128.30    4.98
  -3  -4 -11  134.43    3.21
   3   4  11  123.82    6.38
  -3  -4 -12    0.95    0.22
   3   4  12    1.21    0.33
  -3  -4 -12    1.67    0.45
   3   4  12    0.72    0.39
  -3  -4 -13    2.20    0.51
   3   4  13    1.27    0.27
  -3  -4 -13    0.78    0.39
  -3  -4 -14    2.47    0.57
   3   4  14    2.00    0.50
  -3  -4 -14    2.20    0.50
  -3  -4 -15    9.83    0.72
   3   4  15    7.79    0.66
  -3  -4 -15   11.63    0.75
  -3  -4 -16    0.80    0.39
   3   4  16    0.69    0.36
  -3  -4 -16    0.31    0.23
  -3  -4 -17    5.63    0.54
   3   4  17    7.74    0.69
  -3  -4 -17    8.50    0.69
  -3  -4 -18    3.05    0.73
   3   4  18    1.13    0.39
  -3  -4 -18    2.91    0.70
  -3  -4 -19    2.16    0.66
   3   4  19    1.04    0.41
  -3  -4 -19    1.47    0.65
  -3  -4 -20    2.59    0.64
   3   4  20    1.93    0.53
  -3  -4 -20    1.94    0.51
  -3  -4 -21    2.75    0.49
   3   5 -16    0.63    0.55
   3   5 -15    1.46    0.51
   3   5 -14   35.43    4.00
   3   5 -13    0.06    0.34
   3   5 -12    0.56    0.32
   3   5 -12    1.60    0.40
   3   5 -11    0.35    0.23
   3   5 -11    0.68    0.34
   3   5 -10   18.63    1.80
   3   5 -10   16.45    1.70
   3   5  -9    0.85    0.35
   3   5  -9    0.50    0.32
   3   5  -8   12.97    0.99
   3   5  -8   11.41    0.93
   3   5  -7  323.69   12.01
   3   5  -7  321.99   11.96
   3   5  -7  383.24   14.44
   3   5  -7  389.41   14.85
   3   5  -6  492.31   18.22
   3   5  -6  505.16   18.69
   3   5  -6  639.12   23.84
   3   5  -6  618.94   23.16
   3   5  -5  269.10    5.56
   3   5  -5  269.03    5.55
   3   5  -5  323.54    8.12
   3   5  -4   64.35    1.58
   3   5  -4   56.85    1.29
   3   5  -4   61.34    3.40
   3   5  -3    5.39    0.84
   3   5  -3   10.86    1.44
   3   5  -2   13.90    2.10
   3   5  -2   19.69    2.83
   3   5  -2   25.87    1.43
   3   5  -1    0.12    0.08
   3   5  -1    0.68    0.18
   3   5  -1    0.50    0.15
   3   5  -1    0.28    0.25
   3   5   0    1.11    0.25
  -3  -5   0    0.72    0.17
   3   5   0    0.61    0.19
   3   5   0    1.58    0.30
   3   5   0    2.00    0.48
   3   5   1    0.11    0.16
  -3  -5  -1    0.01    0.07
   3   5   1   -0.02    0.09
   3   5   1    0.67    0.24
   3   5   1    0.37    0.34
   3   5   2   15.79    2.57
  -3  -5  -2   18.83    2.71
   3   5   2   11.16    2.02
   3   5   2   20.83    3.02
   3   5   2   30.32    2.02
   3   5   3  314.80    5.16
   3   5   3  326.51    5.23
   3   5   3  310.76    5.63
   3   5   4    1.04    0.28
  -3  -5  -4    1.15    0.22
   3   5   4    1.87    0.34
  -3  -5  -4    0.87    0.20
   3   5   4    1.06    0.39
  -3  -5  -5    1.03    0.20
   3   5   5    1.11    0.32
  -3  -5  -5    1.18    0.24
   3   5   5    2.38    0.54
   3   5   6    8.28    1.07
   3   5   6    8.69    1.25
  -3  -5  -7    0.99    0.32
   3   5   7    1.09    0.36
   3   5   7    0.32    0.29
  -3  -5  -8   13.99    0.76
   3   5   8   14.01    0.79
   3   5   8   11.57    1.70
  -3  -5  -9    0.21    0.19
   3   5   9    1.72    0.38
   3   5   9    0.48    0.23
  -3  -5 -10   73.11    2.33
   3   5  10   60.28    1.98
  -3  -5 -10   56.89    1.90
   3   5  10   55.03    1.96
  -3  -5 -11    2.86    0.55
   3   5  11    3.42    0.67
  -3  -5 -11    2.56    0.54
  -3  -5 -12   24.96    0.87
   3   5  12   25.31    0.89
  -3  -5 -12   21.73    0.73
  -3  -5 -13    1.08    0.40
   3   5  13    0.89    0.35
  -3  -5 -13    0.60    0.26
  -3  -5 -14    0.94    0.30
   3   5  14    0.57    0.25
  -3  -5 -14    1.33    0.37
  -3  -5 -15    0.98    0.37
   3   5  15    1.23    0.48
  -3  -5 -15    1.51    0.49
  -3  -5 -16    0.70    0.34
   3   5  16    0.40    0.21
  -3  -5 -16    0.68    0.37
  -3  -5 -17   10.93    1.39
   3   5  17    9.73    1.26
  -3  -5 -17   10.01    1.28
  -3  -5 -18    0.89    0.49
   3   5  18    3.24    0.73
  -3  -5 -18    1.52    0.52
  -3  -5 -19   21.55    1.34
   3   5  19   20.59    1.27
  -3  -5 -19   26.35    1.51
   3   6 -15    0.52    0.36
   3   6 -14    4.72    1.06
   3   6 -13  176.71    7.81
   3   6 -12   11.60    2.69
   3   6 -11   87.21    4.27
   3   6 -10    0.93    0.44
   3   6  -9    1.04    0.31
   3   6  -8   17.77    1.20
   3   6  -8   14.01    1.61
   3   6  -7   27.58    0.83
   3   6  -7   25.06    2.51
   3   6  -6    6.02    0.73
   3   6  -5   13.66    1.21
   3   6  -4  290.99    8.88
   3   6  -3   38.30    2.99
   3   6  -2   13.90    1.19
   3   6  -1   48.26    3.30
   3   6   0    0.56    0.32
   3   6   1   51.61    3.25
   3   6   2    0.04    0.32
   3   6   3   13.02    1.63
   3   6   4    5.29    0.92
   3   6   5  118.85    5.14
   3   6   6  143.43    4.56
   3   6   7   29.51    1.06
   3   6   8   11.79    0.74
  -3  -6  -9    0.48    0.31
   3   6  10    0.92    0.27
  -3  -6 -10    0.53    0.31
   3   6  11    0.57    0.27
  -3  -6 -11    0.62    0.32
  -3  -6 -12    3.65    0.82
  -3  -6 -13    7.11    0.54
   3   7 -13    2.36    0.52
   3   7 -12    2.66    0.59
   3   7 -11   30.17    2.64
   3   7 -10   79.21    3.47
   3   7  -4    7.14    1.05
   3   7  -3    5.59    0.99
   3   7  -2   10.28    1.31
   3   7  -1   70.42    2.62
   3   7   0   14.21    2.10
   3   7   1  117.30    3.32
   3   7   2    5.78    0.59
   3   7   3    1.97    0.64
   4  -6  -6    7.04    0.61
   4  -6  -5   13.31    0.95
   4  -6  -4    0.81    0.43
   4  -5 -11    0.49    0.27
   4  -5 -10    1.94    0.57
   4  -5 -10    1.52    0.53
   4  -5 -10    1.03    0.55
   4  -5  -9    3.79    0.79
   4  -5  -9    4.26    0.85
   4  -5  -9    4.19    0.86
   4  -5  -8    2.84    0.76
   4  -5  -8    1.03    0.55
   4  -5  -8    2.33    0.67
   4  -5  -7    1.82    0.70
   4  -5  -7    2.23    0.71
   4  -5  -7    3.03    0.86
   4  -5  -6   21.92    2.60
   4  -5  -6   21.13    2.51
   4  -5  -6   21.40    2.57
   4  -5  -5    5.07    1.29
   4  -5  -5    8.13    0.80
   4  -5  -5    3.46    0.82
   4  -5  -4    4.38    1.03
   4  -5  -4    4.64    1.05
   4  -5  -4    4.34    0.98
   4  -5  -3    1.09    0.45
   4  -5  -3    1.70    0.56
   4  -5  -3    0.22    0.31
   4  -5  -2    0.85    0.44
   4  -5  -2    1.20    0.56
   4  -5  -2    1.47    0.50
   4  -5  -1    5.79    0.52
   4  -5  -1    6.25    0.56
   4  -5  -1    4.60    1.03
   4  -5   0   24.43    1.05
   4  -5   0   22.51    1.02
   4  -5   0   22.13    0.93
   4  -5   1    7.12    0.64
   4  -5   1    5.36    0.55
   4  -5   3  233.53    8.40
   4  -5   3  225.51    8.11
   4  -5   5  532.68   18.68
   4  -5   5  558.61  129.89
   4  -5   6    0.92    0.36
   4  -5   6    0.86    0.37
   4  -5   7    9.34    1.51
   4  -5   7   10.98    1.42
   4  -5   8    0.11    0.19
   4  -5   8    1.38    0.52
   4  -5   9    0.35    0.24
   4  -5   9    0.98    0.53
   4  -5  10    3.63    0.90
   4  -5  10    4.17    0.80
   4  -5  11    1.26    0.34
   4  -5  11    3.31    0.69
   4  -4 -13    6.54    0.79
  -4   4  13    4.25    0.94
   4  -4 -12    3.23    0.68
  -4   4  12    6.12    0.70
   4  -4 -12    5.87    0.72
   4  -4 -11    1.00    0.42
  -4   4  11    3.52    1.00
   4  -4 -11    1.68    0.60
   4  -4 -10    4.00    0.99
  -4   4  10    2.68    0.75
   4  -4 -10    2.81    0.72
   4  -4  -9    9.32    0.77
   4  -4  -9    7.89    0.77
   4  -4  -8    3.21    1.03
   4  -4  -8    0.86    0.60
   4  -4  -8    2.05    0.72
   4  -4  -7    5.02    0.87
   4  -4  -7    6.10    0.75
   4  -4  -7    3.63    0.70
   4  -4  -6    0.81    0.47
   4  -4  -6    3.81    0.90
   4  -4  -6    1.20    0.44
   4  -4  -5   -0.10    0.30
   4  -4  -5    3.94    1.22
   4  -4  -5    0.34    0.29
   4  -4  -4   34.59    1.00
   4  -4  -4   35.53    1.00
   4  -4  -4   33.49    1.09
   4  -4  -3   11.12    0.79
   4  -4  -3    9.76    0.73
   4  -4  -3    9.16    0.65
   4  -4  -2   39.07    1.62
   4  -4  -2   37.39    1.53
   4  -4  -2   36.49    1.46
   4  -4  -1   47.20    1.76
   4  -4  -1   57.68    2.19
   4  -4  -1   48.19    1.73
   4  -4   0   17.27    0.96
   4  -4   0   16.78    0.90
   4  -4   0   18.70    0.97
   4  -4   1    1.62    0.60
   4  -4   1    1.15    0.50
   4  -4   1    1.26    0.36
   4  -4   2    1.12    0.51
   4  -4   2    0.28    0.32
   4  -4   2    0.60    0.36
   4  -4   3    4.16    0.79
   4  -4   3    5.27    0.92
  -4   4  -3    3.99    0.69
   4  -4   3    5.17    0.88
   4  -4   4    2.92    0.70
   4  -4   4    3.52    0.82
  -4   4  -4    1.23    0.33
   4  -4   4    3.37    0.73
   4  -4   5   24.74    0.92
   4  -4   5   20.50    0.81
  -4   4  -5   21.63    0.74
   4  -4   5   21.82    0.65
   4  -4   6    6.03    0.71
   4  -4   6    6.41    0.64
  -4   4  -6    4.96    0.43
   4  -4   7   15.84    1.27
   4  -4   7   14.32    1.08
  -4   4  -7   18.14    1.28
   4  -4   8   14.23    1.53
   4  -4   8   17.37    1.23
  -4   4  -8   12.46    1.29
   4  -4   9    7.65    0.93
   4  -4   9    9.72    0.72
  -4   4  -9   10.52    0.67
   4  -4  10   23.45    2.19
   4  -4  10   27.90    1.13
  -4   4 -10   36.09    1.37
   4  -4  11   19.41    2.07
   4  -4  11   20.69    1.15
  -4   4 -11   21.04    1.08
   4  -4  12   13.41    1.96
   4  -4  12   15.44    1.87
  -4   4 -12   20.94    2.53
   4  -4  13    1.77    0.52
   4  -4  13    1.89    0.52
  -4   4 -13    1.29    0.34
   4  -4  14    0.67    0.38
   4  -4  14    1.57    0.65
  -4   4 -14    0.79    0.37
   4  -4  15    0.01    0.22
   4  -4  15    1.11    0.67
  -4   4 -15    0.79    0.43
   4  -4  16    2.60    0.51
  -4   4 -16    0.65    0.29
   4  -3 -15   15.79    1.10
  -4   3  15    8.13    1.36
   4  -3 -15   10.83    0.97
   4  -3 -14    7.10    1.05
  -4   3  14    7.88    1.36
   4  -3 -14    7.07    1.08
   4  -3 -13   20.84    1.28
  -4   3  13   17.29    2.05
   4  -3 -13   20.96    1.31
   4  -3 -12   17.23    1.03
  -4   3  12   19.03    2.18
   4  -3 -11    8.22    0.78
  -4   3  11   10.68    1.35
   4  -3 -11    9.54    0.96
   4  -3 -10   16.14    0.82
  -4   3  10   14.26    1.54
   4  -3 -10   14.50    0.91
   4  -3  -9   21.09    0.95
  -4   3   9   22.86    1.02
   4  -3  -9   19.36    0.95
   4  -3  -8  195.32    6.00
  -4   3   8  193.20    5.94
   4  -3  -8  191.74    5.90
   4  -3  -7    7.80    1.37
   4  -3  -7    7.55    1.29
   4  -3  -6    1.69    0.57
   4  -3  -6    1.17    0.50
   4  -3  -6    0.49    0.27
   4  -3  -5    3.36    0.51
   4  -3  -5    2.85    0.48
   4  -3  -5    2.07    0.37
   4  -3  -4    1.82    0.57
   4  -3  -4    1.08    0.48
   4  -3  -4    0.47    0.40
   4  -3  -3    0.32    0.29
   4  -3  -3    0.44    0.29
   4  -3  -3    1.06    0.49
   4  -3  -2    0.90    0.51
   4  -3  -2    0.16    0.30
   4  -3  -2    1.49    0.54
   4  -3  -1    1.17    0.44
   4  -3  -1    2.28    0.46
   4  -3  -1    2.84    0.47
   4  -3   0    7.43    0.92
   4  -3   1  149.64    5.80
   4  -3   1  157.11    6.10
   4  -3   1  149.98    5.76
   4  -3   2    3.95    0.64
   4  -3   2    3.36    0.58
  -4   3  -2    3.71    0.55
   4  -3   2    3.63    0.55
   4  -3   3   17.08    0.99
   4  -3   3   13.59    0.99
  -4   3  -3   15.94    0.85
   4  -3   3   14.84    0.83
   4  -3   4   12.49    1.46
   4  -3   4   11.07    1.31
  -4   3  -4    9.80    1.14
   4  -3   4   10.59    1.20
   4  -3   5    1.25    0.46
   4  -3   5    1.65    0.51
  -4   3  -5    0.45    0.26
   4  -3   5    1.33    0.35
   4  -3   6    2.28    0.57
   4  -3   6    2.00    0.43
  -4   3  -6    1.84    0.39
   4  -3   6    1.42    0.26
  -4   3  -7    1.60    0.41
   4  -3   8  317.12   10.76
   4  -3   8  324.80    9.64
  -4   3  -8  274.90    8.12
   4  -3   8  282.83    8.24
   4  -3   9  140.59    6.35
   4  -3   9  144.17    4.87
  -4   3  -9  131.59    4.10
   4  -3  10  167.66    3.57
   4  -3  10  165.98    1.96
  -4   3 -10  165.62    1.81
   4  -3  11    1.21    0.43
   4  -3  11    2.23    0.78
  -4   3 -11    1.43    0.50
   4  -3  12   11.93    1.33
   4  -3  12   12.77    1.08
  -4   3 -12   13.58    1.10
   4  -3  13   42.05    2.87
   4  -3  13   47.63    1.69
  -4   3 -13   47.12    1.61
   4  -3  14   18.42    2.23
   4  -3  14   19.83    1.23
  -4   3 -14   19.65    1.23
   4  -3  15   11.08    1.60
   4  -3  15   12.31    1.55
  -4   3 -15   12.87    1.59
   4  -3  16    1.42    0.39
   4  -3  16    2.24    0.63
  -4   3 -16    2.41    0.66
   4  -3  17   12.39    2.05
   4  -3  17   19.55    1.32
  -4   3 -17   18.84    1.15
   4  -2 -16    2.46    0.86
  -4   2  16    1.29    0.51
   4  -2 -16    1.06    0.30
   4  -2 -16    1.92    0.66
   4  -2 -15   54.33    2.37
  -4   2  15   44.26    3.88
   4  -2 -15   36.30    2.75
   4  -2 -15   52.00    2.20
   4  -2 -14    1.30    0.57
  -4   2  14    0.62    0.51
   4  -2 -14    0.31    0.22
   4  -2 -14    1.26    0.47
   4  -2 -13   20.57    1.42
  -4   2  13   21.73    2.04
   4  -2 -13   19.09    1.22
   4  -2 -13   20.12    1.42
   4  -2 -12    3.36    0.82
  -4   2  12    3.36    0.92
   4  -2 -12    0.94    0.33
   4  -2 -12    1.59    0.63
   4  -2 -11   47.38    1.87
  -4   2  11   43.76    4.38
   4  -2 -11   47.53    1.86
   4  -2 -10    7.92    1.39
  -4   2  10    5.47    1.08
   4  -2 -10    5.36    1.00
   4  -2  -9   12.84    0.97
  -4   2   9   11.14    1.20
   4  -2  -9   10.93    0.83
   4  -2  -8  133.67    5.29
  -4   2   8  131.99    5.26
   4  -2  -8  127.71    5.37
   4  -2  -7  269.07   10.24
  -4   2   7  347.32   13.19
   4  -2  -7  244.18   10.06
   4  -2  -6  999.92  103.22
   4  -2  -6  977.65   20.36
   4  -2  -5  307.97    6.74
   4  -2  -5  298.25    6.57
   4  -2  -5  263.81    5.81
   4  -2  -4   40.60    1.28
   4  -2  -4   36.86    1.16
   4  -2  -4   36.12    1.19
   4  -2  -3   18.30    2.74
   4  -2  -3   18.12    2.72
   4  -2  -3   15.52    2.33
   4  -2  -2    5.61    0.94
   4  -2  -2    5.87    0.97
   4  -2  -2    5.82    0.99
   4  -2  -1   18.52    2.78
   4  -2  -1   16.91    2.52
   4  -2  -1   17.37    2.59
   4  -2   0    2.82    0.71
   4  -2   0    0.66    0.46
   4  -2   0    0.54    0.54
   4  -2   1    1.05    0.44
   4  -2   1    0.71    0.35
   4  -2   1    0.75    0.34
   4  -2   2    4.59    0.85
   4  -2   2    5.24    0.92
   4  -2   2    4.17    0.73
   4  -2   3   30.12    1.07
   4  -2   3   28.00    1.01
   4  -2   3   28.91    0.91
   4  -2   4  297.52    5.14
   4  -2   4  300.46    5.20
   4  -2   4  295.87    4.96
   4  -2   5   29.18    1.06
   4  -2   5   28.43    1.07
  -4   2  -5   27.63    0.99
   4  -2   5   27.01    0.84
   4  -2   6   85.77    2.26
   4  -2   6   88.04    2.29
  -4   2  -6   85.74    2.18
   4  -2   6   85.86    2.09
   4  -2   7    1.68    0.58
   4  -2   7    0.84    0.35
  -4   2  -7    1.58    0.50
   4  -2   7    0.01    0.16
   4  -2   8   12.03    1.80
   4  -2   8    8.05    1.08
  -4   2  -8    7.09    0.91
   4  -2   8    7.08    0.89
   4  -2   9    1.66    0.46
   4  -2   9    0.91    0.35
  -4   2  -9    0.94    0.30
   4  -2   9    2.27    0.37
   4  -2  10    1.68    0.52
   4  -2  10    0.63    0.44
  -4   2 -10    1.44    0.52
   4  -2  10    0.61    0.16
   4  -2  11    2.34    0.41
   4  -2  11    3.29    0.52
  -4   2 -11    3.23    0.49
   4  -2  11    1.81    0.24
   4  -2  12    1.07    0.48
   4  -2  12    0.59    0.42
  -4   2 -12    0.77    0.44
   4  -2  12    0.09    0.16
   4  -2  13   84.58    3.15
   4  -2  13   85.53    1.58
  -4   2 -13   92.31    1.55
   4  -2  14    4.20    0.75
   4  -2  14    4.24    0.79
  -4   2 -14    5.40    1.44
   4  -2  15    0.17    0.33
   4  -2  15    1.76    0.63
  -4   2 -15    2.96    1.08
   4  -2  16  111.73    5.95
   4  -2  16  135.01    5.07
  -4   2 -16  133.73    5.57
   4  -2  17    9.60    1.65
   4  -2  17   15.39    1.94
  -4   2 -17   12.21    1.60
   4  -2  18   53.48    4.07
   4  -2  18   66.77    3.07
  -4   2 -18   69.70    3.15
   4  -1 -20    0.60    0.36
   4  -1 -19    1.16    0.41
   4  -1 -18    2.93    0.75
   4  -1 -18    3.79    0.79
   4  -1 -17    9.80    1.38
  -4   1  17    8.54    1.42
   4  -1 -17    4.35    0.82
   4  -1 -17   10.00    1.37
   4  -1 -16   12.76    0.98
  -4   1  16   11.47    1.21
   4  -1 -16    8.57    1.25
   4  -1 -16   13.85    1.01
   4  -1 -15   31.23    1.33
  -4   1  15   28.57    3.33
   4  -1 -15   23.46    2.46
   4  -1 -15   32.21    1.33
   4  -1 -14    1.03    0.42
  -4   1  14    2.40    0.68
   4  -1 -14    0.29    0.30
   4  -1 -14    1.45    0.55
   4  -1 -13    1.40    0.56
  -4   1  13    1.14    0.51
   4  -1 -13    0.43    0.31
   4  -1 -13    0.58    0.51
   4  -1 -12   30.40    1.42
  -4   1  12   30.50    2.44
   4  -1 -12   29.08    1.78
   4  -1 -12   35.70    1.56
   4  -1 -11    2.74    0.56
  -4   1  11    2.10    0.32
   4  -1 -11    2.08    0.37
   4  -1 -11    1.42    0.61
   4  -1 -10   79.45    3.39
  -4   1  10   70.29    3.37
   4  -1 -10   67.52    2.76
   4  -1 -10   62.94    2.74
   4  -1  -9    5.44    0.87
  -4   1   9    9.02    1.40
   4  -1  -9    6.63    1.01
   4  -1  -8   88.21    2.37
  -4   1   8   82.50    2.76
   4  -1  -8   90.23    2.36
   4  -1  -7    1.23    0.41
  -4   1   7    1.80    0.45
   4  -1  -7    2.37    0.68
   4  -1  -6   45.77    1.33
   4  -1  -6   44.52    1.35
   4  -1  -5    9.63    1.38
   4  -1  -5    6.90    1.04
   4  -1  -5    9.37    1.36
   4  -1  -4   37.59    1.08
   4  -1  -4   44.19    1.24
   4  -1  -4   36.48    1.09
   4  -1  -3    7.55    1.16
   4  -1  -3    6.22    0.93
   4  -1  -3    5.78    0.95
   4  -1  -2   46.87    1.21
   4  -1  -2   47.38    1.26
   4  -1  -2   47.69    1.23
   4  -1  -1   36.59    1.08
   4  -1  -1   38.37    1.05
   4  -1  -1   35.85    0.89
   4  -1   0    9.42    1.46
   4  -1   0    7.72    1.23
   4  -1   0    7.56    1.14
   4  -1   1    8.56    1.32
   4  -1   1    6.86    1.09
   4  -1   1    9.81    1.47
   4  -1   2   64.95    1.29
   4  -1   2   63.83    1.27
   4  -1   2   61.84    1.09
   4  -1   3    7.15    1.15
   4  -1   3    6.47    1.04
   4  -1   3    9.45    1.42
   4  -1   4  153.85    2.65
   4  -1   4  159.85    2.72
   4  -1   4  151.02    2.47
   4  -1   5    0.45    0.38
   4  -1   5    2.15    0.78
   4  -1   5    2.43    0.61
   4  -1   6   42.50    1.24
   4  -1   6   35.78    1.14
   4  -1   6   30.17    0.86
   4  -1   7  140.26    2.86
   4  -1   7  132.74    2.61
  -4   1  -7  161.80    3.16
   4  -1   7  136.20    2.54
   4  -1   8   27.56    1.92
   4  -1   8   21.79    2.64
  -4   1  -8   23.01    2.75
   4  -1   8   30.16    1.79
   4  -1   9  125.29    5.22
   4  -1   9  126.84    3.39
  -4   1  -9  131.88    3.19
   4  -1   9  122.41    3.90
   4  -1  10   32.42    1.46
   4  -1  10   28.54    1.42
  -4   1 -10   28.47    1.05
   4  -1  10   28.29    2.14
   4  -1  11   55.39    2.88
   4  -1  11   52.99    2.34
  -4   1 -11   50.83    2.17
   4  -1  11   45.20    2.49
   4  -1  12   32.57    2.94
   4  -1  12   29.57    1.38
  -4   1 -12   24.08    1.10
   4  -1  12   23.15    1.80
   4  -1  13  135.45    5.10
   4  -1  13  135.08    4.27
  -4   1 -13  164.33    5.17
   4  -1  13  116.98    4.22
   4  -1  14  141.96    6.38
   4  -1  14  162.99    5.14
  -4   1 -14  141.79    4.45
   4  -1  14  135.02    4.80
   4  -1  15   28.33    2.32
   4  -1  15   24.94    1.03
  -4   1 -15   29.43    1.01
   4  -1  15   15.36    2.01
   4  -1  16  177.78   10.11
   4  -1  16  200.96   10.52
  -4   1 -16  184.50    9.66
   4  -1  17    1.08    0.42
   4  -1  17    3.36    0.94
  -4   1 -17    1.08    0.67
   4  -1  18    7.16    1.35
  -4   1 -18    7.15    1.22
   4  -1  19   11.45    1.65
   4  -1  19   19.07    1.33
  -4   1 -19   19.24    1.27
   4   0 -20    1.27    0.41
   4   0 -19   44.64    4.42
   4   0 -19   64.24    2.99
   4   0 -18    0.96    0.46
  -4   0  18    1.44    0.42
   4   0 -18    1.52    0.48
   4   0 -18    1.22    0.44
   4   0 -17   35.63    1.73
  -4   0  17   33.91    3.13
   4   0 -17   27.55    2.71
   4   0 -17   42.80    1.97
   4   0 -16    2.13    0.74
  -4   0  16    2.50    0.83
   4   0 -16    0.66    0.31
   4   0 -16    0.41    0.29
   4   0 -15   28.34    1.81
  -4   0  15   25.91    2.57
   4   0 -15   19.56    2.61
   4   0 -15   23.64    1.54
   4   0 -14    0.60    0.44
  -4   0  14    1.06    0.56
   4   0 -14    1.59    0.55
   4   0 -14    2.22    0.74
   4   0 -13   21.49    1.10
  -4   0  13   21.72    1.78
   4   0 -13   21.55    1.62
   4   0 -13   25.54    1.31
   4   0 -12   10.13    0.76
  -4   0  12   12.30    1.09
   4   0 -12   10.34    1.03
   4   0 -12    7.57    1.35
   4   0 -11   41.39    1.99
  -4   0  11   44.37    3.23
   4   0 -11   39.08    2.10
   4   0 -11   41.91    1.98
   4   0 -10  252.61    5.65
  -4   0  10  242.01    5.81
   4   0 -10  234.83    6.19
   4   0  -9    2.85    0.57
  -4   0   9    2.90    0.49
   4   0  -9    2.93    0.51
   4   0  -9    3.06    0.55
   4   0  -8    4.30    0.80
  -4   0   8    5.77    0.99
   4   0  -8    4.31    0.72
   4   0  -8    4.84    0.92
   4   0  -7   27.89    1.07
  -4   0   7   28.81    1.02
   4   0  -7   25.00    0.95
   4   0  -6    1.21    0.54
   4   0  -6    2.10    0.52
   4   0  -5    1.52    0.63
   4   0  -5    1.41    0.37
   4   0  -5    0.53    0.32
   4   0  -4    3.99    0.75
   4   0  -4    3.82    0.74
   4   0  -4    3.36    0.66
   4   0  -3   47.36    1.17
   4   0  -3   50.91    1.32
   4   0  -3   40.73    1.14
   4   0  -1  628.33    3.53
   4   0   1    3.06    0.61
   4   0   1    3.68    0.67
   4   0   1    3.81    0.65
   4   0   2    9.25    1.40
   4   0   2    8.09    1.24
   4   0   2    8.79    1.32
   4   0   3    1.64    0.50
   4   0   3    2.57    0.51
   4   0   3    2.43    0.47
   4   0   4    1.74    0.59
   4   0   4    1.60    0.44
   4   0   4    1.04    0.34
   4   0   5   13.02    1.94
   4   0   5   14.10    2.07
   4   0   5   13.18    1.91
   4   0   6   23.80    0.88
   4   0   6   23.16    0.85
   4   0   6   30.12    1.83
   4   0   7  317.41    4.77
   4   0   7  358.84    5.36
   4   0   7  363.17    5.18
   4   0   8   12.11    2.00
   4   0   8   10.50    1.48
   4   0   8   12.03    1.86
   4   0   9  979.58   15.68
   4   0   9  986.54   15.65
  -4   0  -9 1003.96  114.67
   4   0   9  948.44   14.96
   4   0  10   25.77    2.11
   4   0  10   20.94    1.04
  -4   0 -10   20.83    0.97
   4   0  10   22.42    1.94
   4   0  11    1.06    0.44
   4   0  11    0.57    0.35
  -4   0 -11    0.03    0.37
   4   0  11    0.81    0.33
   4   0  12  117.83    5.35
   4   0  12  117.37    4.69
  -4   0 -12  112.70    4.48
   4   0  12  112.36    5.30
   4   0  13   26.81    2.28
   4   0  13   24.82    1.18
  -4   0 -13   24.77    1.13
   4   0  13   21.95    1.79
   4   0  14   62.55    4.86
   4   0  14   61.12    2.26
  -4   0 -14   57.83    2.12
   4   0  14   50.52    2.96
   4   0  15   17.64    1.42
   4   0  15   14.80    0.89
  -4   0 -15   17.33    0.90
   4   0  15   11.90    1.28
   4   0  16  118.25    7.56
   4   0  16  130.19    6.93
  -4   0 -16  111.87    5.97
   4   0  16   95.80    6.63
   4   0  17    0.60    0.37
   4   0  17    0.53    0.44
  -4   0 -17    2.80    0.96
   4   0  18    0.46    0.30
   4   0  18   -0.03    0.34
  -4   0 -18    1.29    0.54
   4   0  19    8.24    1.65
   4   0  19   10.18    1.47
  -4   0 -19   15.27    2.03
   4   1 -20    2.12    0.52
   4   1 -19    7.26    0.74
  -4  -1  19    4.82    1.08
   4   1 -19    5.69    0.86
   4   1 -19    6.48    0.67
   4   1 -18  106.30   11.92
  -4  -1  18   82.18   11.25
   4   1 -18   90.40   11.01
   4   1 -18  109.59   12.29
   4   1 -17   66.35    2.79
  -4  -1  17   60.69    5.46
   4   1 -17   60.93    3.80
   4   1 -17   64.96    2.70
   4   1 -16  456.75   91.77
  -4  -1  16  458.55   92.15
   4   1 -16  434.12   11.25
   4   1 -16  446.87   11.03
   4   1 -15   38.93    2.30
  -4  -1  15   41.05    3.55
   4   1 -15   37.51    2.74
   4   1 -15   42.67    2.51
   4   1 -14   29.07    1.03
  -4  -1  14   29.54    2.41
   4   1 -14   28.03    1.36
   4   1 -14   31.17    1.09
   4   1 -13    0.84    0.45
  -4  -1  13    0.58    0.37
   4   1 -13    1.74    0.54
   4   1 -13    0.41    0.31
   4   1 -12   25.05    1.21
  -4  -1  12   18.98    1.70
   4   1 -12   21.26    2.19
   4   1 -11    4.20    0.61
  -4  -1  11    7.98    1.18
   4   1 -11    6.52    0.95
   4   1 -11    7.09    1.03
   4   1 -10   53.01    1.66
  -4  -1  10   55.41    3.26
   4   1 -10   53.90    2.29
   4   1 -10   50.77    1.68
   4   1  -9    2.30    0.48
  -4  -1   9    1.84    0.38
   4   1  -9    3.14    0.54
   4   1  -9    1.95    0.58
   4   1  -8   55.98    1.56
  -4  -1   8   60.98    3.12
   4   1  -8   55.03    1.43
   4   1  -8   57.00    1.50
   4   1  -7  293.89    4.35
  -4  -1   7  303.54    4.47
   4   1  -7  265.76    3.97
   4   1  -7  318.04    4.75
   4   1  -6   18.80    2.51
   4   1  -6   20.41    2.70
   4   1  -5   55.17    1.21
   4   1  -5   51.64    1.16
   4   1  -5   53.34    1.16
   4   1  -4    6.13    1.05
   4   1  -4    6.67    1.11
   4   1  -4    4.66    0.79
   4   1  -3   12.34    1.81
   4   1  -3   11.56    1.71
   4   1  -3   11.81    1.76
   4   1  -2    2.56    0.56
   4   1  -2    1.52    0.45
   4   1  -2    2.58    0.60
   4   1  -1   13.16    1.56
   4   1  -1   12.30    1.47
   4   1  -1   13.89    1.64
   4   1   0    1.62    0.51
   4   1   0    0.69    0.34
   4   1   0    1.56    0.54
   4   1   1    1.79    0.54
   4   1   1    2.08    0.53
   4   1   1    1.75    0.42
   4   1   2    0.97    0.50
   4   1   2    0.80    0.34
   4   1   2    1.86    0.46
   4   1   3   46.26    1.11
   4   1   3   44.02    1.06
   4   1   3   44.81    1.02
   4   1   4   42.08    1.10
   4   1   4   42.97    1.08
   4   1   4   44.09    1.01
   4   1   5   41.92    1.03
   4   1   5   45.93    1.07
   4   1   5   40.14    1.08
   4   1   6    7.08    1.37
   4   1   6    5.75    0.95
   4   1   6    5.19    0.88
   4   1   7   62.74    3.01
   4   1   7   60.71    1.44
   4   1   7   65.18    2.88
   4   1   8   67.55    1.97
   4   1   8   71.31    2.49
   4   1   8   77.57    3.33
   4   1   9  600.46    9.81
   4   1   9  637.54   10.36
   4   1   9  686.82   11.16
   4   1  10  670.20   10.94
   4   1  11   73.70    3.57
   4   1  11   78.09    2.20
  -4  -1 -11   71.64    2.03
   4   1  11   76.79    3.60
   4   1  12  346.99   13.10
   4   1  12  390.45   14.71
  -4  -1 -12  422.07   15.88
   4   1  12  453.85   17.49
   4   1  13    8.89    1.05
   4   1  13    6.46    0.70
  -4  -1 -13    6.61    0.71
   4   1  13    8.19    0.80
   4   1  14   13.38    1.50
   4   1  14   17.89    0.98
  -4  -1 -14   17.68    0.97
   4   1  14   13.63    1.62
   4   1  15    2.00    0.52
   4   1  15    1.53    0.44
  -4  -1 -15    1.53    0.59
   4   1  15    1.67    0.41
   4   1  16    0.98    0.42
   4   1  16    1.30    0.52
  -4  -1 -16    0.75    0.31
   4   1  16    0.21    0.25
   4   1  17    6.94    0.93
   4   1  17    6.86    0.61
  -4  -1 -17    6.13    0.71
   4   1  17    4.64    0.75
   4   1  18    2.37    0.78
   4   1  18    3.03    0.78
  -4  -1 -18    5.20    0.69
   4   1  19   36.27    4.71
   4   1  19   50.36    5.74
  -4  -1 -19   50.14    5.71
  -4  -1 -20    4.23    0.97
  -4  -2  20    0.29    0.18
   4   2 -20    0.89    0.39
   4   2 -19    1.96    0.55
  -4  -2  19    1.54    0.51
   4   2 -19    1.03    0.52
   4   2 -18    9.71    0.75
  -4  -2  18    9.26    1.14
   4   2 -18    6.25    1.32
   4   2 -18   11.70    0.88
   4   2 -17    1.22    0.51
  -4  -2  17    0.23    0.35
   4   2 -17    1.34    0.51
   4   2 -17    1.30    0.52
   4   2 -16   27.19    1.18
  -4  -2  16   22.91    2.10
   4   2 -16   22.80    2.91
   4   2 -16   25.39    1.10
   4   2 -15   17.14    1.20
  -4  -2  15   15.99    1.54
   4   2 -15   14.24    2.19
   4   2 -15   20.22    1.40
   4   2 -14    0.89    0.35
  -4  -2  14    0.48    0.29
   4   2 -14    1.86    0.66
   4   2 -14    1.15    0.48
   4   2 -13    3.81    0.77
  -4  -2  13    2.63    0.55
   4   2 -13    3.90    0.86
   4   2 -13    4.12    0.82
   4   2 -12    3.33    0.46
  -4  -2  12    3.64    0.60
   4   2 -12    3.14    0.61
   4   2 -12    2.70    0.48
   4   2 -11   10.89    0.77
  -4  -2  11    8.99    0.97
   4   2 -11   11.00    0.89
   4   2 -11   10.37    0.75
   4   2 -10    9.08    1.13
  -4  -2  10   11.16    1.51
   4   2 -10   11.18    1.48
   4   2 -10   11.04    1.35
   4   2  -9   36.27    1.21
  -4  -2   9   34.95    2.04
   4   2  -9   36.65    1.75
   4   2  -9   36.27    1.28
   4   2  -8    3.74    0.71
  -4  -2   8    1.95    0.50
   4   2  -8    4.08    0.75
   4   2  -8    2.92    0.59
   4   2  -7    3.25    0.75
   4   2  -7    0.75    0.47
   4   2  -7    2.41    0.79
   4   2  -6   81.48    1.65
   4   2  -6   74.97    1.57
   4   2  -6   76.49    1.71
   4   2  -5  112.71    2.05
   4   2  -5  116.59    2.09
   4   2  -5  116.31    2.24
   4   2  -4  219.30    3.33
   4   2  -4  220.05    3.37
   4   2  -4  222.60    3.47
   4   2  -3   48.50    1.04
   4   2  -3   48.14    1.01
   4   2  -3   48.35    1.09
   4   2  -2   93.80    1.38
   4   2  -2   96.81    1.35
   4   2  -2   93.85    1.39
   4   2  -1    8.25    1.27
   4   2  -1    9.61    1.45
   4   2  -1    7.57    1.19
   4   2   0   15.62    2.25
   4   2   0   15.76    2.29
   4   2   0   12.63    1.85
   4   2   1    2.57    0.52
   4   2   1    2.75    0.55
   4   2   1    3.18    0.60
   4   2   2   48.09    1.01
   4   2   2   46.49    0.99
   4   2   2   47.90    1.03
   4   2   3  375.06    2.52
   4   2   3  381.39    2.53
   4   2   3  370.75    2.61
   4   2   4    5.81    0.98
   4   2   4    5.44    0.94
   4   2   4    6.86    1.19
   4   2   5  602.21    4.31
   4   2   6   34.04    2.02
   4   2   6   32.85    0.99
   4   2   6   30.59    1.79
   4   2   7   21.90    3.43
   4   2   7   16.67    2.22
   4   2   7   19.23    2.91
   4   2   8   23.00    3.18
   4   2   8   19.79    2.92
   4   2   8   24.89    1.36
   4   2   9    0.41    0.39
   4   2   9    0.93    0.46
   4   2   9    1.23    0.34
   4   2  10    5.41    0.85
   4   2  10    3.33    0.57
   4   2  10    5.19    0.84
   4   2  11   -0.07    0.34
   4   2  11    0.27    0.32
  -4  -2 -11    1.11    0.54
   4   2  11    1.49    0.34
   4   2  12   21.65    2.18
   4   2  12   21.31    1.19
  -4  -2 -12   23.21    1.30
   4   2  12   20.75    2.05
   4   2  13   14.54    1.20
   4   2  13   15.40    0.93
  -4  -2 -13   18.61    1.10
   4   2  13   13.40    1.35
   4   2  14   45.94    4.19
   4   2  14   53.77    2.06
  -4  -2 -14   52.10    1.94
   4   2  14   47.19    3.14
   4   2  15    3.20    0.80
   4   2  15    4.23    0.98
  -4  -2 -15    3.79    0.93
   4   2  15    5.39    0.61
   4   2  16    3.89    0.81
   4   2  16    4.71    0.86
  -4  -2 -16    2.90    0.60
   4   2  16    3.47    0.72
   4   2  17    1.15    0.52
   4   2  17    1.42    0.60
  -4  -2 -17    1.21    0.56
   4   2  18    5.08    1.56
   4   2  18    7.70    0.87
  -4  -2 -18    7.36    0.70
   4   2  19    0.63    0.34
  -4  -2 -19    0.78    0.40
   4   3 -19    5.40    0.56
  -4  -3  19    2.66    0.43
   4   3 -18    2.88    0.61
  -4  -3  18    1.97    0.62
   4   3 -18    1.88    0.44
   4   3 -17    1.64    0.51
  -4  -3  17    0.31    0.27
   4   3 -17    0.07    0.35
   4   3 -17    0.82    0.53
   4   3 -16    0.96    0.44
  -4  -3  16    0.45    0.33
   4   3 -16    1.04    0.42
   4   3 -16    1.76    0.64
   4   3 -15    2.80    0.84
  -4  -3  15    3.16    0.94
   4   3 -15    1.20    0.56
   4   3 -15    3.56    0.99
   4   3 -14    1.47    0.45
  -4  -3  14    0.82    0.43
   4   3 -14    0.52    0.50
   4   3 -14    0.99    0.46
   4   3 -13   22.98    0.83
  -4  -3  13   23.70    1.96
   4   3 -13   24.69    2.20
   4   3 -13   30.65    1.01
   4   3 -12    1.06    0.45
  -4  -3  12    1.37    0.42
   4   3 -12    1.12    0.45
   4   3 -12    0.74    0.38
   4   3 -11  519.22   15.06
  -4  -3  11  521.00   15.27
   4   3 -11  541.98  103.53
   4   3 -11  551.16  105.13
   4   3 -10   11.13    0.68
  -4  -3  10   10.51    0.69
   4   3 -10   13.70    1.58
   4   3 -10   13.16    0.88
   4   3  -9    2.98    0.53
   4   3  -9    4.16    0.71
   4   3  -9    4.22    0.67
   4   3  -8    0.39    0.34
   4   3  -8    1.82    0.46
   4   3  -8   -0.05    0.32
   4   3  -8    0.27    0.29
   4   3  -7   20.47    0.82
   4   3  -7   20.61    0.85
   4   3  -7   18.35    0.90
   4   3  -7   22.62    0.94
   4   3  -6    2.14    0.51
   4   3  -6    2.76    0.57
   4   3  -6    1.43    0.45
   4   3  -5   37.54    1.05
   4   3  -5   34.09    0.97
   4   3  -5   36.13    1.09
   4   3  -4  117.92    2.28
   4   3  -4  116.35    2.25
   4   3  -4  115.04    2.38
   4   3  -3  184.82    2.91
   4   3  -3  193.17    3.03
   4   3  -3  183.66    3.04
   4   3  -2  667.53    8.87
   4   3  -2  645.87    8.60
   4   3  -2  660.20    8.99
   4   3  -1  732.86    9.70
   4   3  -1  789.80  112.47
   4   3  -1  719.11    9.70
   4   3   0  164.55    2.61
   4   3   0  170.92    2.70
   4   3   0  164.34    2.80
   4   3   1  200.20    3.08
   4   3   1  198.39    3.04
   4   3   1  195.21    3.12
   4   3   2   22.95    2.97
   4   3   2   22.74    2.95
   4   3   2   36.09    3.31
   4   3   3   10.06    1.60
   4   3   3    8.25    1.17
   4   3   3   10.96    1.76
   4   3   4    1.55    0.55
   4   3   4    0.89    0.35
   4   3   4    1.21    0.45
   4   3   5   30.58    2.32
   4   3   5   29.41    2.60
   4   3   5   34.67    1.53
   4   3   6   74.48    2.12
   4   3   6   73.82    1.69
   4   3   6   78.37    3.31
   4   3   7    5.51    0.96
   4   3   7    4.63    0.83
   4   3   7    6.54    1.31
   4   3   8   18.87    1.37
   4   3   8   18.15    0.84
   4   3   8   20.82    1.69
   4   3   9    0.59    0.33
   4   3   9    1.53    0.51
   4   3   9    1.71    0.45
   4   3  10    4.60    0.73
   4   3  10    2.49    0.49
   4   3  10    3.04    0.58
   4   3  11    3.70    0.70
   4   3  11    3.41    0.59
  -4  -3 -11    4.25    0.75
   4   3  11    2.83    0.52
   4   3  12    1.07    0.34
   4   3  12    0.45    0.32
  -4  -3 -12    1.65    0.50
   4   3  12    0.59    0.36
   4   3  13   14.78    1.82
   4   3  13   19.48    1.07
  -4  -3 -13   20.86    1.14
   4   3  13   16.11    1.67
   4   3  14   12.66    1.41
   4   3  14   13.54    0.78
  -4  -3 -14   14.88    0.85
   4   3  14   10.33    1.61
   4   3  15   77.21    5.34
   4   3  15   93.89    5.04
  -4  -3 -15   96.30    5.17
   4   3  15   93.98    5.06
   4   3  16    2.48    0.87
   4   3  16    5.57    0.68
  -4  -3 -16    4.34    1.04
   4   3  16    1.25    0.53
   4   3  17   21.41    1.25
  -4  -3 -17   25.50    1.38
  -4  -3 -18    3.88    1.50
   4   3  18    6.25    1.00
  -4  -3 -18    3.54    0.94
  -4  -3 -19    4.47    0.92
   4   3  19    4.47    0.91
  -4  -3 -19    3.72    0.72
   4   4 -16    1.14    0.58
   4   4 -15    4.84    0.96
   4   4 -15    4.97    0.73
   4   4 -14    0.15    0.18
  -4  -4  14    0.58    0.29
   4   4 -14    0.02    0.26
   4   4 -14    0.76    0.35
   4   4 -13    0.99    0.40
  -4  -4  13    1.79    0.56
   4   4 -13    1.23    0.46
   4   4 -13    0.83    0.39
   4   4 -12    2.48    0.45
  -4  -4  12    2.26    0.55
   4   4 -12    2.40    0.65
   4   4 -12    1.28    0.40
   4   4 -11    0.91    0.39
   4   4 -11    0.89    0.39
   4   4 -11    1.24    0.46
   4   4 -10    1.52    0.43
   4   4 -10    1.65    0.51
   4   4 -10    2.42    0.62
   4   4 -10    2.70    0.68
   4   4  -9    2.10    0.46
   4   4  -9    3.22    0.66
   4   4  -9    2.19    0.53
   4   4  -9    3.79    0.75
   4   4  -8    4.95    0.49
   4   4  -8    6.55    0.60
   4   4  -8    5.41    0.64
   4   4  -8    6.91    0.73
   4   4  -7    1.51    0.27
   4   4  -7    2.05    0.31
   4   4  -7    2.69    0.44
   4   4  -7    1.70    0.34
   4   4  -6   61.10    2.47
   4   4  -6   64.50    2.58
   4   4  -6   68.13    2.82
   4   4  -5   16.10    0.85
   4   4  -5   21.71    1.12
   4   4  -5   17.91    1.09
   4   4  -4  147.56    3.31
   4   4  -4  153.22    3.42
   4   4  -4  171.04    4.66
   4   4  -3    1.56    0.47
   4   4  -3    0.67    0.32
   4   4  -3    1.52    0.65
   4   4  -2  141.75    3.18
   4   4  -2  147.17    3.31
   4   4  -2  150.44    5.38
   4   4  -1  977.48   20.04
   4   4  -1 1022.33  105.49
   4   4  -1 1123.46  115.98
   4   4   0   29.47    1.00
   4   4   0   28.82    2.10
   4   4   1 1405.27  160.44
   4   4   1 1375.69  157.05
   4   4   1 1124.42  128.44
   4   4   2   15.23    2.26
   4   4   3    6.57    0.94
   4   4   3    5.15    0.72
   4   4   3    5.60    0.84
   4   4   4   38.34    2.16
   4   4   4   43.57    1.30
   4   4   4   46.91    3.04
   4   4   5    7.36    1.12
   4   4   5    7.31    0.99
   4   4   5    7.16    1.00
   4   4   6   35.20    2.75
   4   4   6   40.20    1.26
   4   4   6   43.42    3.32
   4   4   7    4.94    0.77
   4   4   7    3.55    0.57
   4   4   7    5.12    0.90
   4   4   8   64.59    3.15
   4   4   8   64.67    2.64
   4   4   8   71.62    4.11
   4   4   9    8.25    0.96
   4   4   9   11.68    0.70
   4   4   9   11.58    1.29
   4   4  10    1.84    0.46
   4   4  10    1.41    0.32
   4   4  10    1.21    0.29
   4   4  11    6.06    1.24
   4   4  11    8.51    1.75
  -4  -4 -11   11.68    0.84
   4   4  11   11.75    0.99
   4   4  12    0.63    0.32
   4   4  12    0.45    0.32
  -4  -4 -12    4.90    0.60
   4   4  12    2.42    0.72
   4   4  13    4.20    0.98
   4   4  13    4.64    0.79
  -4  -4 -13    5.18    0.89
   4   4  13    4.85    0.90
   4   4  14    0.09    0.26
   4   4  14    1.64    0.51
  -4  -4 -14    0.51    0.36
   4   4  14   -0.47    0.35
   4   4  15    1.15    0.47
  -4  -4 -15    0.42    0.34
   4   4  15    1.60    0.59
  -4  -4 -16    2.00    0.68
   4   4  16    1.00    0.47
  -4  -4 -16   -0.07    0.27
  -4  -4 -17    1.60    0.57
   4   4  17    1.52    0.51
  -4  -4 -17    0.79    0.45
  -4  -4 -18   31.95    1.70
   4   4  18   31.80    1.67
  -4  -4 -18   30.58    1.63
  -4  -4 -19   10.62    0.99
   4   4  19    7.32    0.70
  -4  -4 -19   10.92    0.89
   4   5 -14    0.46    0.30
   4   5 -13    0.72    0.41
   4   5 -12    0.62    0.33
   4   5 -12    1.06    0.43
   4   5 -11    3.19    0.96
   4   5 -11    5.60    0.73
   4   5 -10    0.90    0.55
   4   5 -10    1.33    0.52
   4   5  -9    0.78    0.47
   4   5  -9    0.76    0.44
   4   5  -8   39.63    0.97
   4   5  -8   43.26    3.93
   4   5  -7   20.99    1.95
   4   5  -6  116.04    4.21
   4   5  -5   38.84    2.73
   4   5  -4    6.45    0.52
   4   5  -4    5.91    0.47
   4   5  -4    7.88    0.82
   4   5  -3   35.27    1.18
   4   5  -3   35.81    1.19
   4   5  -3   36.82    2.47
   4   5  -2    6.24    0.87
   4   5  -2    9.34    0.97
   4   5  -1  111.09    4.79
   4   5   0    3.60    0.42
   4   5   0    4.09    0.42
   4   5   0    3.26    0.41
   4   5   1   65.57    3.10
   4   5   1   68.01    2.06
   4   5   1   66.44    4.25
   4   5   2    4.93    0.52
   4   5   2    5.12    0.45
   4   5   2    6.20    0.74
   4   5   3   20.94    2.19
   4   5   3   33.03    1.17
   4   5   4    5.41    0.61
   4   5   4    6.27    0.52
   4   5   4    6.93    0.98
   4   5   5    5.88    0.83
   4   5   5    6.51    0.55
   4   5   5    6.74    0.74
   4   5   6    3.41    0.78
   4   5   6    5.14    0.91
   4   5   6    4.47    0.81
   4   5   7    9.37    1.12
   4   5   7   11.65    0.70
   4   5   7   11.70    1.22
   4   5   8    5.38    1.13
   4   5   8    7.27    1.21
   4   5   8    5.57    1.30
   4   5   9    0.58    0.31
   4   5   9    0.11    0.16
   4   5   9    0.00    0.32
   4   5  10    0.50    0.39
   4   5  10    0.99    0.41
   4   5  10    0.82    0.44
   4   5  11   10.70    0.83
  -4  -5 -11   16.54    1.28
   4   5  11    9.85    1.56
  -4  -5 -12    0.80    0.35
   4   5  12    1.59    0.57
  -4  -5 -12    1.73    0.64
   4   5  12    2.00    0.74
  -4  -5 -13   15.46    0.99
  -4  -5 -13   13.03    0.88
   4   5  13   14.51    1.08
  -4  -5 -14    1.84    0.55
   4   5  14    0.57    0.24
  -4  -5 -14    2.07    0.66
  -4  -5 -15    0.18    0.29
   4   5  15    0.03    0.23
  -4  -5 -15    0.55    0.41
  -4  -5 -16    4.78    0.89
   4   5  16    7.18    0.67
  -4  -5 -16    5.77    0.62
  -4  -5 -17    2.36    0.45
   4   5  17    2.62    0.42
  -4  -5 -17    1.96    0.43
  -4  -5 -18    0.56    0.24
   4   5  18    0.49    0.28
  -4  -5 -18    1.32    0.39
   4   6 -12  233.21    9.67
   4   6 -11   13.84    0.99
   4   6 -10   13.55    0.94
   4   6  -8   17.60    2.28
   4   6  -7    0.59    0.27
   4   6  -6    1.33    0.55
   4   6  -5   12.34    1.46
   4   6  -4    0.54    0.21
   4   6  -3   15.75    1.71
   4   6  -2    4.66    0.93
   4   6  -1    3.19    0.69
   4   6   0    6.71    0.75
   4   6   1    1.07    0.46
   4   6   2   24.53    1.77
   4   6   3    0.51    0.21
   4   6   4   15.63    1.96
   4   6   5   15.12    2.41
   4   6   6   92.02    5.56
   4   6   7    1.47    0.58
   4   6   8    3.66    1.00
   4   6   9    3.31    0.93
   4   6  10    2.00    0.57
  -4  -6 -11    2.32    0.67
   4   6  11    1.85    0.63
  -4  -6 -12    1.88    0.50
  -4  -6 -13   20.19    1.19
  -4  -6 -14   67.13    2.97
  -4  -6 -15   10.42    0.80
   4   7  -4    1.31    0.40
   4   7  -3    0.81    0.34
   4   7  -2   14.67    3.02
   4   7  -1   11.33    2.27
   4   7   0    1.35    0.42
   4   7   1    0.96    0.43
   4   7   2    0.34    0.34
   4   7   3    0.61    0.35
   4   7   4    0.73    0.31
   4   7   5    0.93    0.42
   4   7   6    1.04    0.60
   4   7   7   14.65    1.04
   4   7   8    1.15    0.55
   4   8   1    1.62    0.32
   4   8   2    2.76    0.51
   4   8   3   10.04    0.90
   5  -5  -5    4.29    0.54
   5  -5  -4    1.08    0.41
   5  -5  -4    0.99    0.44
   5  -5  -4    0.31    0.22
   5  -5  -3    3.03    0.53
   5  -5  -3    4.85    0.63
   5  -5  -3    1.84    0.32
   5  -5  -2    1.54    0.43
   5  -5  -2    1.68    0.50
   5  -5  -1    4.51    0.55
   5  -5  -1    2.26    0.44
   5  -5   0    0.71    0.34
   5  -5   0    0.54    0.31
   5  -5   1    0.19    0.32
   5  -5   1    0.39    0.23
   5  -5   2    0.88    0.33
   5  -5   2    0.87    0.38
   5  -5   3    1.08    0.41
   5  -5   3    1.05    0.40
   5  -5   4    4.07    0.55
   5  -5   4    5.21    0.67
   5  -5   5    0.48    0.30
   5  -5   5    1.06    0.38
   5  -5   6    5.41    0.94
   5  -5   6    1.80    0.42
   5  -4  -8    0.14    0.38
   5  -4  -8    0.91    0.51
   5  -4  -7   -0.17    0.32
   5  -4  -7    2.69    0.79
   5  -4  -7    0.39    0.31
   5  -4  -6    0.26    0.34
   5  -4  -6    1.73    0.65
   5  -4  -6    0.47    0.38
   5  -4  -5    1.49    0.68
   5  -4  -5    0.13    0.36
   5  -4  -5    0.33    0.28
   5  -4  -4    4.09    1.59
   5  -4  -3  127.07   14.23
   5  -4  -3  115.93   12.99
   5  -4  -2   28.43    3.32
   5  -4  -2   29.38    3.44
   5  -4  -2   25.39    2.96
   5  -4  -1   23.22    2.76
   5  -4  -1   23.81    2.82
   5  -4  -1   23.06    2.71
   5  -4   0    2.33    0.83
   5  -4   0    1.16    0.47
   5  -4   1    1.52    0.54
   5  -4   1    0.67    0.37
   5  -4   1    0.93    0.45
   5  -4   2    0.56    0.40
   5  -4   2    1.63    0.63
   5  -4   2    0.89    0.45
   5  -4   3    1.78    0.68
   5  -4   3    1.85    0.63
   5  -4   4    1.84    0.59
   5  -4   4    2.12    0.67
   5  -4   5    5.86    0.89
   5  -4   5    5.91    0.87
   5  -4   6   26.24    3.46
   5  -4   7   97.72    7.22
   5  -4   7  114.98    4.96
   5  -4   8   12.52    1.82
   5  -4   8   19.40    1.20
   5  -4   9    0.19    0.31
   5  -4   9    0.36    0.29
   5  -4  10    2.28    0.36
   5  -4  10    1.91    0.42
   5  -4  11   18.20    2.78
   5  -4  11   30.95    1.75
   5  -3 -10    1.62    0.51
   5  -3 -10    2.77    0.82
   5  -3 -10    2.04    0.63
   5  -3  -9    6.85    1.02
   5  -3  -9    6.70    1.03
   5  -3  -9    4.54    0.76
   5  -3  -8    0.21    0.33
   5  -3  -8    0.53    0.43
   5  -3  -8    1.09    0.56
   5  -3  -7   32.04    1.61
   5  -3  -7   30.02    1.55
   5  -3  -7   27.42    1.43
   5  -3  -6    6.33    0.66
   5  -3  -6    5.81    0.74
   5  -3  -6    4.42    1.02
   5  -3  -5   17.05    0.96
   5  -3  -5   12.93    0.81
   5  -3  -5   14.63    0.89
   5  -3  -4    0.46    0.43
   5  -3  -4    1.04    0.51
   5  -3  -4    0.67    0.35
   5  -3  -3    0.81    0.44
   5  -3  -3    2.26    0.56
   5  -3  -3    2.40    0.60
   5  -3  -2   16.37    1.23
   5  -3  -2   19.20    1.33
   5  -3  -2   18.74    1.31
   5  -3  -1    4.82    0.89
   5  -3   0   73.92    4.04
   5  -3   0   74.80    4.10
   5  -3   0   70.01    3.81
   5  -3   1    1.50    0.54
   5  -3   1    0.81    0.48
   5  -3   1    0.63    0.40
   5  -3   2    7.43    0.78
   5  -3   2    5.91    0.60
   5  -3   2    6.17    0.57
   5  -3   3    1.50    0.60
   5  -3   3    0.97    0.38
  -5   3  -3    0.58    0.25
   5  -3   3    1.28    0.43
   5  -3   4    6.65    0.73
   5  -3   4    7.61    0.80
  -5   3  -4    6.82    0.60
   5  -3   4    6.57    0.65
   5  -3   5   12.15    0.85
   5  -3   5   14.67    0.96
  -5   3  -5   14.27    0.71
   5  -3   5   12.73    0.68
   5  -3   6    1.52    0.62
   5  -3   6    2.71    0.98
  -5   3  -6    0.87    0.45
   5  -3   6    0.54    0.31
   5  -3   7   10.13    1.47
   5  -3   7   14.43    0.91
  -5   3  -7   10.96    0.65
   5  -3   8    2.76    0.66
   5  -3   8    4.99    1.45
  -5   3  -8    2.58    0.68
   5  -3   9    8.28    1.15
   5  -3   9    9.15    0.85
  -5   3  -9    7.64    0.62
   5  -3  10   26.81    4.30
   5  -3  10   41.10    4.70
  -5   3 -10   37.40    4.27
   5  -3  11   25.52    3.81
   5  -3  11   33.65    3.91
  -5   3 -11   32.87    3.78
   5  -3  12    7.93    1.04
   5  -3  12   10.18    0.85
  -5   3 -12    7.86    0.67
   5  -3  13    3.52    0.93
   5  -3  13    4.31    0.89
  -5   3 -13    4.36    0.87
  -5   3 -14    0.83    0.38
  -5   3 -15    0.89    0.35
   5  -2 -12    1.87    0.67
  -5   2  12    0.77    0.49
   5  -2 -12    0.84    0.56
   5  -2 -11    4.10    1.61
   5  -2 -11    2.30    0.72
   5  -2 -10    0.27    0.33
   5  -2 -10    1.54    0.66
   5  -2  -9   17.48    1.04
   5  -2  -9   14.97    0.93
   5  -2  -9   17.02    1.09
   5  -2  -8    1.26    0.60
   5  -2  -8    0.11    0.35
   5  -2  -7   15.95    1.21
   5  -2  -7   14.81    1.15
   5  -2  -7   12.22    0.99
   5  -2  -6    8.87    0.79
   5  -2  -6   10.68    0.85
   5  -2  -6   10.01    0.73
   5  -2  -5    6.34    0.63
   5  -2  -5    8.36    0.69
   5  -2  -5    9.55    0.80
   5  -2  -4   22.88    1.05
   5  -2  -4   23.51    1.02
   5  -2  -4   23.31    0.94
   5  -2  -3    8.18    1.40
   5  -2  -3   10.52    0.90
   5  -2  -3    8.72    1.77
   5  -2  -2    1.56    0.78
   5  -2  -2    1.85    0.76
   5  -2  -2    0.07    0.28
   5  -2  -1    2.98    0.66
   5  -2  -1    4.47    0.95
   5  -2  -1    4.42    0.82
   5  -2   0    8.54    1.82
   5  -2   1  120.09    3.90
   5  -2   1  115.60    3.68
   5  -2   2  226.64    6.89
   5  -2   2  299.00    8.98
   5  -2   2  277.12    8.23
   5  -2   3  328.95    9.78
   5  -2   3  337.06   10.02
   5  -2   3  392.94   11.49
   5  -2   4   49.84    1.93
   5  -2   4   53.57    2.06
   5  -2   4   43.39    1.60
   5  -2   5   67.64    1.51
   5  -2   5   73.80    1.60
   5  -2   5   67.72    1.21
   5  -2   6    4.83    0.90
   5  -2   6    4.90    0.60
  -5   2  -6    3.19    0.73
   5  -2   6    6.82    0.61
   5  -2   7   35.19    2.78
   5  -2   7   39.17    1.10
  -5   2  -7   41.88    1.13
   5  -2   7   35.76    0.92
   5  -2   8    3.65    0.71
   5  -2   8    1.39    0.42
  -5   2  -8    2.98    0.71
   5  -2   8    1.72    0.45
   5  -2   9    6.92    0.74
   5  -2   9    6.84    0.71
  -5   2  -9    4.24    0.72
   5  -2   9    4.58    0.95
   5  -2  10    1.51    0.58
   5  -2  10    0.59    0.30
  -5   2 -10    1.16    0.49
   5  -2  10    1.11    0.42
   5  -2  11    2.99    0.89
   5  -2  11    4.34    1.06
  -5   2 -11    4.15    1.14
   5  -2  12  104.55    6.51
   5  -2  12  136.44    5.16
  -5   2 -12  139.42    5.22
   5  -2  13   10.77    2.19
   5  -2  13   10.31    1.46
  -5   2 -13   11.49    1.47
   5  -2  14   22.39    2.53
   5  -2  14   30.47    1.70
  -5   2 -14   28.75    1.57
  -5   2 -15   33.67    1.73
   5  -1 -16    0.56    0.25
   5  -1 -14   17.81    1.21
  -5   1  14   11.58    1.46
   5  -1 -14   16.22    1.18
   5  -1 -13   44.07    5.07
  -5   1  13   48.08    5.55
   5  -1 -13   46.66    5.35
   5  -1 -12   16.38    1.01
  -5   1  12   20.19    1.44
   5  -1 -12   14.11    0.91
   5  -1 -11   72.03    2.31
  -5   1  11   73.49    2.39
   5  -1 -11   72.85    2.31
   5  -1 -10    1.43    0.46
   5  -1 -10    1.40    0.39
   5  -1  -9    7.00    0.72
   5  -1  -9    8.71    0.79
   5  -1  -9    5.60    1.48
   5  -1  -8    3.48    0.81
   5  -1  -8    4.27    0.97
   5  -1  -8    4.40    1.03
   5  -1  -7    3.82    0.92
   5  -1  -7    6.49    0.71
   5  -1  -7    4.25    1.01
   5  -1  -6    1.92    0.65
   5  -1  -6    0.87    0.63
   5  -1  -6    1.01    0.65
   5  -1  -5    3.53    0.77
   5  -1  -5    2.72    0.69
   5  -1  -5    2.29    0.65
   5  -1  -4  275.21    7.83
   5  -1  -4  269.11    7.64
   5  -1  -4  280.24    7.95
   5  -1  -3    0.97    0.50
   5  -1  -3    2.81    0.72
   5  -1  -3   -0.11    0.36
   5  -1  -2   16.88    0.95
   5  -1  -2   14.95    0.96
   5  -1  -2   16.12    0.86
   5  -1  -1   26.04    1.41
   5  -1  -1   27.99    1.52
   5  -1  -1   22.98    1.25
   5  -1   0   19.37    1.18
   5  -1   0   18.74    1.14
   5  -1   0   15.96    0.93
   5  -1   1    1.76    0.65
   5  -1   1    0.48    0.38
   5  -1   1    1.17    0.35
   5  -1   2    6.63    0.96
   5  -1   2    8.34    1.16
   5  -1   2    5.49    0.78
   5  -1   3   56.43    2.00
   5  -1   3   55.63    2.47
   5  -1   3   53.60    1.81
   5  -1   4   59.37    2.14
   5  -1   4   61.04    2.15
   5  -1   4   65.93    2.24
   5  -1   5  425.82   11.90
   5  -1   5  481.24   13.32
   5  -1   6   73.61    2.52
   5  -1   6   76.73    2.60
   5  -1   6   76.20    2.42
   5  -1   7   18.79    1.81
   5  -1   7   19.66    1.02
   5  -1   7   20.08    1.83
   5  -1   8    4.26    1.04
   5  -1   8    3.13    0.70
  -5   1  -8    2.12    0.55
   5  -1   8    3.26    0.64
   5  -1   9    1.73    0.55
   5  -1   9    0.75    0.42
  -5   1  -9    2.17    0.69
   5  -1   9    0.19    0.17
   5  -1  10    5.17    0.63
   5  -1  10    6.28    0.66
  -5   1 -10    7.59    0.61
   5  -1  10    6.42    0.74
   5  -1  11    1.89    0.60
   5  -1  11    2.45    0.62
  -5   1 -11    3.57    0.78
   5  -1  11    0.71    0.32
  -5   1 -12   42.07    1.59
   5  -1  12   29.97    2.03
  -5   1 -13  119.09    4.51
   5  -1  13   99.39    5.06
   5  -1  14  181.38    7.85
   5  -1  14  198.71    7.31
  -5   1 -14  235.50    8.64
  -5   1 -15  252.14   91.49
   5  -1  16    1.51    0.46
   5   0 -17    0.97    0.35
   5   0 -16    0.55    0.39
   5   0 -15    6.62    0.66
  -5   0  15    8.07    0.95
   5   0 -15    6.97    0.68
   5   0 -15   10.36    0.87
   5   0 -14    2.04    0.77
  -5   0  14    1.10    0.35
   5   0 -14    1.42    0.54
   5   0 -14    1.75    0.69
   5   0 -13   16.58    1.10
  -5   0  13   10.61    1.42
   5   0 -13   11.63    0.83
   5   0 -13   15.01    1.04
   5   0 -12    7.05    0.69
  -5   0  12    8.37    0.92
   5   0 -12    7.40    0.76
   5   0 -11   48.58    2.82
  -5   0  11   47.90    2.86
   5   0 -11   50.35    2.88
   5   0 -10    1.62    0.64
   5   0 -10    0.87    0.38
   5   0  -9    2.91    0.73
   5   0  -9    3.27    0.82
   5   0  -8    1.83    0.45
   5   0  -8    2.16    0.64
   5   0  -8    0.64    0.51
   5   0  -7    2.67    0.66
   5   0  -7    3.13    0.63
   5   0  -7    3.19    0.70
   5   0  -6    2.25    0.67
   5   0  -6    2.47    0.48
   5   0  -6    2.47    0.54
   5   0  -5    7.32    0.77
   5   0  -5    7.11    0.78
   5   0  -5    7.51    0.76
   5   0  -4   14.92    0.98
   5   0  -4   13.60    1.06
   5   0  -4   13.83    0.97
   5   0  -3   63.51    2.75
   5   0  -3   62.17    2.68
   5   0  -3   60.76    2.64
   5   0  -2   35.96    1.72
   5   0  -2   41.82    1.93
   5   0  -1   93.32    3.80
   5   0  -1   88.63    3.57
   5   0   0   13.07    1.68
   5   0   0   13.84    1.78
   5   0   0   11.58    1.47
   5   0   1    7.99    1.18
   5   0   1    9.52    1.31
   5   0   1    6.53    0.95
   5   0   2    1.24    0.50
   5   0   2    0.55    0.35
   5   0   2    0.12    0.27
   5   0   3    1.05    0.50
   5   0   3    2.81    0.61
   5   0   3    1.59    0.38
   5   0   4    0.79    0.37
   5   0   4    3.47    0.66
   5   0   4    1.94    0.43
   5   0   5    1.06    0.39
   5   0   5    2.11    0.67
   5   0   5    1.09    0.39
   5   0   6    8.04    1.11
   5   0   6    7.62    1.03
   5   0   6    9.49    1.36
   5   0   7    4.86    0.76
   5   0   7    4.81    0.66
   5   0   7    6.98    0.89
   5   0   8   11.21    0.96
   5   0   8    8.75    0.77
   5   0   8   11.16    0.90
   5   0   9    0.40    0.27
   5   0   9    1.67    0.64
  -5   0  -9    0.93    0.58
   5   0   9    1.19    0.35
   5   0  10    7.74    1.44
   5   0  10    9.23    0.80
  -5   0 -10    8.71    1.78
   5   0  10    9.54    0.86
   5   0  11    1.14    0.51
   5   0  11    1.79    0.75
  -5   0 -11    1.22    0.46
   5   0  11    0.41    0.30
   5   0  12    0.55    0.44
   5   0  12    0.51    0.34
  -5   0 -12    2.11    0.72
   5   0  12    1.14    0.31
   5   0  13   12.95    1.29
   5   0  13   11.56    0.82
  -5   0 -13   13.11    0.93
   5   0  13    8.86    1.21
   5   0  14    1.23    0.65
   5   0  14    0.96    0.59
  -5   0 -14    1.96    0.80
   5   0  14    0.39    0.40
   5   0  15   70.54    4.47
   5   0  15   82.96    3.38
  -5   0 -15   85.47    3.40
   5   0  15   56.04    3.24
  -5   0 -16    1.63    0.64
   5   0  16    1.01    0.34
   5   1 -16   15.38    1.11
  -5  -1  16    7.80    1.32
   5   1 -16    6.76    1.44
   5   1 -16   12.69    0.96
   5   1 -15    2.68    0.63
  -5  -1  15    2.89    0.61
   5   1 -15    0.80    0.44
   5   1 -15    2.27    0.55
   5   1 -14    0.27    0.28
  -5  -1  14   -0.17    0.28
   5   1 -14    0.65    0.34
   5   1 -14    1.27    0.50
   5   1 -13    0.93    0.44
  -5  -1  13    0.82    0.35
   5   1 -13    1.29    0.60
   5   1 -13    0.71    0.36
   5   1 -12    2.76    0.88
  -5  -1  12    2.58    0.90
   5   1 -12    1.79    0.67
   5   1 -12    1.38    0.56
   5   1 -11    0.90    0.43
  -5  -1  11    0.91    0.44
   5   1 -11    1.33    0.63
   5   1 -10    1.51    0.60
   5   1 -10    0.41    0.35
   5   1  -9   11.20    1.00
   5   1  -9    8.97    0.64
   5   1  -9    7.52    0.66
   5   1  -8  693.70  132.31
   5   1  -8  747.30  142.53
   5   1  -8  377.62   11.13
   5   1  -7    1.49    0.66
   5   1  -7    3.24    0.89
   5   1  -7    1.92    0.56
   5   1  -6  193.02    5.65
   5   1  -5    2.53    0.57
   5   1  -5    3.30    0.71
   5   1  -5    1.29    0.49
   5   1  -4   10.25    1.29
   5   1  -4   12.85    0.98
   5   1  -4    9.34    1.22
   5   1  -3   13.58    1.04
   5   1  -3   11.89    1.42
   5   1  -3   12.14    1.50
   5   1  -2    2.13    0.65
   5   1  -2    1.84    0.55
   5   1  -2    1.50    0.54
   5   1  -1    0.12    0.32
   5   1  -1    0.44    0.37
   5   1  -1    1.42    0.59
   5   1   0   16.87    0.83
   5   1   0   16.62    1.89
   5   1   0   16.45    1.89
   5   1   1   16.98    0.92
   5   1   1   16.90    0.90
   5   1   1   16.65    1.92
   5   1   2  240.72    5.37
   5   1   2  252.57    5.67
   5   1   3  167.78    3.96
   5   1   3  165.81    3.91
   5   1   3  176.91    4.12
   5   1   4   29.58    1.15
   5   1   4   34.63    1.29
   5   1   4   28.34    1.17
   5   1   5   10.36    1.34
   5   1   5    8.72    1.12
   5   1   5    8.35    1.05
   5   1   6    2.56    0.59
   5   1   6    2.83    0.75
   5   1   6    1.57    0.36
   5   1   7    0.97    0.55
   5   1   7    0.81    0.46
   5   1   7    1.13    0.33
   5   1   8    1.39    0.50
   5   1   8    1.32    0.55
   5   1   8    0.70    0.21
   5   1   9   11.68    1.12
   5   1   9   11.43    0.84
   5   1   9   10.56    1.09
   5   1  10   11.33    1.10
   5   1  10   12.33    0.92
   5   1  10   10.27    1.04
   5   1  11    2.91    0.76
   5   1  11    1.32    0.60
  -5  -1 -11    0.91    0.41
   5   1  11    3.41    0.80
   5   1  12    1.65    0.52
   5   1  12    0.96    0.53
  -5  -1 -12    1.12    0.55
   5   1  12    1.14    0.43
   5   1  13    3.28    0.80
   5   1  13    2.57    0.75
  -5  -1 -13    1.80    0.54
   5   1  13    0.70    0.39
   5   1  14    2.11    0.90
   5   1  14    2.44    0.78
  -5  -1 -14    1.21    0.52
   5   1  14    2.89    0.87
   5   1  15    7.81    1.24
   5   1  15   10.78    0.91
  -5  -1 -15   13.27    0.95
   5   1  15    8.11    1.21
   5   1  16    5.03    1.47
   5   1  16    7.56    1.11
  -5  -1 -16    6.23    0.93
   5   1  16    3.86    1.51
   5   1  17    7.33    1.21
   5   1  18   21.41    1.19
   5   2 -16    2.64    0.67
  -5  -2  16    1.19    0.63
   5   2 -15   72.64    3.27
  -5  -2  15   53.46    3.62
   5   2 -15   64.36    3.82
   5   2 -15   72.11    3.25
   5   2 -14   28.68    3.36
  -5  -2  14   26.83    3.15
   5   2 -14   20.62    3.49
   5   2 -14   26.03    3.07
   5   2 -13   36.56    1.76
  -5  -2  13   32.80    1.62
   5   2 -13   30.02    1.53
   5   2 -13   33.57    1.68
   5   2 -12    7.09    0.61
  -5  -2  12    5.66    0.61
   5   2 -12    6.18    0.56
   5   2 -12    7.52    0.72
   5   2 -11    1.50    0.57
   5   2 -11    0.76    0.30
   5   2 -11    0.77    0.47
   5   2 -10    0.89    0.43
   5   2 -10    1.06    0.35
   5   2 -10    1.32    0.48
   5   2  -9    3.52    0.93
   5   2  -9    3.30    0.87
   5   2  -9    2.43    0.65
   5   2  -8    8.61    1.74
   5   2  -8    8.33    1.40
   5   2  -8    8.31    1.40
   5   2  -7    9.17    0.77
   5   2  -7   12.15    0.91
   5   2  -7    8.24    1.41
   5   2  -6   89.90    2.86
   5   2  -6   91.20    2.88
   5   2  -6   87.17    2.81
   5   2  -5  729.66  110.05
   5   2  -5  719.76   19.76
   5   2  -5  668.68   18.42
   5   2  -4   69.13    2.87
   5   2  -4   69.78    2.89
   5   2  -4   74.44    3.17
   5   2  -3    1.62    0.48
   5   2  -3    1.72    0.58
   5   2  -3    1.81    0.63
   5   2  -2    0.16    0.29
   5   2  -2    0.80    0.48
   5   2  -2    1.43    0.56
   5   2  -1    8.48    1.15
   5   2  -1    6.07    0.86
   5   2  -1    6.23    0.89
   5   2   0    6.68    0.96
   5   2   0    8.32    1.18
   5   2   0    7.86    1.21
   5   2   1    0.61    0.41
   5   2   1    2.37    0.75
   5   2   1    1.96    0.75
   5   2   2  265.77    5.89
   5   2   2  269.83    6.01
   5   2   2  254.78    5.70
   5   2   3  116.70    4.69
   5   2   3  108.09    4.43
   5   2   4 1050.89   55.15
   5   2   4  566.33   21.12
   5   2   5   58.85    2.56
   5   2   5   56.85    3.93
   5   2   6  179.43    6.95
   5   2   6  168.24    6.98
   5   2   7   76.30    4.04
   5   2   7   75.33    2.56
   5   2   7   73.10    3.48
   5   2   8   23.96    2.02
   5   2   8   26.84    1.24
   5   2   8   24.58    2.49
   5   2   9   11.17    1.18
   5   2   9   11.28    0.85
   5   2   9   11.75    1.48
   5   2  10    4.34    0.79
   5   2  10    1.29    0.49
   5   2  10    1.34    0.32
   5   2  11    0.34    0.29
   5   2  11    1.81    0.57
  -5  -2 -11    0.75    0.40
   5   2  11    0.90    0.37
   5   2  12    0.69    0.37
   5   2  12    1.25    0.40
  -5  -2 -12    0.66    0.46
   5   2  12    2.11    0.67
   5   2  13    1.03    0.52
   5   2  13    4.33    1.10
  -5  -2 -13    3.43    1.02
   5   2  13    1.80    0.65
   5   2  14   10.93    1.76
   5   2  14   16.99    0.97
  -5  -2 -14   20.07    1.07
   5   2  14   11.34    1.58
   5   2  15    9.23    1.58
   5   2  15   11.06    0.87
  -5  -2 -15   14.57    1.06
   5   2  15    9.54    1.36
   5   2  16    2.99    0.97
   5   2  16    5.72    0.86
  -5  -2 -16    4.54    0.77
   5   2  16    3.17    0.90
   5   2  17    0.57    0.38
   5   2  17    1.55    0.47
   5   2  17    0.49    0.29
   5   2  18    8.30    0.80
   5   3 -16    0.72    0.30
  -5  -3  16    1.82    0.45
   5   3 -16    1.18    0.38
   5   3 -15   18.55    1.09
  -5  -3  15   21.98    1.29
   5   3 -15   23.69    1.38
   5   3 -14    0.63    0.34
   5   3 -14    0.75    0.52
   5   3 -14    1.38    0.47
   5   3 -13    3.66    1.42
   5   3 -13    6.39    0.98
   5   3 -13    5.78    0.84
   5   3 -12    1.79    0.49
   5   3 -12    1.91    0.51
   5   3 -12    1.69    0.60
   5   3 -12    3.22    0.83
   5   3 -11    1.50    0.57
   5   3 -11    2.93    0.86
   5   3 -11    2.51    0.74
   5   3 -11    3.72    1.07
   5   3 -10    0.87    0.47
   5   3 -10    0.69    0.39
   5   3 -10    0.22    0.27
   5   3  -9    2.79    0.58
   5   3  -9    4.33    0.76
   5   3  -9    4.43    0.79
   5   3  -8    1.76    0.47
   5   3  -8    2.19    0.57
   5   3  -8    1.96    0.57
   5   3  -7    0.10    0.23
   5   3  -7    1.18    0.49
   5   3  -7    0.67    0.39
   5   3  -6    2.86    0.61
   5   3  -6    1.51    0.47
   5   3  -6    1.44    0.42
   5   3  -5    3.05    0.66
   5   3  -5    2.35    0.50
   5   3  -5    3.13    0.68
   5   3  -4    6.87    0.69
   5   3  -4    9.22    0.67
   5   3  -4    7.88    0.69
   5   3  -3    3.13    0.44
   5   3  -3    3.12    0.42
   5   3  -3    3.93    0.54
   5   3  -2   44.04    1.57
   5   3  -2   40.75    1.49
   5   3  -2   43.40    1.70
   5   3  -1    2.63    0.62
   5   3  -1    2.47    0.57
   5   3  -1    1.99    0.62
   5   3   0  111.14    4.37
   5   3   0  119.07    4.65
   5   3   0  119.00    6.40
   5   3   1   22.46    1.21
   5   3   1   24.78    1.29
   5   3   1   22.61    1.28
   5   3   2  102.35    4.05
   5   3   2  104.00    4.11
   5   3   2  104.57    4.20
   5   3   3    1.79    0.47
   5   3   3    2.29    0.52
   5   3   3    1.91    0.46
   5   3   4   53.64    3.15
   5   3   4   56.77    1.96
   5   3   4   47.61    3.02
   5   3   5   66.36    3.81
   5   3   5   78.76    2.56
   5   3   5   67.00    3.59
   5   3   6   88.94    3.11
   5   3   6   85.10    3.78
   5   3   6   94.47    4.26
   5   3   7   35.73    2.80
   5   3   7   41.29    1.60
   5   3   7   37.19    3.16
   5   3   8    4.01    0.81
   5   3   8    3.70    0.76
   5   3   8    2.29    0.57
   5   3   9    0.97    0.46
   5   3   9    1.60    0.58
   5   3   9    0.38    0.25
   5   3  10    3.02    0.80
   5   3  10    3.05    0.77
   5   3  10    4.39    0.99
   5   3  11    1.04    0.48
   5   3  11    0.35    0.26
   5   3  11    0.44    0.21
   5   3  12    7.36    1.21
   5   3  12    9.77    0.70
  -5  -3 -12   11.00    0.91
   5   3  12    8.52    1.16
   5   3  13    0.80    0.33
   5   3  13    1.41    0.48
  -5  -3 -13    0.16    0.35
   5   3  13    0.89    0.53
   5   3  14    5.38    1.38
   5   3  14    8.61    0.85
  -5  -3 -14   10.48    0.92
   5   3  14    6.96    0.91
   5   3  15    0.51    0.27
   5   3  15    0.29    0.24
  -5  -3 -15    1.42    0.70
   5   3  15    0.48    0.38
   5   3  16   12.80    2.41
   5   3  16   25.21    1.41
  -5  -3 -16   27.36    1.57
   5   3  16   15.58    2.95
   5   3  17    4.13    0.83
   5   3  17    6.20    0.75
   5   4 -15    1.37    0.35
   5   4 -14    0.44    0.31
   5   4 -13    0.66    0.34
   5   4 -12   15.52    0.99
   5   4 -12   13.96    0.98
   5   4 -11    1.77    0.55
   5   4 -11    4.00    1.53
   5   4 -11    4.04    1.54
   5   4 -10    1.90    0.50
   5   4 -10    1.95    0.53
   5   4 -10    2.60    0.73
   5   4  -9   65.77    1.97
   5   4  -9   59.48    1.82
   5   4  -9   66.77    2.13
   5   4  -8    8.57    0.63
   5   4  -8    7.63    0.61
   5   4  -8    8.38    0.73
   5   4  -7   42.24    2.35
   5   4  -7   42.01    2.35
   5   4  -7   47.25    2.72
   5   4  -6    1.55    0.43
   5   4  -6    1.97    0.45
   5   4  -6    1.97    0.48
   5   4  -5   18.45    0.74
   5   4  -5   19.75    0.76
   5   4  -5   18.60    0.87
   5   4  -4    1.96    0.60
   5   4  -4    2.21    0.63
   5   4  -4    0.37    0.42
   5   4  -3    2.17    0.47
   5   4  -3    2.31    0.56
   5   4  -3    2.05    0.49
   5   4  -2    3.61    0.66
   5   4  -2    3.79    0.70
   5   4  -2    4.57    0.95
   5   4  -1    3.44    0.67
   5   4  -1    2.32    0.47
   5   4  -1    3.01    0.60
   5   4   0    1.72    0.49
   5   4   0    2.13    0.53
   5   4   0    2.72    0.69
   5   4   1    9.41    1.29
   5   4   1   13.47    0.74
   5   4   1   16.07    1.30
   5   4   2    0.78    0.45
   5   4   2    0.95    0.42
   5   4   2    1.11    0.35
   5   4   3   76.79    4.16
   5   4   3   83.07    2.71
   5   4   3   87.43    5.34
   5   4   4   18.98    1.88
   5   4   4   29.26    1.22
   5   4   4   25.37    2.02
   5   4   5   40.77    3.51
   5   4   5   46.54    1.69
   5   4   5   54.07    3.75
   5   4   6    9.66    1.03
   5   4   6   11.02    0.67
   5   4   6   10.87    0.95
   5   4   7    5.37    0.67
   5   4   7    5.52    0.51
   5   4   7    6.09    0.83
   5   4   8   11.28    1.92
   5   4   8   16.21    1.18
   5   4   8   14.86    2.17
   5   4   9  183.81    9.98
   5   4   9  178.34    9.29
   5   4   9  187.10    9.99
   5   4  10   20.18    2.79
   5   4  10   23.76    1.02
   5   4  10   21.68    2.75
   5   4  11   16.10    2.21
   5   4  11   25.96    1.16
   5   4  11   19.39    2.30
   5   4  12    1.53    0.52
   5   4  12    1.26    0.41
  -5  -4 -12    1.97    0.75
   5   4  12    1.85    0.57
   5   4  13    0.53    0.32
   5   4  13    0.64    0.31
  -5  -4 -13    0.98    0.51
   5   4  13    1.66    0.53
   5   4  14    0.39    0.30
   5   4  14    2.02    0.46
  -5  -4 -14    0.88    0.48
   5   4  14    1.01    0.47
   5   4  15    0.51    0.44
   5   4  15    1.58    0.46
  -5  -4 -15    2.32    0.68
   5   4  16    3.83    1.92
   5   4  16    9.38    0.89
   5   5 -12    0.84    0.36
   5   5 -11    4.96    0.92
   5   5 -10    0.23    0.25
   5   5  -9   36.69    4.22
   5   5  -8    1.74    0.53
   5   5  -7  317.91   11.68
   5   5  -6  137.84    5.42
   5   5  -5  193.53    6.14
   5   5  -4   12.35    1.24
   5   5  -3    1.83    0.54
   5   5  -2   21.93    2.14
   5   5  -1    2.55    0.55
   5   5   0    6.02    0.89
   5   5   0    8.88    1.05
   5   5   1    1.99    0.57
   5   5   1    1.60    0.36
   5   5   1    2.39    0.52
   5   5   2    0.15    0.20
   5   5   2    0.31    0.28
   5   5   2   -0.02    0.31
   5   5   3    9.93    0.75
   5   5   3   10.57    1.55
   5   5   4    0.73    0.27
   5   5   4    0.60    0.24
   5   5   4    2.05    0.50
   5   5   5    3.05    0.90
   5   5   5    1.88    0.55
   5   5   5    3.38    0.99
   5   5   6   17.76    2.66
   5   5   6   29.43    1.11
   5   5   6   28.65    2.33
   5   5   7   11.71    1.86
   5   5   7   17.64    0.82
   5   5   7   21.66    2.33
   5   5   8    8.75    1.43
   5   5   8   14.12    0.85
   5   5   8   14.35    1.54
   5   5   9   11.24    2.16
   5   5   9   21.89    1.07
   5   5   9   14.39    2.24
   5   5  10    3.74    1.56
   5   5  10    7.15    0.99
   5   5  10    5.60    1.04
   5   5  11    0.91    0.43
   5   5  11    0.52    0.27
   5   5  11    1.31    0.47
   5   5  12   16.87    3.05
   5   5  12   29.20    1.48
  -5  -5 -12   40.15    2.02
   5   5  13    0.30    0.33
   5   5  13    0.31    0.31
  -5  -5 -13    1.39    0.53
   5   5  14    1.02    0.32
  -5  -5 -14    1.69    0.45
  -5  -5 -15    1.38    0.46
   5   5  15    0.92    0.32
   5   6  -8    4.92    1.06
   5   6  -7    0.28    0.30
   5   6  -6   27.66    4.10
   5   6  -5    1.32    0.50
   5   6  -4   85.93    5.31
   5   6  -3    1.10    0.57
   5   6  -2    1.72    0.53
   5   6  -1    1.04    0.44
   5   6   0    2.20    0.64
   5   6   1   -0.06    0.29
   5   6   2    1.01    0.48
   5   6   3    1.19    0.43
   5   6   4    4.56    0.87
   5   6   5    0.56    0.27
   5   6   6   25.62    4.27
   5   6   7    7.27    1.44
   5   6   8    0.84    0.56
  -5  -6 -11    5.17    0.74
  -5  -6 -12    1.11    0.28
   5   7  -4    0.76    0.21
   5   7  -3    0.93    0.27
   5   7  -2   10.18    1.54
   5   7  -1   32.04    4.90
   5   7   0    4.13    0.69
   5   7   1    8.11    1.15
   6  -3  -4    1.60    0.37
   6  -3  -3    0.62    0.23
   6  -3  -2    1.43    0.44
   6  -3  -1   10.99    0.93
   6  -3   0    2.06    0.52
   6  -3   1    0.77    0.41
   6  -3   2    2.68    0.59
   6  -3   3    1.39    0.37
   6  -2  -6    5.68    0.67
   6  -2  -5    0.75    0.58
   6  -2  -5    0.58    0.37
   6  -2  -4    0.65    0.48
   6  -2  -4    0.92    0.54
   6  -2  -3   10.65    1.45
   6  -2  -3    8.45    1.23
   6  -2  -3    6.08    0.90
   6  -2  -2    0.83    0.47
   6  -2  -2    1.33    0.61
   6  -2  -2    0.60    0.31
   6  -2  -1    0.56    0.44
   6  -2  -1    2.16    0.81
   6  -2  -1    0.92    0.39
   6  -2   0    1.71    0.58
   6  -2   0    1.68    0.57
   6  -2   0    3.00    0.84
   6  -2   1    0.40    0.31
   6  -2   1    2.86    0.95
   6  -2   1    1.26    0.49
   6  -2   2    1.42    0.56
   6  -2   2    1.40    0.59
   6  -2   2    1.57    0.51
   6  -2   3    1.67    0.68
   6  -2   3    1.58    0.73
   6  -2   3    1.36    0.53
   6  -2   4    0.97    0.45
   6  -2   4    0.78    0.29
   6  -2   5    0.58    0.35
   6  -2   5    1.18    0.57
  -6   2  -5    1.90    0.66
   6  -2   5    1.37    0.48
   6  -2   6    1.51    0.57
   6  -2   6    0.63    0.43
  -6   2  -6    1.27    0.39
   6  -2   6    0.77    0.39
   6  -2   7    0.82    0.59
   6  -2   7    2.04    0.79
  -6   2  -7    0.90    0.47
   6  -2   7    0.40    0.24
  -6   2  -8    1.57    0.51
  -6   2  -9    0.65    0.40
  -6   2 -10    1.44    0.36
  -6   2 -11   53.13    2.64
   6  -1  -8    1.46    0.52
   6  -1  -8    0.44    0.47
   6  -1  -7    0.32    0.33
   6  -1  -7    2.58    0.93
   6  -1  -6    6.73    1.04
   6  -1  -6    5.29    0.89
   6  -1  -6    7.16    1.06
   6  -1  -5   36.12    1.73
   6  -1  -5   35.50    1.70
   6  -1  -5   37.72    1.87
   6  -1  -4    1.87    0.60
   6  -1  -3  255.54    9.25
   6  -1  -3  317.38   11.49
   6  -1  -3  233.04    8.42
   6  -1  -2    2.52    0.71
   6  -1  -2    2.57    0.73
   6  -1  -1    2.54    0.89
   6  -1  -1    3.19    0.93
   6  -1  -1    1.29    0.53
   6  -1   0   20.28    1.07
   6  -1   0   18.61    1.06
   6  -1   0   17.47    1.03
   6  -1   1    4.08    1.14
   6  -1   1    5.73    0.66
   6  -1   1    4.34    1.03
   6  -1   2    5.11    0.60
   6  -1   2    6.45    0.83
   6  -1   2    6.64    0.61
   6  -1   3    3.97    1.13
   6  -1   3    4.84    0.67
   6  -1   3    2.92    0.86
   6  -1   4   55.75    2.44
   6  -1   4   51.53    2.26
   6  -1   4   47.90    2.07
   6  -1   5    3.45    0.90
   6  -1   5    5.07    1.41
   6  -1   5    2.34    0.62
   6  -1   6    1.42    0.55
   6  -1   6    1.80    0.55
   6  -1   6    0.49    0.25
   6  -1   7    0.75    0.52
   6  -1   7    4.61    0.96
  -6   1  -7    2.13    0.73
   6  -1   7    2.03    0.61
   6  -1   8    0.49    0.52
   6  -1   8    2.03    0.76
  -6   1  -8    1.37    0.55
   6  -1   8    1.10    0.49
   6  -1   9    0.92    0.58
   6  -1   9    2.48    0.97
  -6   1  -9    1.11    0.53
   6  -1   9    1.03    0.35
   6  -1  10    1.47    0.45
   6  -1  10    0.15    0.40
  -6   1 -10    1.05    0.55
   6  -1  10    0.39    0.25
  -6   1 -11    2.07    0.65
  -6   1 -12    1.47    0.57
   6   0 -10    8.11    0.97
   6   0  -9    2.95    0.72
   6   0  -9    3.00    0.69
   6   0  -9    2.02    0.53
   6   0  -8    1.81    0.78
   6   0  -8    1.76    0.68
   6   0  -8    0.30    0.30
   6   0  -7    1.88    0.73
   6   0  -7    0.19    0.32
   6   0  -7    1.08    0.51
   6   0  -6    1.01    0.54
   6   0  -6    2.08    0.71
   6   0  -6    0.17    0.46
   6   0  -5    3.27    0.89
   6   0  -5    2.41    0.78
   6   0  -5    3.19    0.88
   6   0  -4    2.96    0.97
   6   0  -4    3.91    1.15
   6   0  -2  296.14    7.57
   6   0  -1  212.42   11.16
   6   0  -1  219.74   11.53
   6   0  -1  188.50    9.92
   6   0   0  257.31   13.37
   6   0   0  273.60   66.93
   6   0   0  236.77   12.29
   6   0   1   26.64    1.76
   6   0   1   26.30    1.73
   6   0   1   24.02    1.58
   6   0   2   24.46    1.63
   6   0   2   23.49    1.58
   6   0   2   21.27    1.46
   6   0   3    0.01    0.34
   6   0   3    0.64    0.67
   6   0   3    0.70    0.35
   6   0   4    4.37    1.04
   6   0   4    3.97    1.12
   6   0   4    5.55    0.64
   6   0   5    2.31    0.81
   6   0   5    1.52    0.64
   6   0   5    0.72    0.49
   6   0   6    8.78    0.95
   6   0   6    7.95    0.75
   6   0   7   68.46    4.43
   6   0   7   63.75    3.26
   6   0   8    1.22    0.62
   6   0   8    2.96    0.93
   6   0   8    0.62    0.29
   6   0   9   52.84    3.22
   6   0   9   60.29    2.65
   6   0   9   40.26    3.16
   6   0  10    7.05    1.28
   6   0  10    7.01    0.99
  -6   0 -10    8.24    1.16
   6   0  10    4.55    0.98
   6   0  11    3.26    0.76
   6   0  11    3.44    0.85
  -6   0 -11    4.75    0.95
   6   0  11    3.78    0.97
  -6   0 -12    0.98    0.55
   6   0  12    0.83    0.43
   6   0  13    0.80    0.38
   6   1 -11    2.15    0.54
   6   1 -11    0.05    0.27
   6   1 -10    0.37    0.30
   6   1 -10    1.38    0.45
   6   1 -10    2.26    0.69
   6   1  -9    0.74    0.44
   6   1  -9    1.63    0.55
   6   1  -9    0.55    0.47
   6   1  -8    1.55    0.61
   6   1  -8    0.84    0.42
   6   1  -8    1.03    0.51
   6   1  -7   13.84    0.98
   6   1  -7   15.73    1.05
   6   1  -7   15.87    1.08
   6   1  -6    2.19    0.67
   6   1  -6    1.86    0.66
   6   1  -6    1.40    0.59
   6   1  -5    0.78    0.57
   6   1  -5    1.88    0.72
   6   1  -5    0.82    0.37
   6   1  -4    1.16    0.60
   6   1  -4    1.65    0.70
   6   1  -4    0.66    0.35
   6   1  -3    1.76    0.56
   6   1  -3    0.70    0.33
   6   1  -3    0.87    0.46
   6   1  -2    1.15    0.45
   6   1  -2    0.81    0.45
   6   1  -1    1.62    0.57
   6   1  -1    1.23    0.50
   6   1  -1    3.65    0.81
   6   1   0   85.10    4.65
   6   1   0   77.51    4.30
   6   1   1   45.72    3.98
   6   1   1   53.90    3.11
   6   1   2   55.16    3.11
   6   1   2   44.35    2.58
   6   1   2   50.50    2.90
   6   1   3    1.29    0.61
   6   1   3    1.11    0.50
   6   1   3    0.40    0.38
   6   1   4    1.85    0.61
   6   1   4    0.45    0.32
   6   1   4    1.51    0.46
   6   1   5    1.39    0.61
   6   1   5    1.20    0.56
   6   1   5    1.17    0.50
   6   1   6    1.35    0.59
   6   1   6    1.96    0.73
   6   1   6    3.70    1.11
   6   1   7    3.80    1.13
   6   1   7    3.32    1.05
   6   1   7    3.65    1.03
   6   1   8   21.36    2.37
   6   1   8   18.20    2.02
   6   1   9  119.33    5.59
   6   1   9  111.04    4.60
   6   1  10   27.94    4.48
   6   1  10   36.96    4.27
  -6  -1 -10   50.11    5.80
   6   1  10   23.92    4.10
   6   1  11    1.23    0.56
   6   1  11    2.89    0.86
  -6  -1 -11    2.77    0.94
   6   1  11    1.60    0.44
   6   1  12    1.59    0.64
   6   1  12    1.89    0.64
  -6  -1 -12    3.10    0.72
   6   1  12    0.70    0.36
   6   1  13    0.88    0.40
   6   1  14    1.05    0.36
   6   1  15    1.35    0.29
   6   2 -12    5.60    0.64
   6   2 -12    5.11    0.62
   6   2 -11    0.95    0.51
   6   2 -11    0.26    0.25
   6   2 -10    1.01    0.55
   6   2 -10    0.27    0.25
   6   2 -10    1.90    0.53
   6   2  -9   12.13    1.55
   6   2  -9   13.58    1.69
   6   2  -9   16.40    2.02
   6   2  -8    5.77    0.91
   6   2  -8    6.35    0.93
   6   2  -8    6.89    1.00
   6   2  -7   34.67    1.67
   6   2  -7   29.53    1.41
   6   2  -7   34.67    1.71
   6   2  -6    7.41    0.71
   6   2  -6    7.19    0.63
   6   2  -6    6.45    0.71
   6   2  -5   12.78    0.85
   6   2  -5   13.48    0.87
   6   2  -5   13.63    0.98
   6   2  -4    6.29    0.64
   6   2  -4    6.68    0.64
   6   2  -4    7.63    0.71
   6   2  -3    1.64    0.57
   6   2  -3    1.44    0.57
   6   2  -3    1.41    0.56
   6   2  -2    6.52    0.74
   6   2  -2    7.00    0.73
   6   2  -2    5.48    1.48
   6   2  -1    1.65    0.58
   6   2  -1    0.43    0.34
   6   2   0   13.51    1.06
   6   2   0   11.73    1.27
   6   2   0   12.83    1.06
   6   2   1    3.35    0.66
   6   2   1    3.10    0.68
   6   2   1    3.20    0.65
   6   2   2    3.85    0.71
   6   2   2    4.59    0.81
   6   2   2    3.94    0.77
   6   2   3    1.50    0.50
   6   2   3    0.97    0.34
   6   2   3    1.19    0.52
   6   2   4   11.74    0.97
   6   2   4   10.91    0.93
   6   2   4   10.39    1.45
   6   2   5    0.95    0.44
   6   2   5    1.44    0.62
   6   2   5    0.79    0.45
   6   2   6   15.29    1.90
   6   2   6   18.66    1.10
   6   2   6   15.08    1.65
   6   2   7    7.69    1.07
   6   2   7    6.97    0.74
   6   2   7    5.46    0.79
   6   2   8    1.96    0.72
   6   2   8    4.56    1.10
   6   2   8    2.58    0.65
   6   2   9    0.78    0.40
   6   2   9    0.98    0.46
   6   2   9    0.52    0.19
   6   2  10    1.63    0.65
   6   2  10    2.72    0.80
   6   2  10    2.63    0.76
   6   2  11    1.19    0.53
   6   2  11    1.40    0.66
  -6  -2 -11    0.22    0.34
   6   2  11    0.48    0.22
   6   2  12   18.37    2.90
   6   2  12   27.03    1.53
   6   2  12   17.10    2.91
   6   2  13   14.69    2.27
   6   2  14   51.37    4.64
   6   3 -12    0.07    0.28
   6   3 -12    1.41    0.48
   6   3 -11  264.14   11.80
   6   3 -11  250.11   11.18
   6   3 -10    5.88    0.56
   6   3 -10    4.80    0.89
   6   3 -10    5.42    0.69
   6   3  -9    1.13    0.53
   6   3  -9    1.20    0.57
   6   3  -9    1.37    0.48
   6   3  -8   -0.02    0.26
   6   3  -8    1.03    0.50
   6   3  -8    0.11    0.28
   6   3  -7    0.95    0.41
   6   3  -7    0.79    0.38
   6   3  -7    1.14    0.46
   6   3  -6    0.79    0.47
   6   3  -6    1.66    0.54
   6   3  -6    1.92    0.67
   6   3  -5    0.98    0.41
   6   3  -5    0.86    0.41
   6   3  -5    1.71    0.67
   6   3  -4   12.51    0.87
   6   3  -4   14.46    0.91
   6   3  -4   14.52    0.99
   6   3  -3   11.29    0.80
   6   3  -3    9.15    0.90
   6   3  -2   79.40    2.47
   6   3  -1    8.72    0.64
   6   3  -1    9.74    0.68
   6   3  -1   12.43    0.97
   6   3   0    2.29    0.70
   6   3   0    5.01    0.53
   6   3   0    3.79    1.08
   6   3   1    0.46    0.34
   6   3   1    0.58    0.35
   6   3   1    0.29    0.35
   6   3   2    2.06    0.71
   6   3   2    1.11    0.52
   6   3   2    0.38    0.36
   6   3   3    7.09    0.80
   6   3   3    5.70    0.58
   6   3   3    5.88    0.94
   6   3   4    0.68    0.35
   6   3   4    1.02    0.50
   6   3   4    1.68    0.65
   6   3   5   12.47    1.48
   6   3   5   13.85    0.83
   6   3   5   11.91    1.45
   6   3   6    0.76    0.33
   6   3   6    0.58    0.26
   6   3   6    1.48    0.57
   6   3   7    2.31    0.77
   6   3   7    2.90    0.74
   6   3   7    2.83    0.79
   6   3   8    3.88    0.96
   6   3   8    5.50    0.62
   6   3   8    5.40    0.94
   6   3   9   15.24    2.62
   6   3   9   21.09    2.50
   6   3   9   15.31    2.73
   6   3  10   13.48    2.35
   6   3  10   19.35    2.31
   6   3  10   13.75    2.64
   6   3  11    1.69    0.57
   6   3  11    1.96    0.52
   6   3  11    0.89    0.45
   6   3  12    3.13    1.20
   6   3  12    5.54    0.66
   6   3  12    4.56    1.07
   6   4  -9    9.71    0.83
   6   4  -8   17.16    1.26
   6   4  -7    5.81    0.57
   6   4  -7    6.10    0.57
   6   4  -7   10.63    0.95
   6   4  -6    0.99    0.51
   6   4  -6    1.67    0.42
   6   4  -6    1.41    0.43
   6   4  -5    8.72    1.14
   6   4  -5    9.51    1.22
   6   4  -5    8.96    1.20
   6   4  -4    2.71    0.75
   6   4  -4    1.66    0.50
   6   4  -4    0.87    0.37
   6   4  -3   13.66    1.68
   6   4  -3   16.99    2.10
   6   4  -2   11.14    1.46
   6   4  -2   11.10    1.41
   6   4  -2   10.11    1.62
   6   4  -1  123.46    5.09
   6   4   0    6.81    0.63
   6   4   0   10.00    1.27
   6   4   1   16.53    1.84
   6   4   2    1.22    0.65
   6   4   2    0.35    0.24
   6   4   2    0.98    0.58
   6   4   3    2.06    0.60
   6   4   3    3.35    0.84
   6   4   4    1.52    0.53
   6   4   4    1.38    0.53
   6   4   4    2.20    0.67
   6   4   5    0.68    0.30
   6   4   5    1.00    0.39
   6   4   5    1.01    0.42
   6   4   6    0.67    0.35
   6   4   6    1.26    0.49
   6   4   6    0.73    0.40
   6   4   7    0.86    0.53
   6   4   7    1.25    0.43
   6   4   8    0.21    0.25
   6   4   8    1.30    0.38
   6   4   8    0.32    0.35
   6   4   9    1.09    0.54
   6   4   9    0.25    0.24
   6   4  10    0.18    0.39
   6   4  10    0.86    0.43
   6   4  11    3.85    0.86
   6   4  11    6.26    0.62
   6   4  12    4.01    1.23
   6   4  12   10.38    0.88
   6   5  -5    7.09    0.97
   6   5  -4    0.66    0.50
   6   5  -3    1.29    0.34
   6   5  -2    3.84    0.83
   6   5  -1    3.62    0.85
   6   5   0    0.51    0.32
   6   5   1    7.13    1.10
   6   5   2   25.51    3.43
   6   5   3   15.51    2.11
   7   2  -1    1.96    0.51
   7   2   0    1.94    0.51
   7   3  -3    0.82    0.43
   7   3  -3    0.36    0.29
   7   3  -2    2.29    0.49
   7   3  -2    2.27    0.42
   7   3  -1    2.86    0.53
   7   3  -1    2.67    0.51
   7   3   0    1.27    0.46
   7   3   0    1.32    0.39
   7   3   1    0.80    0.39
   7   3   2    1.06    0.31
   7   3   3    1.12    0.54
   7   3   3    2.67    0.48
   0   0   0    0.00    0.00
;
_shelx_hkl_checksum              22765
loop_
_space_group_symop_operation_xyz
'x, y, z'
'-x, -y, -z'
loop_
_atom_site_label
_atom_site_type_symbol
_atom_site_fract_x
_atom_site_fract_y
_atom_site_fract_z
_atom_site_U_iso_or_equiv
_atom_site_adp_type
_atom_site_occupancy
_atom_site_site_symmetry_order
_atom_site_calc_flag
_atom_site_refinement_flags_posn
_atom_site_refinement_flags_adp
C1 C 0.8599(4) -0.2910(3) 0.42196(10) 0.0210(4) Uani 1 1 d . .
C2 C 0.6801(4) -0.1257(3) 0.37298(10) 0.0187(4) Uani 1 1 d . .
C3 C 0.8305(3) -0.0105(3) 0.31070(10) 0.0168(4) Uani 1 1 d . .
C4 C 0.6479(3) 0.1544(3) 0.26120(10) 0.0159(4) Uani 1 1 d . .
C5 C 0.7997(3) 0.2723(3) 0.20009(10) 0.0166(4) Uani 1 1 d . .
C6 C 0.6280(3) 0.4451(3) 0.15124(10) 0.0164(4) Uani 1 1 d . .
C7 C 0.8004(4) 0.5541(3) 0.09678(11) 0.0225(4) Uani 1 1 d . .
H7A H 0.8900 0.4427 0.0612 0.027 Uiso 1 1 calc R U
H7B H 0.9395 0.6069 0.1244 0.027 Uiso 1 1 calc R U
C8 C 0.6556(3) 0.7443(3) 0.05336(10) 0.0181(4) Uani 1 1 d . .
F1 F 1.0244(3) -0.1919(2) 0.45827(7) 0.0337(3) Uani 1 1 d . .
F2 F 0.9996(3) -0.4491(2) 0.38169(7) 0.0324(3) Uani 1 1 d . .
F3 F 0.7056(3) -0.3793(2) 0.47137(7) 0.0355(4) Uani 1 1 d . .
F4 F 0.5433(3) 0.0266(2) 0.41838(6) 0.0291(3) Uani 1 1 d . .
F5 F 0.5105(2) -0.2367(2) 0.34193(7) 0.0279(3) Uani 1 1 d . .
F6 F 0.9993(2) 0.0979(2) 0.34374(6) 0.0245(3) Uani 1 1 d . .
F7 F 0.9699(2) -0.16530(19) 0.26682(6) 0.0243(3) Uani 1 1 d . .
F8 F 0.5043(2) 0.30568(19) 0.30562(6) 0.0234(3) Uani 1 1 d . .
F9 F 0.4836(2) 0.0433(2) 0.22743(6) 0.0241(3) Uani 1 1 d . .
F10 F 0.9741(2) 0.3760(2) 0.23299(6) 0.0230(3) Uani 1 1 d . .
F11 F 0.9361(2) 0.12004(19) 0.15410(6) 0.0243(3) Uani 1 1 d . .
F12 F 0.4791(2) 0.5929(2) 0.19660(6) 0.0241(3) Uani 1 1 d . .
F13 F 0.4581(2) 0.3410(2) 0.11503(6) 0.0249(3) Uani 1 1 d . .
O1 O 0.4118(3) 0.7943(2) 0.05633(8) 0.0265(3) Uani 1 1 d . .
O2 O 0.8164(3) 0.8454(3) 0.01367(8) 0.0237(3) Uani 1 1 d . .
H2 H 0.729(8) 0.961(7) -0.010(2) 0.077(12) Uiso 1 1 d . .
loop_
_atom_site_aniso_label
_atom_site_aniso_U_11
_atom_site_aniso_U_22
_atom_site_aniso_U_33
_atom_site_aniso_U_23
_atom_site_aniso_U_13
_atom_site_aniso_U_12
C1 0.0258(9) 0.0181(11) 0.0194(8) 0.0043(7) -0.0016(7) -0.0044(7)
C2 0.0205(9) 0.0167(10) 0.0185(8) 0.0019(7) -0.0008(7) -0.0023(7)
C3 0.0174(8) 0.0153(10) 0.0175(8) 0.0033(6) -0.0022(6) -0.0023(7)
C4 0.0153(8) 0.0137(10) 0.0186(8) 0.0015(6) -0.0017(6) -0.0022(6)
C5 0.0159(8) 0.0158(10) 0.0182(8) 0.0011(6) -0.0016(6) -0.0029(7)
C6 0.0146(8) 0.0173(10) 0.0173(8) 0.0002(6) -0.0022(6) -0.0021(7)
C7 0.0168(8) 0.0254(11) 0.0240(9) 0.0099(7) 0.0003(7) -0.0009(7)
C8 0.0185(8) 0.0190(10) 0.0170(8) 0.0026(6) -0.0010(6) -0.0034(7)
F1 0.0452(8) 0.0284(8) 0.0305(7) 0.0079(5) -0.0200(6) -0.0106(6)
F2 0.0441(8) 0.0219(7) 0.0263(6) 0.0016(5) -0.0015(5) 0.0085(5)
F3 0.0367(7) 0.0373(8) 0.0311(7) 0.0184(6) 0.0026(5) -0.0055(6)
F4 0.0354(7) 0.0247(7) 0.0224(6) 0.0036(5) 0.0079(5) 0.0067(5)
F5 0.0274(6) 0.0308(7) 0.0287(6) 0.0099(5) -0.0072(5) -0.0141(5)
F6 0.0250(6) 0.0246(7) 0.0267(6) 0.0070(5) -0.0109(5) -0.0101(5)
F7 0.0268(6) 0.0201(7) 0.0222(6) 0.0029(4) 0.0046(4) 0.0058(5)
F8 0.0241(6) 0.0194(7) 0.0229(6) 0.0027(4) 0.0058(4) 0.0047(5)
F9 0.0243(6) 0.0251(7) 0.0260(6) 0.0065(5) -0.0089(5) -0.0118(5)
F10 0.0203(6) 0.0263(7) 0.0251(6) 0.0088(5) -0.0085(4) -0.0102(5)
F11 0.0268(6) 0.0214(7) 0.0208(6) 0.0030(4) 0.0055(4) 0.0049(5)
F12 0.0269(6) 0.0218(7) 0.0199(5) 0.0019(4) 0.0026(4) 0.0058(5)
F13 0.0267(6) 0.0268(7) 0.0236(6) 0.0052(5) -0.0104(5) -0.0095(5)
O1 0.0163(6) 0.0317(9) 0.0292(7) 0.0096(6) -0.0020(5) 0.0020(6)
O2 0.0224(7) 0.0248(8) 0.0248(7) 0.0094(5) -0.0037(5) -0.0067(6)
loop_
_atom_type_symbol
_atom_type_description
_atom_type_scat_dispersion_real
_atom_type_scat_dispersion_imag
_atom_type_scat_source
C C 0.0033 0.0016 'International Tables Vol C Tables 4.2.6.8 and 6.1.1.4'
H H 0.0000 0.0000 'International Tables Vol C Tables 4.2.6.8 and 6.1.1.4'
O O 0.0106 0.0060 'International Tables Vol C Tables 4.2.6.8 and 6.1.1.4'
F F 0.0171 0.0103 'International Tables Vol C Tables 4.2.6.8 and 6.1.1.4'
loop_
_geom_angle_atom_site_label_1
_geom_angle_atom_site_label_2
_geom_angle_atom_site_label_3
_geom_angle
F2 C1 F1 108.76(16)
F2 C1 F3 108.73(16)
F1 C1 F3 108.51(16)
F2 C1 C2 111.39(15)
F1 C1 C2 111.18(16)
F3 C1 C2 108.21(15)
F5 C2 F4 109.01(15)
F5 C2 C1 107.19(15)
F4 C2 C1 107.32(15)
F5 C2 C3 109.17(15)
F4 C2 C3 109.22(15)
C1 C2 C3 114.80(15)
F7 C3 F6 108.93(14)
F7 C3 C2 108.34(15)
F6 C3 C2 107.54(14)
F7 C3 C4 108.55(14)
F6 C3 C4 108.88(15)
C2 C3 C4 114.49(15)
F8 C4 F9 109.06(14)
F8 C4 C5 108.89(15)
F9 C4 C5 108.01(14)
F8 C4 C3 108.26(14)
F9 C4 C3 108.30(15)
C5 C4 C3 114.23(14)
F10 C5 F11 108.37(14)
F10 C5 C4 108.59(14)
F11 C5 C4 108.61(15)
F10 C5 C6 107.25(14)
F11 C5 C6 107.44(14)
C4 C5 C6 116.34(14)
F12 C6 F13 107.05(14)
F12 C6 C7 111.42(16)
F13 C6 C7 110.95(15)
F12 C6 C5 108.37(14)
F13 C6 C5 108.05(15)
C7 C6 C5 110.85(14)
C6 C7 C8 114.97(15)
C6 C7 H7A 108.5
C8 C7 H7A 108.5
C6 C7 H7B 108.5
C8 C7 H7B 108.5
H7A C7 H7B 107.5
O1 C8 O2 125.04(18)
O1 C8 C7 122.86(17)
O2 C8 C7 112.09(16)
C8 O2 H2 111(2)
loop_
_geom_bond_atom_site_label_1
_geom_bond_atom_site_label_2
_geom_bond_distance
C1 F2 1.319(2)
C1 F1 1.324(2)
C1 F3 1.329(2)
C1 C2 1.552(3)
C2 F5 1.340(2)
C2 F4 1.342(2)
C2 C3 1.556(2)
C3 F7 1.341(2)
C3 F6 1.344(2)
C3 C4 1.563(2)
C4 F8 1.342(2)
C4 F9 1.344(2)
C4 C5 1.555(2)
C5 F10 1.347(2)
C5 F11 1.348(2)
C5 C6 1.556(2)
C6 F12 1.350(2)
C6 F13 1.361(2)
C6 C7 1.510(2)
C7 C8 1.511(3)
C7 H7A 0.9900
C7 H7B 0.9900
C8 O1 1.235(2)
C8 O2 1.293(2)
O2 H2 0.89(4)
loop_
_geom_hbond_atom_site_label_D
_geom_hbond_atom_site_label_H
_geom_hbond_atom_site_label_A
_geom_hbond_distance_DH
_geom_hbond_distance_HA
_geom_hbond_distance_DA
_geom_hbond_angle_DHA
_geom_hbond_site_symmetry_A
O2 H2 O1 0.89(4) 1.78(4) 2.665(2) 173(4) 2_675
C7 H7A O2 0.99 2.50 3.481(3) 170 2_765
loop_
_geom_torsion_atom_site_label_1
_geom_torsion_atom_site_label_2
_geom_torsion_atom_site_label_3
_geom_torsion_atom_site_label_4
_geom_torsion
F2 C1 C2 F5 62.13(19)
F1 C1 C2 F5 -176.40(15)
F3 C1 C2 F5 -57.3(2)
F2 C1 C2 F4 179.10(15)
F1 C1 C2 F4 -59.4(2)
F3 C1 C2 F4 59.6(2)
F2 C1 C2 C3 -59.3(2)
F1 C1 C2 C3 62.2(2)
F3 C1 C2 C3 -178.77(15)
F5 C2 C3 F7 -62.08(18)
F4 C2 C3 F7 178.81(14)
C1 C2 C3 F7 58.3(2)
F5 C2 C3 F6 -179.68(14)
F4 C2 C3 F6 61.22(18)
C1 C2 C3 F6 -59.3(2)
F5 C2 C3 C4 59.2(2)
F4 C2 C3 C4 -59.9(2)
C1 C2 C3 C4 179.55(14)
F7 C3 C4 F8 178.53(13)
F6 C3 C4 F8 -63.02(18)
C2 C3 C4 F8 57.4(2)
F7 C3 C4 F9 60.40(18)
F6 C3 C4 F9 178.86(13)
C2 C3 C4 F9 -60.8(2)
F7 C3 C4 C5 -60.0(2)
F6 C3 C4 C5 58.5(2)
C2 C3 C4 C5 178.85(14)
F8 C4 C5 F10 64.50(18)
F9 C4 C5 F10 -177.19(13)
C3 C4 C5 F10 -56.6(2)
F8 C4 C5 F11 -177.84(13)
F9 C4 C5 F11 -59.54(18)
C3 C4 C5 F11 61.0(2)
F8 C4 C5 C6 -56.5(2)
F9 C4 C5 C6 61.8(2)
C3 C4 C5 C6 -177.67(14)
F10 C5 C6 F12 -66.91(17)
F11 C5 C6 F12 176.77(14)
C4 C5 C6 F12 54.8(2)
F10 C5 C6 F13 177.43(13)
F11 C5 C6 F13 61.10(17)
C4 C5 C6 F13 -60.8(2)
F10 C5 C6 C7 55.7(2)
F11 C5 C6 C7 -60.67(19)
C4 C5 C6 C7 177.40(15)
F12 C6 C7 C8 -51.9(2)
F13 C6 C7 C8 67.3(2)
C5 C6 C7 C8 -172.64(15)
C6 C7 C8 O1 -6.9(3)
C6 C7 C8 O2 173.10(16)
