#------------------------------------------------------------------------------
#$Date: 2015-08-05 20:10:24 +0300 (Wed, 05 Aug 2015) $
#$Revision: 152785 $
#$URL: svn://www.crystallography.net/cod/cif/4/51/31/4513194.cif $
#------------------------------------------------------------------------------
#
# This file is available in the Crystallography Open Database (COD),
# http://www.crystallography.net/
#
# All data on this site have been placed in the public domain by the
# contributors.
#
data_4513194
loop_
_publ_author_name
'Watkins-Curry, Pilanda'
'Burnett, Joseph Vade'
'Samanta, Tapas'
'Young, David P.'
'Stadler, Shane'
'Chan, Julia Y.'
_publ_section_title
;
 Strategic Crystal Growth and Physical Properties of Single-Crystalline
 LnCo2Al8(Ln = La--Nd, Sm, Yb)
;
_journal_issue                   7
_journal_name_full               'Crystal Growth &amp; Design'
_journal_page_first              3293
_journal_paper_doi               10.1021/acs.cgd.5b00417
_journal_volume                  15
_journal_year                    2015
_chemical_formula_moiety         'Al8 Ce Co2'
_chemical_formula_sum            'Al8 Ce Co2'
_chemical_formula_weight         473.82
_space_group_crystal_system      orthorhombic
_space_group_IT_number           55
_space_group_name_Hall           '-P 2 2ab'
_space_group_name_H-M_alt        'P b a m'
_symmetry_space_group_name_Hall  '-P 2 2ab'
_symmetry_space_group_name_H-M   'P b a m'
_audit_creation_method           SHELXL-2014/7
_audit_update_record
;
2015-03-19 # Formatted by publCIF
;
_cell_angle_alpha                90
_cell_angle_beta                 90
_cell_angle_gamma                90
_cell_formula_units_Z            4
_cell_length_a                   12.47200(10)
_cell_length_b                   14.38700(15)
_cell_length_c                   4.0220(3)
_cell_measurement_temperature    298(2)
_cell_volume                     721.69(5)
_computing_cell_refinement       'Bruker SAINT'
_computing_data_collection       'Bruker APEX2'
_computing_data_reduction        'Bruker SAINT'
_computing_molecular_graphics    CrystalMaker
_computing_publication_material  'publCIF (Westrip, 2014)'
_computing_structure_refinement  'SHELXL-2014/7 (Sheldrick, 2014)'
_computing_structure_solution    'SHELXS Direct Methods (Sheldrick, 2013)'
_diffrn_ambient_temperature      298(2)
_diffrn_measured_fraction_theta_full 0.997
_diffrn_measured_fraction_theta_max 0.996
_diffrn_measurement_device_type  'Bruker Kappa D8 Quest CMOS'
_diffrn_measurement_method       '\f and \w scans'
_diffrn_radiation_type           MoK\a
_diffrn_radiation_wavelength     0.71073
_diffrn_reflns_av_R_equivalents  0.0243
_diffrn_reflns_av_unetI/netI     0.0289
_diffrn_reflns_laue_measured_fraction_full 0.997
_diffrn_reflns_laue_measured_fraction_max 0.996
_diffrn_reflns_limit_h_max       17
_diffrn_reflns_limit_h_min       -17
_diffrn_reflns_limit_k_max       20
_diffrn_reflns_limit_k_min       -20
_diffrn_reflns_limit_l_max       5
_diffrn_reflns_limit_l_min       -5
_diffrn_reflns_number            2190
_diffrn_reflns_point_group_measured_fraction_full 0.997
_diffrn_reflns_point_group_measured_fraction_max 0.996
_diffrn_reflns_theta_full        25.242
_diffrn_reflns_theta_max         31.011
_diffrn_reflns_theta_min         3.267
_diffrn_source                   'I\mS microfocus tube'
_exptl_absorpt_coefficient_mu    11.613
_exptl_absorpt_correction_T_max  0.794
_exptl_absorpt_correction_T_min  0.667
_exptl_absorpt_correction_type   multi-scan
_exptl_absorpt_process_details   SADABS(2014)
_exptl_crystal_colour            silver
_exptl_crystal_density_diffrn    4.361
_exptl_crystal_density_method    'not measured'
_exptl_crystal_description       Fragment
_exptl_crystal_F_000             864
_exptl_crystal_size_max          0.030
_exptl_crystal_size_mid          0.020
_exptl_crystal_size_min          0.020
_refine_diff_density_max         1.221
_refine_diff_density_min         -2.013
_refine_diff_density_rms         0.254
_refine_ls_extinction_coef       0.0048(2)
_refine_ls_extinction_expression Fc^*^=kFc[1+0.001xFc^2^\l^3^/sin(2\q)]^-1/4^
_refine_ls_extinction_method     'SHELXL-2014/7 (Sheldrick 2014'
_refine_ls_goodness_of_fit_ref   0.989
_refine_ls_hydrogen_treatment    undef
_refine_ls_matrix_type           full
_refine_ls_number_parameters     70
_refine_ls_number_reflns         1296
_refine_ls_number_restraints     0
_refine_ls_restrained_S_all      0.989
_refine_ls_R_factor_all          0.0314
_refine_ls_R_factor_gt           0.0255
_refine_ls_shift/su_max          0.000
_refine_ls_shift/su_mean         0.000
_refine_ls_structure_factor_coef Fsqd
_refine_ls_weighting_details
'w=1/[\s^2^(Fo^2^)+(0.0242P)^2^+3.6267P] where P=(Fo^2^+2Fc^2^)/3'
_refine_ls_weighting_scheme      calc
_refine_ls_wR_factor_gt          0.0560
_refine_ls_wR_factor_ref         0.0592
_reflns_Friedel_coverage         0.000
_reflns_number_gt                1141
_reflns_number_total             1296
_reflns_threshold_expression     'I > 2\s(I)'
_cod_data_source_file            cg5b00417_si_001.cif
_cod_data_source_block           shelx
_cod_depositor_comments
'Adding full bibliography for 4513193--4513198.cif.'
_cod_database_code               4513194
_shelx_shelxl_version_number     2014/7
_shelx_space_group_comment
;
The symmetry employed for this shelxl refinement is uniquely defined
by the following loop, which should always be used as a source of
symmetry information in preference to the above space-group names.
They are only intended as comments.
;
_shelx_estimated_absorpt_t_min   0.722
_shelx_estimated_absorpt_t_max   0.801
_shelx_res_file
;

    shelx.res created by SHELXL-2014/7


TITL pm026
CELL 0.71073  12.4720  14.3870   4.0220  90.0000  90.0000  90.0000
ZERR    4  0.00010  0.00015  0.00025  0.0000  0.0000  0.0000
LATT  1
SYMM - X, - Y, + Z
SYMM 1/2 + X, 1/2 - Y, - Z
SYMM 1/2 - X, 1/2 + Y, - Z
SFAC Ce Co Al
DISP Ce  -0.24860   2.63310
DISP Co   0.34940   0.97210
DISP Al   0.06450   0.05140
UNIT     4    8   32
LIST 4
ACTA
OMIT 0 2 0
BOND $H
TEMP  25
SIZE 0.02 0.02 0.03
FMAP 2
PLAN -20
L.S.  14
WGHT    0.024200    3.626700
EXTI    0.004788
FVAR       0.18979
CE1   1    0.340381    0.318394   10.000000    10.50000    0.00831    0.01133 =
         0.00592    0.00000    0.00000   -0.00099
CO1   2    0.034879    0.405618   10.000000    10.50000    0.00826    0.00695 =
         0.00604    0.00000    0.00000    0.00065
CO2   2    0.151657    0.096479   10.000000    10.50000    0.00653    0.00572 =
         0.00514    0.00000    0.00000   -0.00008
AL1   3    0.025581    0.131798   10.500000    10.50000    0.00813    0.00853 =
         0.00617    0.00000    0.00000    0.00052
AL2   3    0.159530    0.379247   10.500000    10.50000    0.00681    0.00871 =
         0.00751    0.00000    0.00000    0.00046
AL3   3    0.236240    0.172487   10.500000    10.50000    0.00675    0.00971 =
         0.00710    0.00000    0.00000   -0.00167
AL4   3    0.331399    0.491396   10.500000    10.50000    0.00962    0.00734 =
         0.00750    0.00000    0.00000   -0.00179
AL5   3    0.452854    0.179473   10.500000    10.50000    0.00587    0.00789 =
         0.00768    0.00000    0.00000    0.00062
AL6   3    0.095847    0.252758   10.000000    10.50000    0.00950    0.00636 =
         0.00802    0.00000    0.00000    0.00059
AL7   3    0.339931    0.044517   10.000000    10.50000    0.00725    0.01291 =
         0.00916    0.00000    0.00000    0.00233
AL8   3   10.000000   10.500000   10.500000    10.25000    0.01102    0.00598 =
         0.00638    0.00000    0.00000    0.00081
AL9   3   10.000000   10.000000   10.000000    10.25000    0.00804    0.00817 =
         0.00905    0.00000    0.00000   -0.00065
HKLF 4

REM  pm026
REM R1 =  0.0255 for    1141 Fo > 4sig(Fo)  and  0.0314 for all    1296 data
REM     70 parameters refined using      0 restraints

END

WGHT      0.0269      1.2002

REM Highest difference peak  1.221,  deepest hole -2.013,  1-sigma level  0.254
Q1    1   0.4755  0.1772  0.0000  10.50000  0.05    1.22
Q2    1   0.3380  0.3539 -0.2306  11.00000  0.05    1.09
Q3    1   0.2978  0.3188 -0.1352  11.00000  0.05    1.01
Q4    1   0.3394  0.5514  0.2327  11.00000  0.05    0.96
Q5    1   0.4798  0.4569  0.0000  10.50000  0.05    0.93
Q6    1   0.4182  0.3110 -0.1407  11.00000  0.05    0.92
Q7    1   0.2346  0.4595 -0.5000  10.50000  0.05    0.85
Q8    1   0.3531  0.2739 -0.2216  11.00000  0.05    0.83
Q9    1   0.4615  0.1763  0.2061  11.00000  0.05    0.79
Q10   1   0.3378  0.2826 -0.5000  10.50000  0.05    0.76
Q11   1   0.1638  0.1237  0.2597  11.00000  0.05    0.75
Q12   1   0.3789  0.4210 -0.5000  10.50000  0.05    0.74
Q13   1   0.3587  0.1951 -0.5000  10.50000  0.05    0.73
Q14   1   0.3566  0.3401 -0.5000  10.50000  0.05    0.73
Q15   1   0.0267  0.4563 -0.2564  11.00000  0.05    0.72
Q16   1   0.2848  0.4272 -0.5000  10.50000  0.05    0.71
Q17   1   0.3602  0.2370  0.3874  11.00000  0.05    0.70
Q18   1   0.4556  0.4459 -0.5000  10.50000  0.05    0.70
Q19   1   0.2834  0.4004  0.0000  10.50000  0.05    0.69
Q20   1   0.0579  0.4253 -0.5000  10.50000  0.05    0.68
;
_shelx_res_checksum              99694
_shelx_hkl_file
;
 -17  -6  -1   42.64    7.05   1
 -17  -5  -1   11.49    3.19   1
 -17  -4  -1  273.24   22.15   1
 -17  -3  -1   10.50    3.11   1
 -17  -2  -1   24.21    5.22   1
 -16  -9  -1   18.06    4.93   1
 -16  -8  -1  193.21   18.90   1
 -16  -7  -1    9.80    3.32   1
 -16  -6  -2    3.88    3.31   1
 -16  -6  -1   -0.79    2.30   1
 -16  -5  -2    3.61    2.62   1
 -16  -5  -1    8.29    3.57   1
 -16  -4  -1   10.30    2.89   1
 -16  -3  -1    1.90    2.29   1
 -16  -2  -2   35.05    4.14   1
 -16  -2  -1   40.07    3.42   1
 -16  -1  -2   22.66    4.09   1
 -16  -1  -1   16.16    2.09   1
 -15 -11  -1    9.80    4.07   1
 -15 -10  -1    6.92    3.21   1
 -15  -9  -2   69.89   10.03   1
 -15  -9  -1   97.81   10.09   1
 -15  -8  -2   53.29    7.45   1
 -15  -8  -1   44.22    5.99   1
 -15  -7  -2   21.16    3.77   1
 -15  -7  -1    2.59    3.99   1
 -15  -6  -2   54.02    6.47   1
 -15  -6  -1   28.73    5.04   1
 -15  -5  -2  269.94   19.72   1
 -15  -5  -1   48.86    5.59   1
 -15  -4  -2  288.32   14.60   1
 -15  -4  -1  159.01    8.07   1
 -15  -3  -2  116.42    9.50   1
 -15  -3  -1  231.65    9.13   1
 -15  -2  -2    3.10    1.58   1
 -15  -2  -1    7.29    1.30   1
 -15  -1  -2    5.81    2.80   1
 -15  -1  -1   51.70    3.45   1
 -14 -12  -1    1.69    2.99   1
 -14 -11  -2    1.30    2.69   1
 -14 -11  -1   -4.00    3.20   1
 -14 -10  -2    4.80    4.69   1
 -14 -10  -1   -2.89    3.98   1
 -14  -9  -2   55.65    6.86   1
 -14  -9  -1   66.26    7.00   1
 -14  -8  -2   -1.39    3.40   1
 -14  -8  -1   -1.69    2.29   1
 -14  -7  -2  477.86   30.60   1
 -14  -7  -1  664.09   28.35   1
 -14  -6  -2    2.99    2.80   1
 -14  -6  -1   72.93    5.98   1
 -14  -5  -2    4.41    1.60   1
 -14  -5  -1  279.22   11.36   1
 -14  -4  -2    3.88    1.62   1
 -14  -4  -1    0.10    1.11   1
 -14  -3  -2   56.25    3.45   1
 -14  -3  -1    9.99    1.52   1
 -14  -2  -3    3.20    3.11   1
 -14  -2  -2    6.20    1.29   1
 -14  -2  -1   -0.71    0.71   1
 -14  -1  -3  269.29   18.71   1
 -14  -1  -2    7.18    1.61   1
 -14  -1  -1  412.09   10.96   1
 -13 -14  -1    1.21    3.10   1
 -13 -13  -1   24.50    4.85   1
 -13 -12  -2   85.38   10.16   1
 -13 -12  -1   13.18    2.11   1
 -13 -11  -2  888.04   53.64   1
 -13 -11  -1  479.17   21.45   1
 -13 -10  -2   40.45    5.72   1
 -13 -10  -1   41.99    3.63   1
 -13  -9  -2   33.76    5.00   1
 -13  -9  -1   79.74    4.29   1
 -13  -8  -2    7.18    2.79   1
 -13  -8  -1    1.69    1.40   1
 -13  -7  -2   73.27    6.68   1
 -13  -7  -1   12.39    1.48   1
 -13  -6  -2    9.42    3.01   1
 -13  -6  -1    4.00    0.68   1
 -13  -5  -3   15.52    2.84   1
 -13  -5  -2   49.00    3.22   1
 -13  -5  -1   35.05    1.66   1
 -13  -4  -3   48.16    5.27   1
 -13  -4  -2   48.02    3.05   1
 -13  -4  -1   63.04    2.54   1
 -13  -3  -3  206.21   13.21   1
 -13  -3  -2  431.39   14.12   1
 -13  -3  -1  283.59    6.40   1
 -13  -2  -4   36.97    6.44   1
 -13  -2  -3   79.39    7.48   1
 -13  -2  -2   59.75    4.64   1
 -13  -2  -1   91.01    3.05   1
 -13  -1  -4  129.50   13.88   1
 -13  -1  -3  264.39   15.61   1
 -13  -1  -2  225.90    8.72   1
 -13  -1  -1  376.36    8.15   1
 -12 -15  -1   89.49    6.05   1
 -12 -14  -1  218.15   11.23   1
 -12 -13  -2    4.28    3.19   1
 -12 -13  -1   43.56    3.56   1
 -12 -12  -2   50.41    6.11   1
 -12 -12  -1    7.40    2.12   1
 -12 -11  -2    6.60    3.29   1
 -12 -11  -1   17.72    2.44   1
 -12 -10  -2   18.06    4.34   1
 -12 -10  -1    9.99    1.77   1
 -12  -9  -2    3.69    2.61   1
 -12  -9  -1   10.18    1.60   1
 -12  -8  -2   15.37    3.53   1
 -12  -8  -1  394.42   10.72   1
 -12  -7  -3   98.60    8.34   1
 -12  -7  -2   75.69    4.35   1
 -12  -7  -1  149.33    5.38   1
 -12  -6  -4  240.87   17.38   1
 -12  -6  -3  124.99   10.51   1
 -12  -6  -2  306.60    9.81   1
 -12  -6  -1  173.71    3.95   1
 -12  -5  -4    1.99    2.68   1
 -12  -5  -3    3.20    1.90   1
 -12  -5  -2    4.08    1.29   1
 -12  -5  -1    0.59    0.29   1
 -12  -4  -4   17.98    4.16   1
 -12  -4  -3   -1.30    2.39   1
 -12  -4  -2   60.68    3.43   1
 -12  -4  -1    4.71    0.52   1
 -12  -3  -4   19.36    4.49   1
 -12  -3  -3   51.55    4.45   1
 -12  -3  -2   43.43    2.50   1
 -12  -3  -1   74.65    2.25   1
 -12  -2  -4   11.90    3.38   1
 -12  -2  -3  178.49   11.22   1
 -12  -2  -2   10.18    0.89   1
 -12  -2  -1  275.56    5.64   1
 -12  -1  -4   66.42    6.68   1
 -12  -1  -3   84.09    4.03   1
 -12  -1  -2   87.80    2.81   1
 -12  -1  -1  114.49    2.78   1
 -11 -16  -1   30.47    3.20   1
 -11 -15  -1   -0.79    1.58   1
 -11 -14  -2  156.00   14.74   1
 -11 -14  -1   37.45    2.82   1
 -11 -13  -2    3.31    3.02   1
 -11 -13  -1    7.02    1.59   1
 -11 -12  -2   43.43    3.82   1
 -11 -12  -1   51.27    2.86   1
 -11 -11  -2   30.36    2.64   1
 -11 -11  -1    4.08    1.29   1
 -11 -10  -2   21.34    1.85   1
 -11 -10  -1  551.78   14.56   1
 -11  -9  -3   -2.19    1.51   1
 -11  -9  -2    1.21    0.81   1
 -11  -9  -1    1.49    0.49   1
 -11  -8  -4  125.44   12.77   1
 -11  -8  -3  165.89   11.08   1
 -11  -8  -2  187.42    6.57   1
 -11  -8  -1  218.15    6.50   1
 -11  -7  -4    2.59    2.61   1
 -11  -7  -3   -0.10    1.62   1
 -11  -7  -2    1.30    1.30   1
 -11  -7  -1    5.20    0.41   1
 -11  -6  -4   29.05    4.85   1
 -11  -6  -3  256.64   14.42   1
 -11  -6  -2   32.38    2.05   1
 -11  -6  -1  369.41    6.92   1
 -11  -5  -4    2.19    2.49   1
 -11  -5  -3    6.50    2.60   1
 -11  -5  -2    3.10    0.99   1
 -11  -5  -1    3.20    0.39   1
 -11  -4  -4  510.76   33.45   1
 -11  -4  -3  867.89   34.76   1
 -11  -4  -2  741.47   13.07   1
 -11  -4  -1 1308.27   20.26   1
 -11  -3  -4    4.49    2.88   1
 -11  -3  -3    0.79    1.00   1
 -11  -3  -2    1.59    0.40   1
 -11  -3  -1    0.71    0.50   1
 -11  -2  -4   31.47    4.94   1
 -11  -2  -3   10.18    1.28   1
 -11  -2  -2   43.69    1.59   1
 -11  -2  -1   29.27    1.08   1
 -11  -1  -4    5.29    1.52   1
 -11  -1  -3    5.29    1.38   1
 -11  -1  -2    9.67    0.81   1
 -11  -1  -1   12.53    0.57   1
 -10 -16  -1   31.58    3.15   1
 -10 -15  -2   11.09    4.99   1
 -10 -15  -1   69.56    3.84   1
 -10 -14  -2  400.40   29.21   1
 -10 -14  -1  129.73    5.70   1
 -10 -13  -2  103.43    6.31   1
 -10 -13  -1   78.32    4.07   1
 -10 -12  -2   37.21    3.05   1
 -10 -12  -1   25.70    1.93   1
 -10 -11  -3    1.90    2.70   1
 -10 -11  -2    2.89    0.88   1
 -10 -11  -1    3.80    1.21   1
 -10 -10  -3  187.69   13.43   1
 -10 -10  -2  256.00    7.36   1
 -10 -10  -1  263.74    6.17   1
 -10  -9  -4   54.61    7.09   1
 -10  -9  -3  152.28   11.11   1
 -10  -9  -2   68.72    2.65   1
 -10  -9  -1  233.78    4.89   1
 -10  -8  -4  267.98   19.97   1
 -10  -8  -3  243.05   10.91   1
 -10  -8  -2  470.89   11.72   1
 -10  -8  -1  355.32    7.16   1
 -10  -7  -4   75.52    8.34   1
 -10  -7  -3   25.81    3.56   1
 -10  -7  -2  141.61    6.19   1
 -10  -7  -1   38.19    1.36   1
 -10  -6  -4   28.94    4.09   1
 -10  -6  -3    0.90    0.70   1
 -10  -6  -2   63.36    3.34   1
 -10  -6  -1    4.49    0.51   1
 -10  -5  -4   25.70    4.66   1
 -10  -5  -3    3.39    0.88   1
 -10  -5  -2   48.44    1.25   1
 -10  -5  -1    2.31    0.40   1
 -10  -4  -3   90.25    4.18   1
 -10  -4  -2  472.19    8.69   1
 -10  -4  -1  153.26    3.47   1
 -10  -3  -4   16.40    2.27   1
 -10  -3  -3    9.18    1.09   1
 -10  -3  -2   39.56    1.26   1
 -10  -3  -1   22.28    1.42   1
 -10  -2  -4   23.81    2.54   1
 -10  -2  -3    1.90    0.80   1
 -10  -2  -2   40.83    1.41   1
 -10  -2  -1   12.11    0.63   1
 -10  -1  -4  184.14    9.50   1
 -10  -1  -3   81.72    3.80   1
 -10  -1  -2  311.17    6.35   1
 -10  -1  -1  127.92    2.49   1
  -9 -17  -1  135.96    6.53   1
  -9 -16  -2   -4.08    3.39   1
  -9 -16  -1    0.40    1.50   1
  -9 -15  -2    0.20    2.92   1
  -9 -15  -1   73.44    4.11   1
  -9 -14  -2    3.80    2.69   1
  -9 -14  -1   -0.79    1.19   1
  -9 -13  -2    3.20    1.22   1
  -9 -13  -1  282.58    9.41   1
  -9 -12  -3   45.16    5.64   1
  -9 -12  -2   45.02    2.55   1
  -9 -12  -1   54.61    2.22   1
  -9 -11  -4  183.33   18.41   1
  -9 -11  -3  231.34   15.51   1
  -9 -11  -2  379.86   10.52   1
  -9 -11  -1  324.72    7.21   1
  -9 -10  -4   23.23    4.34   1
  -9 -10  -3   89.87    6.45   1
  -9 -10  -2   35.05    1.89   1
  -9 -10  -1  109.20    2.93   1
  -9  -9  -4    7.62    3.48   1
  -9  -9  -3  172.92   11.31   1
  -9  -9  -2    4.28    0.99   1
  -9  -9  -1  250.91    4.75   1
  -9  -8  -4    2.59    2.61   1
  -9  -8  -3   13.40    1.46   1
  -9  -8  -2   16.00    1.60   1
  -9  -8  -1   20.16    0.99   1
  -9  -7  -4   -0.50    2.31   1
  -9  -7  -3   33.76    2.21   1
  -9  -7  -2    3.10    0.21   1
  -9  -7  -1   48.86    1.54   1
  -9  -6  -4   13.69    3.77   1
  -9  -6  -3    4.41    0.88   1
  -9  -6  -2   11.22    0.60   1
  -9  -6  -1    6.10    0.59   1
  -9  -5  -4  157.50    8.03   1
  -9  -5  -3   46.24    2.31   1
  -9  -5  -2  245.55    4.70   1
  -9  -5  -1   52.56    1.45   1
  -9  -4  -4    3.88    1.50   1
  -9  -4  -3  156.00    5.00   1
  -9  -4  -2    9.49    0.62   1
  -9  -4  -1  227.41    4.83   1
  -9  -3  -4   72.42    4.60   1
  -9  -3  -3 1263.80   26.31   1
  -9  -3  -2   95.84    2.55   1
  -9  -3  -1 2001.67   31.32   1
  -9  -2  -5   44.22    4.79   1
  -9  -2  -4    0.10    1.41   1
  -9  -2  -3  145.68    4.83   1
  -9  -2  -2   -0.10    0.51   1
  -9  -2  -1  226.80    4.52   1
  -9  -1  -5   13.62    2.73   1
  -9  -1  -4   17.72    2.11   1
  -9  -1  -3   21.72    1.49   1
  -9  -1  -2   23.43    1.06   1
  -9  -1  -1   30.36    0.88   1
  -8 -18  -1   -1.99    1.61   1
  -8 -17  -1  252.17   11.43   1
  -8 -16  -1    1.00    1.50   1
  -8 -15  -2  438.06   31.40   1
  -8 -15  -1  694.32   21.08   1
  -8 -14  -3    3.80    2.42   1
  -8 -14  -2   17.47    2.42   1
  -8 -14  -1    6.60    0.98   1
  -8 -13  -3   50.27    6.10   1
  -8 -13  -2   89.11    4.91   1
  -8 -13  -1   86.68    3.17   1
  -8 -12  -4   -1.00    2.80   1
  -8 -12  -3   -0.90    2.51   1
  -8 -12  -2    5.20    1.09   1
  -8 -12  -1   -0.79    0.69   1
  -8 -11  -4   57.15    6.96   1
  -8 -11  -3   12.18    2.58   1
  -8 -11  -2  131.10    3.89   1
  -8 -11  -1   18.49    1.03   1
  -8 -10  -4   -1.69    2.70   1
  -8 -10  -3    9.49    2.71   1
  -8 -10  -2    0.79    0.50   1
  -8 -10  -1   12.67    0.78   1
  -8  -9  -4    3.39    2.61   1
  -8  -9  -3   61.47    3.61   1
  -8  -9  -2    6.40    0.51   1
  -8  -9  -1  138.30    3.06   1
  -8  -8  -4   19.89    4.01   1
  -8  -8  -3   22.18    1.88   1
  -8  -8  -2   50.69    1.85   1
  -8  -8  -1   32.15    1.36   1
  -8  -7  -4 1185.42   42.00   1
  -8  -7  -3  419.84   12.70   1
  -8  -7  -2 2183.69   33.65   1
  -8  -7  -1  649.74   11.22   1
  -8  -6  -4    0.10    1.72   1
  -8  -6  -3    5.11    0.90   1
  -8  -6  -2    1.99    0.39   1
  -8  -6  -1    8.53    0.58   1
  -8  -5  -5   58.52    7.19   1
  -8  -5  -4   14.06    2.17   1
  -8  -5  -3   81.72    3.25   1
  -8  -5  -2   10.50    0.71   1
  -8  -5  -1  104.24    2.86   1
  -8  -4  -5    5.38    2.00   1
  -8  -4  -4   -0.71    1.41   1
  -8  -4  -3   12.18    1.33   1
  -8  -4  -2    1.49    0.49   1
  -8  -4  -1   20.98    0.92   1
  -8  -3  -5  135.49    9.78   1
  -8  -3  -4  581.29   19.29   1
  -8  -3  -3  313.64    8.15   1
  -8  -3  -2 1105.56   17.95   1
  -8  -3  -1  499.52    7.60   1
  -8  -2  -5    2.19    1.89   1
  -8  -2  -4    6.00    1.62   1
  -8  -2  -3   12.89    1.36   1
  -8  -2  -2   11.97    0.83   1
  -8  -2  -1   22.28    0.76   1
  -8  -1  -5   97.81    6.92   1
  -8  -1  -4  132.71    5.99   1
  -8  -1  -3  208.80    5.78   1
  -8  -1  -2  228.01    5.13   1
  -8  -1  -1  309.76    4.93   1
  -7 -18  -1   20.16    2.51   1
  -7 -17  -1   73.44    4.28   1
  -7 -16  -2   14.36    3.79   1
  -7 -16  -1    5.90    1.12   1
  -7 -15  -3   29.48    5.00   1
  -7 -15  -2   18.49    3.10   1
  -7 -15  -1   31.58    2.14   1
  -7 -14  -3    0.10    3.03   1
  -7 -14  -2   27.25    2.92   1
  -7 -14  -1    2.99    0.80   1
  -7 -13  -3   26.11    2.56   1
  -7 -13  -2   17.98    1.61   1
  -7 -13  -1   25.60    1.32   1
  -7 -12  -4  155.50   14.47   1
  -7 -12  -3  123.21    5.55   1
  -7 -12  -2  295.50    7.91   1
  -7 -12  -1  168.22    3.11   1
  -7 -11  -4  322.56   22.99   1
  -7 -11  -3  489.29   13.27   1
  -7 -11  -2  530.84   11.06   1
  -7 -11  -1  694.85   10.02   1
  -7 -10  -4  135.02    9.99   1
  -7 -10  -3  217.86    7.08   1
  -7 -10  -2  203.92    4.57   1
  -7 -10  -1  323.28    5.03   1
  -7  -9  -4    6.40    2.02   1
  -7  -9  -3    1.21    0.70   1
  -7  -9  -2    2.89    0.51   1
  -7  -9  -1    4.88    0.31   1
  -7  -8  -4    6.40    2.28   1
  -7  -8  -3    6.40    0.81   1
  -7  -8  -2    5.20    0.41   1
  -7  -8  -1   15.92    0.80   1
  -7  -7  -5    0.50    2.91   1
  -7  -7  -4   12.39    2.11   1
  -7  -7  -3    3.20    0.61   1
  -7  -7  -2   19.71    0.89   1
  -7  -7  -1    6.00    0.59   1
  -7  -6  -5    1.99    2.09   1
  -7  -6  -4   10.37    2.00   1
  -7  -6  -3    3.80    0.90   1
  -7  -6  -2   13.32    0.73   1
  -7  -6  -1    2.31    0.49   1
  -7  -5  -5   22.66    3.14   1
  -7  -5  -4   42.38    3.12   1
  -7  -5  -3   36.24    2.05   1
  -7  -5  -2   82.81    2.18   1
  -7  -5  -1   43.03    1.31   1
  -7  -4  -5   77.62    6.17   1
  -7  -4  -4   81.54    4.51   1
  -7  -4  -3  223.50    6.28   1
  -7  -4  -2  142.56    3.34   1
  -7  -4  -1  320.05    5.37   1
  -7  -3  -5  159.26    9.84   1
  -7  -3  -4  197.68    8.72   1
  -7  -3  -3  333.79    8.40   1
  -7  -3  -2  377.14    6.99   1
  -7  -3  -1  496.84    6.69   1
  -7  -2  -5  108.99    7.52   1
  -7  -2  -4  153.51    7.19   1
  -7  -2  -3  239.63    6.50   1
  -7  -2  -2  273.24    5.62   1
  -7  -2  -1  382.20    5.86   1
  -7  -1  -5   97.42    7.11   1
  -7  -1  -4  105.47    5.34   1
  -7  -1  -3  192.38    5.27   1
  -7  -1  -2  177.96    3.74   1
  -7  -1  -1  359.48    5.31   1
  -6 -19  -1    0.50    1.51   1
  -6 -18  -1    0.10    1.92   1
  -6 -17  -2   -2.59    2.00   1
  -6 -17  -1   -1.21    1.10   1
  -6 -16  -3    1.00    1.50   1
  -6 -16  -2   79.74    5.18   1
  -6 -16  -1   10.69    1.50   1
  -6 -15  -3    6.40    2.18   1
  -6 -15  -2    2.59    1.51   1
  -6 -15  -1   11.29    1.21   1
  -6 -14  -3  421.07   17.65   1
  -6 -14  -2  119.90    4.82   1
  -6 -14  -1  632.52   12.07   1
  -6 -13  -4    1.59    2.70   1
  -6 -13  -3   44.22    2.66   1
  -6 -13  -2    1.39    0.90   1
  -6 -13  -1   69.39    1.83   1
  -6 -12  -4   15.60    3.79   1
  -6 -12  -3  101.61    4.44   1
  -6 -12  -2   20.61    1.18   1
  -6 -12  -1  150.31    2.94   1
  -6 -11  -4    1.21    1.61   1
  -6 -11  -3    6.30    1.20   1
  -6 -11  -2    1.90    0.61   1
  -6 -11  -1    6.71    0.52   1
  -6 -10  -4  330.88   16.37   1
  -6 -10  -3  140.19    4.74   1
  -6 -10  -2  621.01    8.47   1
  -6 -10  -1  211.99    3.49   1
  -6  -9  -4   12.67    2.21   1
  -6  -9  -3  134.10    4.17   1
  -6  -9  -2   21.90    0.84   1
  -6  -9  -1  213.74    3.51   1
  -6  -8  -5  443.10   24.42   1
  -6  -8  -4   48.16    3.75   1
  -6  -8  -3 1130.30   19.50   1
  -6  -8  -2   58.22    1.53   1
  -6  -8  -1 1813.06   20.44   1
  -6  -7  -5   19.98    3.13   1
  -6  -7  -4    4.20    1.68   1
  -6  -7  -3   57.15    1.97   1
  -6  -7  -2    7.29    0.49   1
  -6  -7  -1   90.82    1.52   1
  -6  -6  -5   46.92    5.07   1
  -6  -6  -4  160.28    7.09   1
  -6  -6  -3  139.00    3.77   1
  -6  -6  -2  307.30    5.61   1
  -6  -6  -1  208.51    2.89   1
  -6  -5  -5    0.71    2.40   1
  -6  -5  -4   11.09    2.13   1
  -6  -5  -3    1.80    0.51   1
  -6  -5  -2   22.66    0.86   1
  -6  -5  -1    3.39    0.18   1
  -6  -4  -5   61.15    5.16   1
  -6  -4  -4   60.84    3.74   1
  -6  -4  -3  147.62    3.64   1
  -6  -4  -2  129.05    2.95   1
  -6  -4  -1  255.68    3.52   1
  -6  -3  -5    2.59    2.29   1
  -6  -3  -4   22.66    1.52   1
  -6  -3  -3    7.90    0.51   1
  -6  -3  -2   72.76    2.05   1
  -6  -3  -1   19.18    0.70   1
  -6  -2  -5   60.06    4.80   1
  -6  -2  -4   24.50    1.39   1
  -6  -2  -3  102.41    3.04   1
  -6  -2  -2  110.46    2.73   1
  -6  -2  -1  157.00    2.51   1
  -6  -1  -5   20.98    3.21   1
  -6  -1  -4   29.27    2.81   1
  -6  -1  -3   38.19    1.85   1
  -6  -1  -2   48.72    1.54   1
  -6  -1  -1   65.12    1.61   1
  -5 -19  -1    2.31    1.49   1
  -5 -18  -2  917.48   38.17   1
  -5 -18  -1  284.26   10.12   1
  -5 -17  -2   45.43    3.77   1
  -5 -17  -1   64.96    2.58   1
  -5 -16  -3    0.20    1.51   1
  -5 -16  -2   30.03    2.30   1
  -5 -16  -1    2.69    0.89   1
  -5 -15  -3    2.69    1.51   1
  -5 -15  -2    9.67    1.62   1
  -5 -15  -1    2.99    0.69   1
  -5 -14  -4  115.56   13.55   1
  -5 -14  -3  116.86    5.41   1
  -5 -14  -2  229.83    8.49   1
  -5 -14  -1  175.56    3.71   1
  -5 -13  -4    0.40    2.99   1
  -5 -13  -3    1.30    1.09   1
  -5 -13  -2    0.50    0.60   1
  -5 -13  -1    0.59    0.40   1
  -5 -12  -4   60.06    4.96   1
  -5 -12  -3   -0.50    0.70   1
  -5 -12  -2  108.58    2.71   1
  -5 -12  -1    3.31    0.51   1
  -5 -11  -4    7.62    2.10   1
  -5 -11  -3   25.10    1.80   1
  -5 -11  -2   11.97    0.69   1
  -5 -11  -1   40.96    1.15   1
  -5 -10  -4  119.25    6.33   1
  -5 -10  -3  193.21    5.56   1
  -5 -10  -2  185.23    4.08   1
  -5 -10  -1  265.36    3.91   1
  -5  -9  -5    2.10    2.20   1
  -5  -9  -4    9.00    1.20   1
  -5  -9  -3    0.71    0.71   1
  -5  -9  -2   18.49    0.86   1
  -5  -9  -1    2.99    0.42   1
  -5  -8  -5   99.60    7.98   1
  -5  -8  -4  377.14   11.65   1
  -5  -8  -3  187.69    4.93   1
  -5  -8  -2  816.82   16.00   1
  -5  -8  -1  301.72    3.82   1
  -5  -7  -5    0.20    2.11   1
  -5  -7  -4   16.32    1.54   1
  -5  -7  -3    1.21    0.70   1
  -5  -7  -2   39.94    1.26   1
  -5  -7  -1    1.59    0.30   1
  -5  -6  -5  160.28    9.62   1
  -5  -6  -4  112.78    4.04   1
  -5  -6  -3  317.91    7.85   1
  -5  -6  -2  186.60    3.55   1
  -5  -6  -1  504.00    6.29   1
  -5  -5  -5   53.44    4.82   1
  -5  -5  -4   84.46    4.41   1
  -5  -5  -3  119.90    3.50   1
  -5  -5  -2  187.42    4.11   1
  -5  -5  -1  208.22    2.89   1
  -5  -4  -5  357.59   19.67   1
  -5  -4  -4 1341.76   33.70   1
  -5  -4  -3  859.08   19.93   1
  -5  -4  -2 2513.02   33.09   1
  -5  -4  -1 1525.68   17.19   1
  -5  -3  -5    1.49    1.90   1
  -5  -3  -4   46.92    3.42   1
  -5  -3  -3    3.88    0.99   1
  -5  -3  -2   79.03    1.78   1
  -5  -3  -1    5.29    0.32   1
  -5  -2  -5   61.47    5.33   1
  -5  -2  -4  103.43    5.09   1
  -5  -2  -3  319.34    6.79   1
  -5  -2  -2  175.03    2.91   1
  -5  -2  -1  673.92   10.38   1
  -5  -1  -5   -1.49    1.78   1
  -5  -1  -4    6.00    1.62   1
  -5  -1  -3    2.79    0.90   1
  -5  -1  -2    9.18    0.73   1
  -5  -1  -1    6.50    0.31   1
  -4 -20  -1    7.18    2.68   1
  -4 -19  -2    4.00    2.00   1
  -4 -19  -1    2.31    1.40   1
  -4 -18  -2   11.09    2.20   1
  -4 -18  -1    4.71    1.00   1
  -4 -17  -3    5.81    2.31   1
  -4 -17  -2   52.85    3.49   1
  -4 -17  -1   13.62    1.18   1
  -4 -16  -3   61.78    4.87   1
  -4 -16  -2   33.99    2.45   1
  -4 -16  -1   94.67    2.92   1
  -4 -15  -3  338.93   12.15   1
  -4 -15  -2   55.50    2.83   1
  -4 -15  -1  528.54    9.66   1
  -4 -14  -4  125.44   12.99   1
  -4 -14  -3  243.98    8.43   1
  -4 -14  -2  266.67    6.21   1
  -4 -14  -1  381.42    5.86   1
  -4 -13  -4   54.17    3.83   1
  -4 -13  -3  174.77    5.82   1
  -4 -13  -2   99.80    2.60   1
  -4 -13  -1  292.07    4.44   1
  -4 -12  -4    2.10    1.51   1
  -4 -12  -3   49.56    2.68   1
  -4 -12  -2    1.21    0.59   1
  -4 -12  -1   75.69    1.57   1
  -4 -11  -4   -0.30    1.31   1
  -4 -11  -3   13.99    1.42   1
  -4 -11  -2    3.39    0.52   1
  -4 -11  -1   26.83    0.83   1
  -4 -10  -4    4.71    1.22   1
  -4 -10  -3    2.79    0.90   1
  -4 -10  -2    2.10    0.49   1
  -4 -10  -1    6.92    0.42   1
  -4  -9  -5   70.73    6.56   1
  -4  -9  -4   14.06    1.73   1
  -4  -9  -3  177.96    5.07   1
  -4  -9  -2   16.00    0.96   1
  -4  -9  -1  268.63    3.28   1
  -4  -8  -5  108.16    8.32   1
  -4  -8  -4   67.90    3.46   1
  -4  -8  -3  230.74    6.08   1
  -4  -8  -2  110.88    2.32   1
  -4  -8  -1  389.27    4.74   1
  -4  -7  -5  136.89    9.13   1
  -4  -7  -4  117.07    6.06   1
  -4  -7  -3  319.69    7.15   1
  -4  -7  -2  225.00    4.50   1
  -4  -7  -1  510.76    5.42   1
  -4  -6  -5   71.57    5.58   1
  -4  -6  -4    1.80    1.50   1
  -4  -6  -3  154.75    5.97   1
  -4  -6  -2    7.40    0.60   1
  -4  -6  -1  245.24    3.76   1
  -4  -5  -5   26.21    3.28   1
  -4  -5  -4    0.59    1.89   1
  -4  -5  -3   45.70    2.43   1
  -4  -5  -2    5.52    0.61   1
  -4  -5  -1   84.46    1.65   1
  -4  -4  -5    5.90    2.19   1
  -4  -4  -4    0.90    1.50   1
  -4  -4  -3    7.90    1.57   1
  -4  -4  -2    2.89    0.51   1
  -4  -4  -1   23.72    0.49   1
  -4  -3  -5   12.89    2.73   1
  -4  -3  -4    8.58    1.82   1
  -4  -3  -3   22.37    1.70   1
  -4  -3  -2   13.99    0.90   1
  -4  -3  -1   41.60    0.77   1
  -4  -2  -5  112.57    7.21   1
  -4  -2  -4   57.46    3.64   1
  -4  -2  -3  266.34    5.88   1
  -4  -2  -2  121.66    3.09   1
  -4  -2  -1  504.45    6.74   1
  -4  -1  -5  315.42   14.92   1
  -4  -1  -4  183.87    6.78   1
  -4  -1  -3  680.69   13.05   1
  -4  -1  -2  364.81    6.88   1
  -4  -1  -1 1327.14   17.49   1
  -3 -20  -1   27.14    3.13   1
  -3 -19  -2   28.84    3.65   1
  -3 -19  -1  187.14    7.39   1
  -3 -18  -2   -1.69    1.90   1
  -3 -18  -1    3.88    1.10   1
  -3 -17  -3   -0.71    1.61   1
  -3 -17  -2   25.40    2.32   1
  -3 -17  -1   -0.20    0.91   1
  -3 -16  -3    1.90    1.79   1
  -3 -16  -2    8.88    1.37   1
  -3 -16  -1    1.30    0.71   1
  -3 -15  -3  111.72    5.50   1
  -3 -15  -2  230.43    6.68   1
  -3 -15  -1  176.09    3.72   1
  -3 -14  -4   11.22    2.21   1
  -3 -14  -3    0.10    0.91   1
  -3 -14  -2   28.20    1.59   1
  -3 -14  -1    0.40    0.40   1
  -3 -13  -4    7.62    1.88   1
  -3 -13  -3  224.70    7.79   1
  -3 -13  -2   10.69    0.92   1
  -3 -13  -1  344.10    5.57   1
  -3 -12  -4    6.50    1.58   1
  -3 -12  -3   10.82    1.51   1
  -3 -12  -2   11.70    0.89   1
  -3 -12  -1   14.52    0.61   1
  -3 -11  -4 1268.07   35.61   1
  -3 -11  -3  446.90   12.26   1
  -3 -11  -2 2473.07   35.81   1
  -3 -11  -1  631.52    8.04   1
  -3 -10  -5   -1.90    2.40   1
  -3 -10  -4   15.13    1.71   1
  -3 -10  -3    2.40    0.99   1
  -3 -10  -2   29.05    1.19   1
  -3 -10  -1    1.90    0.41   1
  -3  -9  -5   -0.30    3.11   1
  -3  -9  -4   23.43    2.71   1
  -3  -9  -3    1.39    0.71   1
  -3  -9  -2   25.30    1.11   1
  -3  -9  -1    1.21    0.31   1
  -3  -8  -5    0.40    2.49   1
  -3  -8  -4    2.31    1.79   1
  -3  -8  -3   10.50    1.43   1
  -3  -8  -2    8.53    0.70   1
  -3  -8  -1   28.62    0.75   1
  -3  -7  -5   53.14    4.81   1
  -3  -7  -4   74.13    4.48   1
  -3  -7  -3  130.42    4.34   1
  -3  -7  -2  164.10    3.33   1
  -3  -7  -1  253.76    3.19   1
  -3  -6  -5    3.31    2.22   1
  -3  -6  -4    2.31    1.92   1
  -3  -6  -3    0.40    1.30   1
  -3  -6  -2    2.59    0.71   1
  -3  -6  -1    0.10    0.30   1
  -3  -5  -5   64.32    5.29   1
  -3  -5  -4  142.80    6.69   1
  -3  -5  -3  250.91    7.29   1
  -3  -5  -2  236.85    5.85   1
  -3  -5  -1  578.88    7.22   1
  -3  -4  -5    2.69    1.80   1
  -3  -4  -4    1.69    1.51   1
  -3  -4  -3    2.19    1.18   1
  -3  -4  -2    4.49    0.81   1
  -3  -4  -1    2.19    0.30   1
  -3  -3  -5  719.31   26.82   1
  -3  -3  -4  373.65   12.37   1
  -3  -3  -3 1525.68   25.00   1
  -3  -3  -2  729.54   12.42   1
  -3  -3  -1 2901.98   37.71   1
  -3  -2  -5   13.32    2.77   1
  -3  -2  -4   12.18    1.88   1
  -3  -2  -3   39.82    1.77   1
  -3  -2  -2   35.28    1.54   1
  -3  -2  -1   78.85    1.42   1
  -3  -1  -5  126.11    7.41   1
  -3  -1  -4  295.50    9.97   1
  -3  -1  -3  250.27    5.70   1
  -3  -1  -2  645.16   10.67   1
  -3  -1  -1  540.56    8.37   1
  -2 -20  -1   36.48    2.90   1
  -2 -19  -2  104.45    6.34   1
  -2 -19  -1  124.99    5.37   1
  -2 -18  -2    9.80    1.88   1
  -2 -18  -1    6.20    1.29   1
  -2 -17  -3   43.03    3.54   1
  -2 -17  -2   82.81    4.37   1
  -2 -17  -1   68.23    2.48   1
  -2 -16  -3   68.23    3.96   1
  -2 -16  -2    9.99    1.39   1
  -2 -16  -1  106.09    3.09   1
  -2 -15  -4   66.75    8.82   1
  -2 -15  -3  338.56   11.78   1
  -2 -15  -2  205.06    5.73   1
  -2 -15  -1  496.84    8.47   1
  -2 -14  -4   40.96    3.46   1
  -2 -14  -3   14.36    1.36   1
  -2 -14  -2   95.45    3.32   1
  -2 -14  -1   20.43    1.08   1
  -2 -13  -4    6.60    1.80   1
  -2 -13  -3   44.36    2.26   1
  -2 -13  -2    7.67    1.11   1
  -2 -13  -1   96.24    2.16   1
  -2 -12  -4   -1.10    1.41   1
  -2 -12  -3   39.82    2.52   1
  -2 -12  -2    2.59    0.61   1
  -2 -12  -1   75.17    1.73   1
  -2 -11  -4    5.29    2.58   1
  -2 -11  -3    0.00    1.00   1
  -2 -11  -2    3.80    0.59   1
  -2 -11  -1    2.79    0.40   1
  -2 -10  -5    0.40    2.89   1
  -2 -10  -4    1.21    1.72   1
  -2 -10  -3    8.12    1.60   1
  -2 -10  -2   11.63    0.89   1
  -2 -10  -1   20.43    0.72   1
  -2  -9  -5    6.50    2.60   1
  -2  -9  -4   56.10    4.04   1
  -2  -9  -3   16.81    1.80   1
  -2  -9  -2  102.62    2.23   1
  -2  -9  -1   15.37    0.63   1
  -2  -8  -5   55.65    5.37   1
  -2  -8  -4  133.40    6.70   1
  -2  -8  -3  108.58    3.96   1
  -2  -8  -2  302.41    5.22   1
  -2  -8  -1  206.21    2.87   1
  -2  -7  -5  449.02   21.61   1
  -2  -7  -4 1194.39   31.80   1
  -2  -7  -3  914.46   19.96   1
  -2  -7  -2 2646.07   34.98   1
  -2  -7  -1 1694.15   16.46   1
  -2  -6  -5   79.39    5.52   1
  -2  -6  -4   95.84    4.89   1
  -2  -6  -3  157.25    5.77   1
  -2  -6  -2  208.80    4.91   1
  -2  -6  -1  315.42    3.91   1
  -2  -5  -5  142.09    8.58   1
  -2  -5  -4   73.27    4.11   1
  -2  -5  -3  271.92    8.24   1
  -2  -5  -2  131.79    3.44   1
  -2  -5  -1  560.27    6.63   1
  -2  -4  -5    2.69    1.90   1
  -2  -4  -4    3.20    1.79   1
  -2  -4  -3    4.49    1.02   1
  -2  -4  -2    2.31    0.70   1
  -2  -4  -1    6.60    0.41   1
  -2  -3  -5   36.97    3.65   1
  -2  -3  -4  177.96    7.47   1
  -2  -3  -3   75.52    2.78   1
  -2  -3  -2  419.02    8.19   1
  -2  -3  -1  173.98    3.43   1
  -2  -2  -5   36.12    3.85   1
  -2  -2  -4   34.22    2.57   1
  -2  -2  -3   76.74    2.98   1
  -2  -2  -2   84.82    2.39   1
  -2  -2  -1  157.75    3.27   1
  -2  -1  -5   71.57    5.08   1
  -2  -1  -4   42.64    3.13   1
  -2  -1  -3  116.64    3.24   1
  -2  -1  -2   60.22    1.86   1
  -2  -1  -1  207.65    4.03   1
  -1 -20  -1   63.04    3.81   1
  -1 -19  -2   26.42    2.98   1
  -1 -19  -1   18.40    1.72   1
  -1 -18  -2  351.94   13.51   1
  -1 -18  -1  286.96    8.13   1
  -1 -17  -3  134.79    7.20   1
  -1 -17  -2   30.03    1.97   1
  -1 -17  -1  211.41    5.82   1
  -1 -16  -3   40.58    3.06   1
  -1 -16  -2    1.59    1.18   1
  -1 -16  -1   79.03    2.67   1
  -1 -15  -4   16.73    3.19   1
  -1 -15  -3   -0.71    1.01   1
  -1 -15  -2   35.05    1.89   1
  -1 -15  -1    3.39    0.81   1
  -1 -14  -4   19.89    2.59   1
  -1 -14  -3   11.83    1.51   1
  -1 -14  -2   47.75    2.07   1
  -1 -14  -1   15.13    0.93   1
  -1 -13  -4    7.90    2.02   1
  -1 -13  -3   43.43    2.24   1
  -1 -13  -2    8.70    1.12   1
  -1 -13  -1   58.83    1.53   1
  -1 -12  -4   67.57    5.43   1
  -1 -12  -3   86.86    4.47   1
  -1 -12  -2  131.10    3.21   1
  -1 -12  -1  105.47    2.05   1
  -1 -11  -4   18.66    2.68   1
  -1 -11  -3  275.56    9.96   1
  -1 -11  -2   29.70    1.31   1
  -1 -11  -1  442.26    5.89   1
  -1 -10  -5  219.93   13.94   1
  -1 -10  -4   25.91    3.36   1
  -1 -10  -3  506.25   14.85   1
  -1 -10  -2   44.22    1.46   1
  -1 -10  -1  892.81   10.76   1
  -1  -9  -5   18.32    3.34   1
  -1  -9  -4   13.32    2.34   1
  -1  -9  -3   58.68    3.37   1
  -1  -9  -2   15.76    1.03   1
  -1  -9  -1   95.65    1.56   1
  -1  -8  -5   49.00    4.62   1
  -1  -8  -4   23.91    2.74   1
  -1  -8  -3  105.88    4.53   1
  -1  -8  -2   36.84    1.21   1
  -1  -8  -1  198.81    2.82   1
  -1  -7  -5    2.59    2.90   1
  -1  -7  -4   27.35    2.62   1
  -1  -7  -3    1.59    0.81   1
  -1  -7  -2   66.59    1.80   1
  -1  -7  -1    7.40    0.38   1
  -1  -6  -5   84.82    5.53   1
  -1  -6  -4   34.69    2.71   1
  -1  -6  -3  150.31    5.39   1
  -1  -6  -2   63.84    1.60   1
  -1  -6  -1  315.06    4.26   1
  -1  -5  -5  164.61    9.24   1
  -1  -5  -4   86.49    4.84   1
  -1  -5  -3  366.34    9.19   1
  -1  -5  -2  209.67    4.63   1
  -1  -5  -1  775.62   10.03   1
  -1  -4  -5  484.44   29.49   1
  -1  -4  -4  281.90   10.41   1
  -1  -4  -3 1133.67   21.55   1
  -1  -4  -2  581.77   10.13   1
  -1  -4  -1 2286.75   33.47   1
  -1  -3  -5   74.82    5.36   1
  -1  -3  -4   67.73    3.95   1
  -1  -3  -3  153.51    3.72   1
  -1  -3  -2  125.66    3.59   1
  -1  -3  -1  358.34    7.19   1
  -1  -2  -5   41.86    3.62   1
  -1  -2  -4   33.06    2.64   1
  -1  -2  -3   79.57    2.68   1
  -1  -2  -2   54.32    1.77   1
  -1  -2  -1  145.20    2.89   1
  -1  -1  -5    2.10    2.00   1
  -1  -1  -4    1.21    1.41   1
  -1  -1  -3    7.18    1.07   1
  -1  -1  -2    2.40    0.81   1
  -1  -1  -1   12.39    0.77   1
   0   0   1 1711.48   46.33   1
   0   0   2 6274.22  123.57   1
   0   0   3  936.36   23.87   1
   0   0   4 3945.10  124.36   1
   0   0   5  482.68   29.00   1
   0   2   0    0.20    0.20   1
   0   2   1  117.29    2.60   1
   0   2   2   35.64    1.91   1
   0   2   3   57.46    2.73   1
   0   2   4   26.32    2.57   1
   0   2   5   37.21    3.66   1
   0   4   0  598.29    7.83   1
   0   4   1   68.23    1.32   1
   0   4   2  354.57    7.53   1
   0   4   3   30.03    1.64   1
   0   4   4  143.76    6.23   1
   0   4   5   22.56    3.23   1
   0   6   0  324.72    5.05   1
   0   6   1  578.40    7.70   1
   0   6   2  249.64    5.06   1
   0   6   3  260.82    6.46   1
   0   6   4  126.11    6.06   1
   0   6   5   58.98    4.76   1
   0   8   0  107.12    2.28   1
   0   8   1  816.82   10.86   1
   0   8   2   85.38    2.03   1
   0   8   3  464.83   12.50   1
   0   8   4   68.06    4.12   1
   0   8   5  247.12   13.83   1
   0  10   0  994.77   16.40   1
   0  10   1  311.52    4.24   1
   0  10   2  760.66   12.69   1
   0  10   3  192.38    7.21   1
   0  10   4  368.26   16.12   1
   0  10   5  101.40    8.86   1
   0  12   0  813.39   14.83   1
   0  12   1  385.34    5.89   1
   0  12   2  648.21   12.73   1
   0  12   3  228.61    9.37   1
   0  12   4  349.32   17.19   1
   0  14   0 1104.23   23.93   1
   0  14   1  888.64   14.90   1
   0  14   2  905.41   18.05   1
   0  14   3  577.44   15.38   1
   0  14   4  459.67   15.01   1
   0  16   0  230.74    7.59   1
   0  16   1   62.25    2.52   1
   0  16   2  183.33    5.69   1
   0  16   3   28.94    2.26   1
   0  18   0   -0.50    1.41   1
   0  18   1   82.99    3.64   1
   0  18   2    1.30    1.50   1
   0  20   0   -1.80    1.90   1
   0  20   1   98.41    5.16   1
   1   1   1   11.42    0.61   1
   1   1   2    2.79    0.70   1
   1   1   3    6.71    0.98   1
   1   1   4    1.39    1.49   1
   1   1   5    4.00    2.00   1
   1   2   0   75.34    1.04   1
   1   2   1  152.77    2.97   1
   1   2   2   61.62    2.04   1
   1   2   3   77.44    2.99   1
   1   2   4   30.91    2.45   1
   1   2   5   43.03    3.54   1
   1   3   0  189.89    2.20   1
   1   3   1  338.56    4.78   1
   1   3   2  126.79    3.15   1
   1   3   3  168.74    4.42   1
   1   3   4   67.08    4.26   1
   1   3   5   72.59    5.45   1
   1   4   0  924.77    8.51   1
   1   4   1 2280.06   27.69   1
   1   4   2  615.04    9.92   1
   1   4   3 1132.32   20.86   1
   1   4   4  268.63    9.51   1
   1   4   5  493.73   20.44   1
   1   5   0  338.93    3.68   1
   1   5   1  799.19   11.87   1
   1   5   2  227.71    3.62   1
   1   5   3  390.46    8.30   1
   1   5   4  100.40    5.41   1
   1   5   5  163.33    9.20   1
   1   6   0   86.68    1.12   1
   1   6   1  313.29    5.66   1
   1   6   2   64.32    1.60   1
   1   6   3  177.16    4.26   1
   1   6   4   32.95    3.10   1
   1   6   5   73.96    5.68   1
   1   7   0   98.21    1.39   1
   1   7   1    6.71    0.52   1
   1   7   2   69.72    1.84   1
   1   7   3    1.99    0.79   1
   1   7   4   21.72    2.61   1
   1   7   5   -0.30    2.51   1
   1   8   0   49.84    0.85   1
   1   8   1  200.51    3.12   1
   1   8   2   35.28    1.31   1
   1   8   3  108.58    3.96   1
   1   8   4   19.18    2.28   1
   1   8   5   45.56    4.59   1
   1   9   0   21.72    0.56   1
   1   9   1   95.06    1.95   1
   1   9   2   19.71    1.24   1
   1   9   3   52.42    2.90   1
   1   9   4   14.06    2.92   1
   1   9   5   29.59    3.81   1
   1  10   0   47.75    0.97   1
   1  10   1  889.23   11.33   1
   1  10   2   43.43    1.58   1
   1  10   3  544.76   15.40   1
   1  10   4   34.81    3.66   1
   1  10   5  224.10   14.37   1
   1  11   0   33.76    0.93   1
   1  11   1  441.42    6.72   1
   1  11   2   29.59    1.63   1
   1  11   3  275.23    9.95   1
   1  11   4   18.49    2.84   1
   1  12   0  159.26    2.78   1
   1  12   1  107.12    2.48   1
   1  12   2  131.10    4.35   1
   1  12   3   87.61    6.36   1
   1  12   4   71.74    5.42   1
   1  13   0    8.18    0.80   1
   1  13   1   55.06    1.78   1
   1  13   2    9.30    1.22   1
   1  13   3   32.95    2.53   1
   1  13   4    6.10    2.32   1
   1  14   0   58.83    1.84   1
   1  14   1   14.29    1.59   1
   1  14   2   44.36    2.13   1
   1  14   3   11.42    1.62   1
   1  14   4   20.88    2.92   1
   1  15   0   50.84    1.71   1
   1  15   1    0.50    0.81   1
   1  15   2   33.18    1.84   1
   1  15   3    1.90    1.30   1
   1  15   4   10.50    1.88   1
   1  16   0    2.79    0.80   1
   1  16   1   79.92    3.04   1
   1  16   2    0.40    1.20   1
   1  16   3   43.82    3.05   1
   1  17   0   36.24    1.69   1
   1  17   1  218.45    7.39   1
   1  17   2   27.88    2.64   1
   1  17   3  134.56    6.26   1
   1  18   0  390.06   10.27   1
   1  18   1  288.66    8.49   1
   1  18   2  326.89   11.21   1
   1  19   0   33.87    2.10   1
   1  19   1   19.01    1.92   1
   1  19   2   30.25    2.97   1
   1  20   0   10.82    1.78   1
   1  20   1   60.53    4.36   1
   2   0   0    1.99    0.20   1
   2   0   1   23.62    0.78   1
   2   0   2   -0.30    0.61   1
   2   0   3   13.69    1.18   1
   2   0   4    4.71    1.82   1
   2   0   5    8.70    2.48   1
   2   1   0   68.23    1.49   1
   2   1   1  206.50    3.74   1
   2   1   2   62.73    1.90   1
   2   1   3  113.21    3.40   1
   2   1   4   37.45    2.94   1
   2   1   5   76.56    4.73   1
   2   2   0  156.25    2.25   1
   2   2   1  157.00    3.01   1
   2   2   2   85.01    2.21   1
   2   2   3   70.56    2.52   1
   2   2   4   44.09    3.05   1
   2   2   5   31.02    3.34   1
   2   3   0  737.67    7.60   1
   2   3   1  180.10    2.95   1
   2   3   2  442.26    7.99   1
   2   3   3   75.34    2.78   1
   2   3   4  140.90    8.31   1
   2   3   5   36.48    3.74   1
   2   4   0    4.71    0.30   1
   2   4   1    6.40    0.51   1
   2   4   2    2.50    0.51   1
   2   4   3    3.88    0.91   1
   2   4   4    1.00    1.50   1
   2   4   5    6.00    2.50   1
   2   5   0  202.21    2.28   1
   2   5   1  583.22    8.21   1
   2   5   2  146.17    2.66   1
   2   5   3  305.55    5.94   1
   2   5   4   76.91    3.51   1
   2   5   5  148.60    8.53   1
   2   6   0  310.46    3.52   1
   2   6   1  319.34    5.36   1
   2   6   2  213.74    4.09   1
   2   6   3  175.83    4.51   1
   2   6   4  109.83    6.08   1
   2   6   5   70.73    5.38   1
   2   7   0 3567.67   32.25   1
   2   7   1 1752.26   21.77   1
   2   7   2 2720.67   36.51   1
   2   7   3  995.40   22.08   1
   2   7   4 1290.96   35.93   1
   2   7   5  363.66   18.69   1
   2   8   0  400.00    4.40   1
   2   8   1  204.78    3.72   1
   2   8   2  296.87    5.17   1
   2   8   3  113.42    4.26   1
   2   8   4  141.13    7.13   1
   2   8   5   40.83    4.47   1
   2   9   0  120.34    1.76   1
   2   9   1   17.64    0.84   1
   2   9   2  101.61    2.62   1
   2   9   3   12.60    1.49   1
   2   9   4   57.91    4.57   1
   2   9   5    8.70    3.01   1
   2  10   0   17.72    0.59   1
   2  10   1   19.27    0.88   1
   2  10   2   10.50    0.97   1
   2  10   3   10.63    1.89   1
   2  10   4    7.08    2.07   1
   2  10   5    1.69    2.39   1
   2  11   0    4.71    0.52   1
   2  11   1    2.10    0.61   1
   2  11   2    6.00    1.18   1
   2  11   3    2.89    2.38   1
   2  11   4    4.88    2.61   1
   2  12   0    4.88    0.49   1
   2  12   1   74.48    2.07   1
   2  12   2    3.80    1.09   1
   2  12   3   38.94    3.24   1
   2  12   4    1.69    2.18   1
   2  13   0    7.62    0.72   1
   2  13   1   98.41    2.78   1
   2  13   2    6.20    1.10   1
   2  13   3   40.07    2.91   1
   2  13   4    8.41    3.07   1
   2  14   0  117.51    2.60   1
   2  14   1   23.33    1.74   1
   2  14   2   96.43    3.54   1
   2  14   3   12.89    1.79   1
   2  14   4   40.83    3.45   1
   2  15   0  244.61    5.63   1
   2  15   1  489.29   12.39   1
   2  15   2  202.21    5.97   1
   2  15   3  345.22   11.89   1
   2  15   4  106.71   12.19   1
   2  16   0   11.70    1.23   1
   2  16   1  103.02    3.65   1
   2  16   2   12.67    1.50   1
   2  16   3   65.61    3.73   1
   2  17   0  103.63    3.46   1
   2  17   1   65.12    3.07   1
   2  17   2   95.65    4.11   1
   2  17   3   44.36    3.33   1
   2  18   0   16.16    1.61   1
   2  18   1    6.10    1.58   1
   2  18   2   11.70    1.78   1
   2  19   0  139.95    5.44   1
   2  19   1  132.02    6.43   1
   2  19   2   99.20    6.37   1
   2  20   0   53.00    3.35   1
   2  20   1   38.32    4.46   1
   3   1   0 1107.56   13.98   1
   3   1   1  536.39    8.34   1
   3   1   2  655.87   10.76   1
   3   1   3  261.15    6.14   1
   3   1   4  302.76   10.09   1
   3   1   5  119.46    7.00   1
   3   2   0   62.25    1.10   1
   3   2   1   80.46    1.44   1
   3   2   2   38.07    1.23   1
   3   2   3   37.82    1.72   1
   3   2   4   14.29    2.12   1
   3   2   5   13.40    2.71   1
   3   3   0 1162.13   12.95   1
   3   3   1 2978.98   41.48   1
   3   3   2  742.02   10.90   1
   3   3   3 1599.20   23.99   1
   3   3   4  379.08   12.07   1
   3   3   5  720.39   27.38   1
   3   4   0    5.38    0.19   1
   3   4   1    2.40    0.50   1
   3   4   2    4.08    0.48   1
   3   4   3    1.80    0.59   1
   3   4   4    3.39    1.10   1
   3   4   5    0.79    1.99   1
   3   5   0  332.33    4.01   1
   3   5   1  602.70   10.31   1
   3   5   2  255.04    4.47   1
   3   5   3  258.57    6.11   1
   3   5   4  137.59    5.16   1
   3   5   5   63.36    4.94   1
   3   6   0    2.69    0.20   1
   3   6   1    0.79    0.61   1
   3   6   2    2.59    0.61   1
   3   6   3    0.40    0.89   1
   3   6   4    2.40    0.99   1
   3   6   5    2.19    2.40   1
   3   7   0  228.31    3.02   1
   3   7   1  262.44    4.86   1
   3   7   2  171.61    3.41   1
   3   7   3  135.72    4.66   1
   3   7   4   78.15    4.42   1
   3   7   5   51.84    5.04   1
   3   8   0   13.40    0.37   1
   3   8   1   28.41    1.07   1
   3   8   2    8.82    0.71   1
   3   8   3   14.21    1.51   1
   3   8   4    4.58    1.88   1
   3   8   5    4.00    2.40   1
   3   9   0   28.41    0.75   1
   3   9   1    1.30    0.59   1
   3   9   2   21.90    1.12   1
   3   9   3    2.99    1.11   1
   3   9   4   23.33    3.09   1
   3   9   5    1.49    2.29   1
   3  10   0   35.88    0.96   1
   3  10   1    2.31    0.61   1
   3  10   2   31.92    1.36   1
   3  10   3    0.71    1.31   1
   3  10   4   20.34    2.62   1
   3  10   5    0.79    3.38   1
   3  11   0 3179.83   37.22   1
   3  11   1  625.00   10.00   1
   3  11   2 2629.64   45.13   1
   3  11   3  440.16   13.01   1
   3  11   4 1222.90   38.47   1
   3  12   0   16.00    0.88   1
   3  12   1   12.82    0.93   1
   3  12   2   13.18    1.38   1
   3  12   3   10.50    2.20   1
   3  12   4    4.88    2.30   1
   3  13   0    8.18    0.80   1
   3  13   1  338.56    6.62   1
   3  13   2    9.61    1.49   1
   3  13   3  241.80    8.09   1
   3  13   4    8.53    3.21   1
   3  14   0   36.12    1.44   1
   3  14   1   -0.10    0.81   1
   3  14   2   28.52    1.92   1
   3  14   3   -1.59    1.39   1
   3  14   4   13.10    2.32   1
   3  15   0  279.56    5.68   1
   3  15   1  183.87    5.15   1
   3  15   2  235.93    7.07   1
   3  15   3  121.66    6.18   1
   3  16   0   10.37    1.29   1
   3  16   1   -0.71    1.21   1
   3  16   2   10.18    1.47   1
   3  16   3    1.69    1.51   1
   3  17   0   34.46    2.00   1
   3  17   1   -0.10    1.41   1
   3  17   2   25.40    2.72   1
   3  17   3   -0.40    1.59   1
   3  18   0    0.00    1.00   1
   3  18   1    5.11    1.58   1
   3  18   2    0.59    1.39   1
   3  19   0   40.20    2.66   1
   3  19   1  189.89    8.82   1
   3  19   2   30.80    2.66   1
   3  20   0    0.90    1.71   1
   3  20   1   26.32    2.98   1
   4   0   0  425.18    7.84   1
   4   0   1 1396.52   18.68   1
   4   0   2  274.90    5.31   1
   4   0   3  774.51   13.36   1
   4   0   4  134.79    6.04   1
   4   1   0  544.76    7.00   1
   4   1   1 1280.21   17.89   1
   4   1   2  367.87    6.14   1
   4   1   3  688.54   12.60   1
   4   1   4  171.87    7.08   1
   4   1   5  283.25   13.46   1
   4   2   0  170.04    2.61   1
   4   2   1  495.51    7.57   1
   4   2   2  118.81    2.40   1
   4   2   3  274.90    5.64   1
   4   2   4   64.00    3.20   1
   4   2   5  109.62    7.75   1
   4   3   0   19.80    0.53   1
   4   3   1   44.09    1.06   1
   4   3   2   14.29    0.68   1
   4   3   3   23.04    1.06   1
   4   3   4    9.42    1.47   1
   4   3   5    9.67    2.30   1
   4   4   0    3.31    0.22   1
   4   4   1   24.90    0.80   1
   4   4   2    1.69    0.49   1
   4   4   3   11.70    0.89   1
   4   4   4    2.10    1.31   1
   4   4   5    2.50    1.99   1
   4   5   0    9.99    0.32   1
   4   5   1   91.01    2.29   1
   4   5   2    4.80    0.48   1
   4   5   3   50.98    1.71   1
   4   5   4   -0.79    1.00   1
   4   5   5   33.41    3.70   1
   4   6   0    9.61    0.31   1
   4   6   1  260.82    4.85   1
   4   6   2    6.50    0.61   1
   4   6   3  146.89    4.12   1
   4   6   4    2.10    1.71   1
   4   6   5   67.24    5.90   1
   4   7   0  303.80    4.53   1
   4   7   1  535.92    8.33   1
   4   7   2  216.97    4.71   1
   4   7   3  324.36    7.92   1
   4   7   4  130.64    6.63   1
   4   7   5  143.76    9.59   1
   4   8   0  146.41    2.18   1
   4   8   1  385.73    7.46   1
   4   8   2  111.09    2.95   1
   4   8   3  257.60    7.38   1
   4   8   4   66.91    4.09   1
   4   8   5   97.42    7.50   1
   4   9   0   16.16    0.56   1
   4   9   1  280.23    6.03   1
   4   9   2   12.39    1.27   1
   4   9   3  188.79    6.60   1
   4   9   4   13.18    2.40   1
   4   9   5   72.42    6.47   1
   4  10   0    3.61    0.49   1
   4  10   1    5.71    0.72   1
   4  10   2    2.59    0.81   1
   4  10   3    2.31    1.61   1
   4  10   4    2.31    2.10   1
   4  11   0    5.02    0.58   1
   4  11   1   24.40    1.28   1
   4  11   2    2.50    0.79   1
   4  11   3   12.39    2.18   1
   4  11   4    5.29    2.39   1
   4  12   0    1.00    0.60   1
   4  12   1   70.56    2.52   1
   4  12   2    1.30    1.09   1
   4  12   3   50.69    2.85   1
   4  12   4    3.20    2.11   1
   4  13   0  119.68    2.84   1
   4  13   1  297.56    6.90   1
   4  13   2   99.80    3.80   1
   4  13   3  189.34    6.88   1
   4  13   4   49.00    4.76   1
   4  14   0  323.64    6.48   1
   4  14   1  370.56    9.62   1
   4  14   2  259.85    8.06   1
   4  14   3  257.60    9.95   1
   4  14   4  131.56    7.80   1
   4  15   0   62.73    2.06   1
   4  15   1  529.46   13.35   1
   4  15   2   57.76    2.74   1
   4  15   3  328.33   11.96   1
   4  16   0   38.44    2.11   1
   4  16   1   96.04    4.31   1
   4  16   2   38.44    2.23   1
   4  16   3   63.04    3.65   1
   4  17   0   72.59    3.24   1
   4  17   1    9.42    1.60   1
   4  17   2   61.00    3.44   1
   4  17   3   10.50    2.07   1
   4  18   0   13.47    1.61   1
   4  18   1    6.00    1.81   1
   4  18   2    6.71    1.71   1
   4  19   0    9.61    1.61   1
   4  19   1   -0.71    1.61   1
   4  19   2    4.00    1.60   1
   4  20   0    0.79    1.80   1
   4  20   1   13.03    3.03   1
   5   1   0   13.10    0.43   1
   5   1   1    5.29    0.41   1
   5   1   2   10.18    0.89   1
   5   1   3    2.50    0.51   1
   5   1   4    2.19    1.60   1
   5   1   5   -0.40    1.79   1
   5   2   0  215.50    3.23   1
   5   2   1  647.19    9.16   1
   5   2   2  173.71    3.69   1
   5   2   3  312.23    6.36   1
   5   2   4  113.00    5.32   1
   5   2   5   80.28    5.73   1
   5   3   0  110.25    2.31   1
   5   3   1    6.00    0.39   1
   5   3   2   84.82    2.03   1
   5   3   3    3.50    0.49   1
   5   3   4   40.20    3.04   1
   5   3   5    2.69    2.10   1
   5   4   0 3446.86   48.14   1
   5   4   1 1535.07   22.72   1
   5   4   2 2551.26   35.36   1
   5   4   3  859.08   18.76   1
   5   4   4 1283.79   36.55   1
   5   4   5  430.98   20.34   1
   5   5   0  273.90    3.31   1
   5   5   1  219.34    4.74   1
   5   5   2  210.54    4.64   1
   5   5   3  123.43    3.56   1
   5   5   4   85.93    5.01   1
   5   5   5   34.22    4.21   1
   5   6   0  258.24    3.86   1
   5   6   1  539.63    9.29   1
   5   6   2  192.65    4.16   1
   5   6   3  324.72    7.57   1
   5   6   4   98.80    7.55   1
   5   6   5  145.68    9.66   1
   5   7   0   59.14    1.23   1
   5   7   1    1.69    0.60   1
   5   7   2   41.34    1.54   1
   5   7   3    0.20    0.80   1
   5   7   4   20.88    2.92   1
   5   7   5   -1.59    2.29   1
   5   8   0 1086.36   15.16   1
   5   8   1  303.80    5.58   1
   5   8   2  796.37   16.93   1
   5   8   3  196.56    6.17   1
   5   8   4  375.20   21.31   1
   5   8   5   97.61    7.90   1
   5   9   0   24.60    0.79   1
   5   9   1    2.89    0.71   1
   5   9   2   16.81    1.39   1
   5   9   3    2.19    1.51   1
   5   9   4    9.49    2.22   1
   5   9   5    4.88    3.01   1
   5  10   0  238.08    4.01   1
   5  10   1  265.36    5.86   1
   5  10   2  194.60    5.02   1
   5  10   3  184.69    7.88   1
   5  10   4  117.72    6.73   1
   5  11   0   15.21    0.78   1
   5  11   1   40.83    2.04   1
   5  11   2   10.63    1.17   1
   5  11   3   30.36    2.76   1
   5  11   4    8.88    2.92   1
   5  12   0  134.79    3.25   1
   5  12   1    2.31    1.00   1
   5  12   2  118.16    4.13   1
   5  12   3    1.69    1.40   1
   5  12   4   58.06    5.33   1
   5  13   0    1.39    0.59   1
   5  13   1    1.00    0.80   1
   5  13   2    0.20    1.21   1
   5  13   3    0.71    1.71   1
   5  13   4    0.30    1.90   1
   5  14   0  278.56    6.34   1
   5  14   1  176.89    5.32   1
   5  14   2  236.54    7.69   1
   5  14   3  132.94    6.23   1
   5  14   4  130.87    7.78   1
   5  15   0   12.67    1.21   1
   5  15   1    4.20    1.19   1
   5  15   2    6.00    1.52   1
   5  15   3    1.30    1.60   1
   5  16   0   37.70    2.09   1
   5  16   1    1.21    1.50   1
   5  16   2   31.25    2.24   1
   5  16   3    2.19    1.98   1
   5  17   0   65.45    2.91   1
   5  17   1   67.57    3.95   1
   5  17   2   51.70    2.88   1
   5  18   0 1201.32   32.58   1
   5  18   1  281.57   11.75   1
   5  18   2  986.59   30.15   1
   5  19   0   31.02    3.34   1
   5  19   1    1.00    1.90   1
   5  20   0    4.49    1.91   1
   6   0   0 3390.73   55.90   1
   6   0   1 1190.94   17.25   1
   6   0   2 2396.10   33.29   1
   6   0   3  682.78   14.11   1
   6   0   4 1232.01   32.99   1
   6   0   5  384.16   18.03   1
   6   1   0   67.57    1.15   1
   6   1   1   65.29    1.13   1
   6   1   2   52.13    1.73   1
   6   1   3   37.45    1.96   1
   6   1   4   26.83    2.49   1
   6   1   5   15.68    2.77   1
   6   2   0  155.00    2.49   1
   6   2   1  158.00    2.51   1
   6   2   2  104.04    2.24   1
   6   2   3  114.49    4.07   1
   6   2   4   30.36    2.76   1
   6   2   5   55.35    4.91   1
   6   3   0  100.60    2.21   1
   6   3   1   19.10    0.61   1
   6   3   2   73.10    2.05   1
   6   3   3    8.82    1.19   1
   6   3   4   33.18    2.88   1
   6   3   5    6.40    3.19   1
   6   4   0  170.82    3.66   1
   6   4   1  261.15    4.52   1
   6   4   2  121.88    2.65   1
   6   4   3  143.28    5.27   1
   6   4   4   59.44    4.16   1
   6   4   5   64.16    4.97   1
   6   5   0   30.25    0.88   1
   6   5   1    3.69    0.38   1
   6   5   2   21.90    1.03   1
   6   5   3    0.71    1.11   1
   6   5   4    9.42    2.03   1
   6   5   5   -0.30    1.90   1
   6   6   0  372.49    5.79   1
   6   6   1  222.31    5.67   1
   6   6   2  291.38    6.15   1
   6   6   3  149.57    5.14   1
   6   6   4  146.89    7.51   1
   6   6   5   58.22    5.49   1
   6   7   0    7.90    0.39   1
   6   7   1   92.35    2.31   1
   6   7   2    6.00    1.08   1
   6   7   3   53.44    3.22   1
   6   7   4    4.00    1.80   1
   6   7   5   20.88    3.38   1
   6   8   0   61.62    1.41   1
   6   8   1 1790.98   25.39   1
   6   8   2   58.68    2.45   1
   6   8   3 1125.60   30.19   1
   6   8   4   48.72    3.91   1
   6   8   5  505.80   30.14   1
   6   9   0   30.03    0.88   1
   6   9   1  225.30    5.10   1
   6   9   2   20.34    1.26   1
   6   9   3  126.56    5.18   1
   6   9   4    8.88    2.62   1
   6  10   0  766.18   11.07   1
   6  10   1  194.32    5.30   1
   6  10   2  605.16   12.79   1
   6  10   3  135.02    6.04   1
   6  10   4  313.64   15.58   1
   6  11   0    3.31    0.51   1
   6  11   1    6.50    0.92   1
   6  11   2    0.79    1.00   1
   6  11   3    3.20    1.72   1
   6  11   4    4.20    2.09   1
   6  12   0   23.81    1.07   1
   6  12   1  149.82    5.14   1
   6  12   2   21.62    1.49   1
   6  12   3  101.61    4.84   1
   6  12   4   18.92    3.04   1
   6  13   0    0.50    0.60   1
   6  13   1   59.91    2.94   1
   6  13   2    2.59    1.29   1
   6  13   3   50.27    3.40   1
   6  13   4    0.20    2.21   1
   6  14   0  129.73    4.56   1
   6  14   1  623.50   14.98   1
   6  14   2  112.57    4.88   1
   6  14   3  428.08   16.14   1
   6  15   0    1.99    0.99   1
   6  15   1   13.69    1.78   1
   6  15   2   -0.50    1.31   1
   6  15   3    6.40    1.92   1
   6  16   0   99.20    3.78   1
   6  16   1    8.58    1.82   1
   6  16   2   87.80    4.31   1
   6  16   3    2.89    1.90   1
   6  17   0   -0.90    1.31   1
   6  17   1    1.21    1.50   1
   6  17   2   -1.49    1.49   1
   6  18   0    7.29    2.00   1
   6  18   1   -0.20    1.71   1
   6  18   2    3.80    1.60   1
   6  19   0    6.00    2.11   1
   6  19   1    1.49    1.78   1
   7   1   0  243.05    4.05   1
   7   1   1  350.81    4.87   1
   7   1   2  171.09    3.66   1
   7   1   3  196.28    5.60   1
   7   1   4   76.56    4.55   1
   7   1   5   90.82    6.86   1
   7   2   0  368.64    5.38   1
   7   2   1  377.91    5.05   1
   7   2   2  255.68    5.12   1
   7   2   3  222.01    6.56   1
   7   2   4  143.76    6.95   1
   7   2   5  111.30    7.39   1
   7   3   0  466.99    6.92   1
   7   3   1  510.76    7.68   1
   7   3   2  365.96    6.89   1
   7   3   3  312.94    8.49   1
   7   3   4  207.07    8.92   1
   7   3   5  144.00    8.88   1
   7   4   0  162.31    3.57   1
   7   4   1  323.64    4.68   1
   7   4   2  136.66    3.04   1
   7   4   3  194.60    5.86   1
   7   4   4   76.21    4.89   1
   7   4   5   91.97    6.71   1
   7   5   0   94.28    1.94   1
   7   5   1   42.25    1.04   1
   7   5   2   75.52    2.26   1
   7   5   3   34.81    2.12   1
   7   5   4   49.84    3.81   1
   7   5   5   19.71    3.20   1
   7   6   0   15.68    0.87   1
   7   6   1    1.49    0.39   1
   7   6   2   16.00    1.52   1
   7   6   3    1.10    1.01   1
   7   6   4    9.99    2.09   1
   7   6   5   -0.71    2.70   1
   7   7   0   25.60    1.21   1
   7   7   1    4.71    0.52   1
   7   7   2   18.32    1.37   1
   7   7   3    1.10    1.30   1
   7   7   4    9.00    2.28   1
   7   7   5    3.61    2.39   1
   7   8   0    8.88    0.42   1
   7   8   1   16.00    0.88   1
   7   8   2    6.50    1.12   1
   7   8   3    7.78    1.79   1
   7   8   4    0.79    2.19   1
   7   9   0    3.20    0.39   1
   7   9   1    4.88    0.88   1
   7   9   2    4.49    1.10   1
   7   9   3    2.40    1.61   1
   7   9   4    2.31    1.79   1
   7  10   0  259.53    5.16   1
   7  10   1  310.46    8.11   1
   7  10   2  206.78    5.46   1
   7  10   3  217.56    9.44   1
   7  10   4  127.92    8.14   1
   7  11   0  699.07   12.16   1
   7  11   1  653.31   16.87   1
   7  11   2  541.96   11.64   1
   7  11   3  457.53   14.97   1
   7  11   4  295.15   15.46   1
   7  12   0  364.43    6.49   1
   7  12   1  159.77    5.31   1
   7  12   2  302.76    9.05   1
   7  12   3  127.24    5.64   1
   7  12   4  151.54    8.12   1
   7  13   0   19.18    1.31   1
   7  13   1   25.81    2.34   1
   7  13   2   21.81    1.96   1
   7  13   3   22.28    2.36   1
   7  14   0   38.44    1.86   1
   7  14   1    3.69    1.31   1
   7  14   2   29.81    2.51   1
   7  14   3    4.00    1.72   1
   7  15   0   27.67    1.89   1
   7  15   1   37.09    2.68   1
   7  15   2   21.16    2.30   1
   7  15   3   25.40    2.92   1
   7  16   0   18.92    2.17   1
   7  16   1    4.20    1.60   1
   7  16   2   17.47    2.09   1
   7  17   0   14.82    2.08   1
   7  17   1   77.79    4.59   1
   7  17   2   10.63    2.09   1
   7  18   0   44.22    3.46   1
   7  18   1   25.81    3.66   1
   7  19   0   44.36    4.26   1
   8   0   0    2.69    0.39   1
   8   0   1    5.52    0.52   1
   8   0   2    2.69    0.59   1
   8   0   3    4.00    0.88   1
   8   0   4    3.80    1.91   1
   8   0   5    1.21    2.00   1
   8   1   0  296.18    4.47   1
   8   1   1  310.82    5.99   1
   8   1   2  227.10    4.52   1
   8   1   3  205.92    6.31   1
   8   1   4  124.32    6.02   1
   8   1   5  113.85    7.68   1
   8   2   0   16.16    0.48   1
   8   2   1   21.81    0.56   1
   8   2   2   11.29    0.81   1
   8   2   3    8.88    1.19   1
   8   2   4    4.58    1.71   1
   8   2   5    4.88    2.30   1
   8   3   0 1440.96   19.74   1
   8   3   1  508.95    7.67   1
   8   3   2 1118.90   17.39   1
   8   3   3  285.61    8.11   1
   8   3   4  544.29   25.66   1
   8   3   5  150.55   10.31   1
   8   4   0    1.39    0.40   1
   8   4   1   19.62    0.80   1
   8   4   2    1.30    0.50   1
   8   4   3   10.50    1.43   1
   8   4   4   -1.90    1.79   1
   8   4   5    2.40    2.20   1
   8   5   0    9.92    0.50   1
   8   5   1  107.12    2.07   1
   8   5   2   11.63    0.89   1
   8   5   3   80.28    3.23   1
   8   5   4   18.84    2.86   1
   8   5   5   41.47    4.77   1
   8   6   0    2.69    0.30   1
   8   6   1    7.08    0.48   1
   8   6   2    1.59    0.91   1
   8   6   3    6.30    1.10   1
   8   6   4   -0.10    1.72   1
   8   7   0 2709.20   44.76   1
   8   7   1  676.00   11.44   1
   8   7   2 2054.81   38.98   1
   8   7   3  445.21   15.19   1
   8   7   4 1164.17   40.94   1
   8   8   0   61.94    2.20   1
   8   8   1   36.12    1.44   1
   8   8   2   48.30    2.09   1
   8   8   3   20.16    2.51   1
   8   8   4   26.52    3.19   1
   8   9   0    4.58    0.98   1
   8   9   1  135.26    5.12   1
   8   9   2    5.52    1.08   1
   8   9   3   62.09    4.26   1
   8   9   4   11.83    2.41   1
   8  10   0    1.39    0.90   1
   8  10   1   12.11    1.18   1
   8  10   2    0.90    1.10   1
   8  10   3    7.78    1.79   1
   8  10   4   -1.39    1.89   1
   8  11   0  179.29    4.02   1
   8  11   1   20.52    1.63   1
   8  11   2  139.00    4.95   1
   8  11   3   13.91    2.01   1
   8  11   4   76.04    6.28   1
   8  12   0    3.50    0.49   1
   8  12   1    1.10    1.60   1
   8  12   2    1.90    1.49   1
   8  12   3    0.50    1.51   1
   8  12   4   -2.69    2.89   1
   8  13   0  111.51    3.59   1
   8  13   1   97.81    5.34   1
   8  13   2   93.90    4.26   1
   8  13   3   58.06    3.96   1
   8  14   0   21.16    1.93   1
   8  14   1    7.18    1.72   1
   8  14   2   25.00    2.30   1
   8  14   3    4.28    1.99   1
   8  15   0  545.69   16.82   1
   8  15   1  693.80   21.60   1
   8  15   2  448.17   17.36   1
   8  15   3  455.40   20.06   1
   8  16   0    1.30    1.30   1
   8  16   1   -2.89    1.60   1
   8  16   2    1.99    1.49   1
   8  17   0  188.79    8.52   1
   8  17   1  252.49   10.81   1
   8  17   2  147.62    6.80   1
   8  18   0    3.39    1.80   1
   8  18   1    0.50    1.90   1
   9   1   0   29.70    0.76   1
   9   1   1   27.14    0.94   1
   9   1   2   24.80    1.20   1
   9   1   3   17.89    1.69   1
   9   1   4   17.98    2.37   1
   9   1   5    9.12    2.90   1
   9   2   0    1.10    0.29   1
   9   2   1  217.86    3.54   1
   9   2   2    0.79    0.50   1
   9   2   3  133.40    5.08   1
   9   2   4    0.79    1.39   1
   9   2   5   47.33    4.95   1
   9   3   0  108.16    1.66   1
   9   3   1 1958.95   24.79   1
   9   3   2   91.20    2.29   1
   9   3   3 1248.92   28.27   1
   9   3   4   58.06    3.96   1
   9   4   0    9.00    0.72   1
   9   4   1  222.01    3.87   1
   9   4   2    8.18    0.80   1
   9   4   3  136.42    4.91   1
   9   4   4    7.29    2.00   1
   9   5   0  306.25    6.65   1
   9   5   1   52.85    1.45   1
   9   5   2  256.64    7.05   1
   9   5   3   48.16    3.47   1
   9   5   4  130.42    7.08   1
   9   6   0   15.21    0.70   1
   9   6   1    6.10    0.49   1
   9   6   2   10.82    1.32   1
   9   6   3    4.28    1.41   1
   9   6   4    6.60    2.31   1
   9   7   0    3.50    0.71   1
   9   7   1   52.85    1.60   1
   9   7   2    1.21    0.90   1
   9   7   3   34.22    2.92   1
   9   7   4    1.49    1.90   1
   9   8   0   19.36    1.41   1
   9   8   1   21.53    1.11   1
   9   8   2   14.29    1.21   1
   9   8   3   14.21    2.11   1
   9   8   4    2.40    2.01   1
   9   9   0    4.71    1.00   1
   9   9   1  263.09    6.81   1
   9   9   2    4.00    0.88   1
   9   9   3  184.69    8.70   1
   9   9   4    6.92    2.00   1
   9  10   0   40.96    2.43   1
   9  10   1  117.94    4.13   1
   9  10   2   36.36    2.41   1
   9  10   3   67.24    3.77   1
   9  10   4   17.39    3.00   1
   9  11   0  450.71   14.01   1
   9  11   1  318.27   11.06   1
   9  11   2  384.55   11.77   1
   9  11   3  239.63    9.60   1
   9  11   4  201.92   11.08   1
   9  12   0   53.58    2.78   1
   9  12   1   58.37    3.67   1
   9  12   2   42.64    2.74   1
   9  12   3   45.16    3.36   1
   9  13   0    3.80    1.29   1
   9  13   1  268.96   11.15   1
   9  13   2    5.02    1.52   1
   9  13   3  172.40    8.40   1
   9  14   0   -0.20    1.41   1
   9  14   1    0.10    1.62   1
   9  14   2   -2.89    2.01   1
   9  14   3    0.59    1.99   1
   9  15   0    1.59    1.29   1
   9  15   1   79.92    4.47   1
   9  15   2   -0.71    1.92   1
   9  16   0    2.10    1.51   1
   9  16   1    1.39    1.89   1
   9  16   2    2.19    1.81   1
   9  17   0   34.81    2.95   1
   9  17   1  121.88    6.40   1
   9  18   0   -0.71    1.71   1
  10   0   0 1797.76   33.07   1
  10   0   1  430.98    7.06   1
  10   0   2 1450.09   22.85   1
  10   0   3  240.25    9.30   1
  10   0   4  859.08   31.07   1
  10   1   0  395.61    5.97   1
  10   1   1  124.55    2.46   1
  10   1   2  300.68    6.94   1
  10   1   3   82.26    3.63   1
  10   1   4  152.77    7.91   1
  10   2   0   43.56    1.06   1
  10   2   1    9.67    0.50   1
  10   2   2   36.00    1.44   1
  10   2   3    1.69    0.99   1
  10   2   4   24.60    2.58   1
  10   3   0   55.95    1.35   1
  10   3   1   23.81    0.78   1
  10   3   2   39.56    1.76   1
  10   3   3   13.76    1.71   1
  10   3   4    9.80    2.38   1
  10   4   0  626.50   11.51   1
  10   4   1  151.29    3.20   1
  10   4   2  471.32   11.72   1
  10   4   3   93.12    4.82   1
  10   4   4  250.59   12.66   1
  10   5   0   62.25    1.89   1
  10   5   1    1.59    0.60   1
  10   5   2   56.85    2.56   1
  10   5   3    1.99    1.38   1
  10   5   4   28.62    3.53   1
  10   6   0   74.65    2.07   1
  10   6   1    4.71    0.69   1
  10   6   2   61.62    2.36   1
  10   6   3    1.21    1.72   1
  10   6   4   36.72    3.76   1
  10   7   0  170.30    4.96   1
  10   7   1   34.46    1.53   1
  10   7   2  139.48    4.25   1
  10   7   3   29.70    2.94   1
  10   7   4   82.99    5.65   1
  10   8   0  618.52   15.42   1
  10   8   1  350.81    8.24   1
  10   8   2  498.63   12.50   1
  10   8   3  220.82    9.81   1
  10   8   4  268.63   13.77   1
  10   9   0   77.44    3.52   1
  10   9   1  237.16    6.78   1
  10   9   2   71.06    3.20   1
  10   9   3  157.00    7.02   1
  10   9   4   35.05    4.62   1
  10  10   0  318.27   10.35   1
  10  10   1  282.24   10.08   1
  10  10   2  258.57    8.36   1
  10  10   3  183.33    8.12   1
  10  11   0    1.39    1.09   1
  10  11   1    5.62    1.71   1
  10  11   2    0.10    1.32   1
  10  11   3   -0.40    1.40   1
  10  12   0   34.81    2.36   1
  10  12   1   29.70    2.83   1
  10  12   2   40.20    2.66   1
  10  12   3   23.62    2.72   1
  10  13   0  131.79    5.51   1
  10  13   1   84.46    5.33   1
  10  13   2  115.56    5.59   1
  10  13   3   46.79    3.97   1
  10  14   0  529.92   20.72   1
  10  14   1  150.31    7.85   1
  10  14   2  406.43   15.72   1
  10  15   0   16.89    2.14   1
  10  15   1   63.20    3.97   1
  10  15   2   17.22    2.49   1
  10  16   0    1.90    1.49   1
  10  16   1   33.41    3.12   1
  10  17   0    1.30    1.60   1
  10  17   1   -0.90    2.11   1
  11   1   0   17.47    0.67   1
  11   1   1   14.29    0.68   1
  11   1   2   10.82    0.99   1
  11   1   3   10.18    1.79   1
  11   1   4    8.82    2.20   1
  11   2   0   55.65    1.34   1
  11   2   1   27.98    0.85   1
  11   2   2   50.98    2.28   1
  11   2   3   11.49    1.90   1
  11   2   4   19.80    2.94   1
  11   3   0    2.50    0.60   1
  11   3   1    0.50    0.30   1
  11   3   2    0.79    0.61   1
  11   3   3    1.21    1.21   1
  11   3   4   -0.10    1.52   1
  11   4   0  933.30   17.72   1
  11   4   1 1263.80   21.33   1
  11   4   2  752.40   20.30   1
  11   4   3  812.82   33.64   1
  11   4   4  461.39   21.48   1
  11   5   0    4.20    0.62   1
  11   5   1    2.99    0.48   1
  11   5   2    2.50    1.11   1
  11   5   3    1.59    1.59   1
  11   5   4   -1.21    2.11   1
  11   6   0   28.73    1.29   1
  11   6   1  369.02    8.45   1
  11   6   2   33.41    1.97   1
  11   6   3  256.96   10.90   1
  11   6   4   28.52    3.52   1
  11   7   0    0.40    0.79   1
  11   7   1    4.08    0.81   1
  11   7   2    0.79    1.19   1
  11   7   3    3.20    1.50   1
  11   7   4    2.59    2.00   1
  11   8   0  217.86    7.08   1
  11   8   1  215.21    5.57   1
  11   8   2  178.49    6.15   1
  11   8   3  157.75    6.78   1
  11   8   4  103.84    7.54   1
  11   9   0    0.50    1.21   1
  11   9   1    0.59    1.00   1
  11   9   2   -0.40    1.30   1
  11   9   3    0.30    1.61   1
  11  10   0   19.89    2.14   1
  11  10   1  567.87   15.25   1
  11  10   2   22.94    2.20   1
  11  10   3  374.04   14.70   1
  11  11   0   36.24    2.29   1
  11  11   1    6.71    1.40   1
  11  11   2   33.52    2.43   1
  11  11   3    1.80    1.80   1
  11  12   0   49.84    2.82   1
  11  12   1   47.33    3.03   1
  11  12   2   46.65    3.28   1
  11  12   3   30.25    2.97   1
  11  13   0   -0.10    1.41   1
  11  13   1    7.62    1.60   1
  11  13   2    1.10    1.60   1
  11  14   0  184.69    8.43   1
  11  14   1   40.32    2.92   1
  11  14   2  162.05    8.15   1
  11  15   0    0.20    1.51   1
  11  15   1    1.21    1.41   1
  11  16   0    1.59    1.89   1
  11  16   1   36.48    3.14   1
  12   0   0  800.89   16.98   1
  12   0   1  240.56    4.65   1
  12   0   2  500.86   10.74   1
  12   0   3  167.44    7.76   1
  12   0   4  364.43   24.82   1
  12   1   0  117.29    2.60   1
  12   1   1  120.34    2.85   1
  12   1   2   89.49    4.16   1
  12   1   3   75.34    4.34   1
  12   1   4   52.71    6.97   1
  12   2   0   11.09    0.60   1
  12   2   1  287.64    4.75   1
  12   2   2   11.90    1.52   1
  12   2   3  184.96    8.70   1
  12   2   4    9.42    2.21   1
  12   3   0   56.85    2.11   1
  12   3   1   71.06    2.02   1
  12   3   2   51.98    2.45   1
  12   3   3   48.30    3.34   1
  12   3   4   23.33    3.09   1
  12   4   0   71.74    2.37   1
  12   4   1    4.88    0.71   1
  12   4   2   48.86    2.38   1
  12   4   3    1.69    1.30   1
  12   4   4   22.47    3.22   1
  12   5   0    1.99    0.51   1
  12   5   1    0.59    0.49   1
  12   5   2    2.40    1.12   1
  12   5   3   -0.10    1.22   1
  12   5   4    1.49    1.68   1
  12   6   0  386.52    9.04   1
  12   6   1  181.98    7.01   1
  12   6   2  311.88    9.54   1
  12   6   3  128.37    5.66   1
  12   6   4  173.98   12.13   1
  12   7   0   82.26    3.45   1
  12   7   1  135.49    4.66   1
  12   7   2   63.36    3.02   1
  12   7   3  106.50    5.16   1
  12   8   0   20.98    2.02   1
  12   8   1  389.27   13.81   1
  12   8   2   26.11    2.25   1
  12   8   3  282.91   11.77   1
  12   9   0    1.59    1.29   1
  12   9   1    9.67    1.49   1
  12   9   2    1.59    1.18   1
  12   9   3    7.62    1.82   1
  12  10   0   21.81    2.34   1
  12  10   1   13.32    1.53   1
  12  10   2   16.81    1.97   1
  12  10   3    6.60    1.80   1
  12  11   0    7.78    1.39   1
  12  11   1   14.29    1.89   1
  12  11   2    6.60    1.59   1
  12  11   3    7.78    1.90   1
  12  12   0   34.81    2.48   1
  12  12   1   10.89    1.98   1
  12  12   2   33.29    2.77   1
  12  13   0   -1.39    1.89   1
  12  13   1   45.16    3.36   1
  12  13   2    3.50    1.91   1
  12  14   0   82.45    4.72   1
  12  14   1  236.54    9.23   1
  12  15   0   64.16    4.81   1
  12  15   1   91.58    5.36   1
  13   1   0  297.56    5.87   1
  13   1   1  370.18    6.93   1
  13   1   2  208.22    6.35   1
  13   1   3  244.92   13.46   1
  13   1   4  173.71   14.23   1
  13   2   0   76.74    1.93   1
  13   2   1   98.01    2.97   1
  13   2   2   60.37    2.80   1
  13   2   3   64.16    4.49   1
  13   2   4   31.58    5.96   1
  13   3   0  499.08   10.72   1
  13   3   1  275.23    5.97   1
  13   3   2  435.14   11.26   1
  13   3   3  207.36   10.08   1
  13   4   0   52.85    1.89   1
  13   4   1   62.25    2.84   1
  13   4   2   43.16    2.50   1
  13   4   3   41.34    3.86   1
  13   5   0   56.85    2.11   1
  13   5   1   34.34    1.88   1
  13   5   2   46.24    2.45   1
  13   5   3   16.97    1.98   1
  13   6   0   14.90    1.24   1
  13   6   1    2.89    1.19   1
  13   6   2   14.06    1.73   1
  13   6   3   -0.40    1.59   1
  13   7   0   85.56    4.07   1
  13   7   1   13.91    1.49   1
  13   7   2   74.48    3.80   1
  13   7   3    8.53    1.93   1
  13   8   0    3.50    1.38   1
  13   8   1    3.10    1.20   1
  13   8   2    2.10    1.39   1
  13   8   3    1.69    1.40   1
  13   9   0   33.29    3.00   1
  13   9   1   79.39    3.92   1
  13   9   2   19.27    2.11   1
  13   9   3   47.06    3.84   1
  13  10   0   59.75    3.71   1
  13  10   1   48.58    2.79   1
  13  10   2   42.77    3.27   1
  13  11   0 1054.95   34.43   1
  13  11   1  491.51   17.29   1
  13  11   2  922.34   31.58   1
  13  12   0  118.59    6.10   1
  13  12   1   11.83    1.79   1
  13  12   2   90.44    5.71   1
  13  13   0   12.82    2.00   1
  13  13   1   16.32    2.26   1
  13  14   0    9.12    1.99   1
  13  14   1    0.59    1.69   1
  14   0   0   25.91    1.93   1
  14   0   1   26.11    1.33   1
  14   0   2   20.34    1.98   1
  14   0   3   17.98    3.31   1
  14   1   0    5.20    0.59   1
  14   1   1  384.16    9.41   1
  14   1   2    7.29    1.78   1
  14   1   3  278.56   19.36   1
  14   2   0   10.30    1.09   1
  14   2   1    0.40    0.59   1
  14   2   2    3.39    0.99   1
  14   2   3    0.10    3.24   1
  14   3   0   60.06    2.63   1
  14   3   1    7.18    0.91   1
  14   3   2   54.61    2.96   1
  14   3   3    5.52    2.11   1
  14   4   0    9.67    1.12   1
  14   4   1    0.71    0.81   1
  14   4   2    5.20    1.19   1
  14   4   3    0.50    2.41   1
  14   5   0    3.88    1.50   1
  14   5   1  293.44    8.91   1
  14   5   2    2.59    1.09   1
  14   5   3  182.52    8.65   1
  14   6   0    4.71    1.52   1
  14   6   1   71.57    3.55   1
  14   6   2    4.41    1.39   1
  14   6   3   42.51    3.52   1
  14   7   0  601.23   21.09   1
  14   7   1  638.07   18.19   1
  14   7   2  464.40   17.67   1
  14   7   3  416.16   16.32   1
  14   8   0    1.49    1.39   1
  14   8   1    4.71    1.39   1
  14   8   2    1.21    1.61   1
  14   9   0   63.04    4.13   1
  14   9   1   68.06    3.96   1
  14   9   2   52.56    3.77   1
  14  10   0    6.60    2.42   1
  14  10   1    1.39    1.60   1
  14  10   2    4.08    1.62   1
  14  11   0   -2.69    1.41   1
  14  11   1   -0.50    1.31   1
  14  11   2    1.59    1.69   1
  14  12   0    2.10    1.60   1
  14  12   1   -3.69    1.61   1
  14  13   0    2.40    2.01   1
  15   1   0    3.10    0.81   1
  15   1   1   45.97    2.58   1
  15   1   2    1.10    1.41   1
  15   1   3   32.95    3.79   1
  15   2   0    6.50    1.12   1
  15   2   1    7.67    1.38   1
  15   2   2    7.29    1.78   1
  15   2   3    3.39    1.99   1
  15   3   0  161.80    5.60   1
  15   3   1  224.10    8.08   1
  15   3   2  150.06    7.60   1
  15   3   3  158.26   11.07   1
  15   4   0  373.26   13.14   1
  15   4   1  176.09    6.37   1
  15   4   2  318.62   15.71   1
  15   4   3  102.01    7.68   1
  15   5   0  345.22   13.38   1
  15   5   1   55.80    3.14   1
  15   5   2  274.23   11.59   1
  15   6   0   69.22    4.33   1
  15   6   1   33.41    2.43   1
  15   6   2   60.53    3.73   1
  15   7   0   29.92    2.84   1
  15   7   1    7.08    1.92   1
  15   7   2   21.81    2.43   1
  15   8   0   69.06    3.82   1
  15   8   1   47.06    3.29   1
  15   8   2   58.68    3.83   1
  15   9   0   96.83    5.90   1
  15   9   1   99.60    5.59   1
  15   9   2   64.80    4.99   1
  15  10   0   69.89    5.18   1
  15  10   1    8.58    1.88   1
  15  11   0   75.34    5.21   1
  15  11   1    7.29    1.78   1
  16   0   0 1063.41   49.57   1
  16   0   1  621.01   24.92   1
  16   0   2  838.68   52.13   1
  16   1   0   23.43    2.23   1
  16   1   1   10.50    2.59   1
  16   1   2   22.94    3.54   1
  16   2   0   45.97    5.02   1
  16   2   1   38.81    4.86   1
  16   2   2   47.33    6.19   1
  16   3   0    1.49    2.00   1
  16   3   1   -0.79    1.19   1
  16   3   2    0.40    1.59   1
  16   4   0  139.71    7.80   1
  16   4   1   12.32    2.18   1
  16   4   2  119.68    8.10   1
  16   5   0    5.90    1.51   1
  16   5   1    3.88    1.89   1
  16   5   2    4.49    1.99   1
  16   6   0    5.29    1.61   1
  16   6   1    1.59    1.59   1
  16   6   2    2.19    2.10   1
  16   7   0   37.21    3.54   1
  16   7   1   19.89    2.14   1
  16   8   0   69.56    4.67   1
  16   8   1  221.12   10.41   1
  16   9   0    2.69    2.00   1
  16   9   1    7.62    2.48   1
  17   1   0   -1.10    2.50   1
  17   1   1    3.39    2.91   1
  17   2   0   80.28    7.71   1
  17   2   1   50.55    6.68   1
  17   3   0   13.69    3.33   1
  17   3   1   18.23    3.67   1
  17   4   0  141.85   13.82   1
  17   4   1  269.62   21.67   1
  17   5   0    1.21    2.71   1
  17   5   1    7.51    2.69   1
  17   6   0    5.29    3.08   1
  17   6   1   53.29    7.45   1
  17   7   0    4.28    2.82   1
   0   0   0    0.00    0.00   0
;
_shelx_hkl_checksum              59249
loop_
_space_group_symop_operation_xyz
'x, y, z'
'-x, -y, z'
'x+1/2, -y+1/2, -z'
'-x+1/2, y+1/2, -z'
'-x, -y, -z'
'x, y, -z'
'-x-1/2, y-1/2, z'
'x-1/2, -y-1/2, z'
loop_
_atom_site_label
_atom_site_type_symbol
_atom_site_fract_x
_atom_site_fract_y
_atom_site_fract_z
_atom_site_U_iso_or_equiv
_atom_site_adp_type
_atom_site_occupancy
_atom_site_site_symmetry_order
_atom_site_calc_flag
_atom_site_refinement_flags_posn
_atom_site_refinement_flags_adp
_atom_site_refinement_flags_occupancy
Ce1 Ce 0.34038(2) 0.31839(2) 0.0000 0.00852(9) Uani 1 2 d S T P
Co1 Co 0.03488(5) 0.40562(4) 0.0000 0.00708(13) Uani 1 2 d S T P
Co2 Co 0.15166(4) 0.09648(4) 0.0000 0.00580(13) Uani 1 2 d S T P
Al1 Al 0.02558(11) 0.13180(9) 0.5000 0.0076(3) Uani 1 2 d S T P
Al2 Al 0.15953(10) 0.37925(9) 0.5000 0.0077(3) Uani 1 2 d S T P
Al3 Al 0.23624(11) 0.17249(9) 0.5000 0.0079(3) Uani 1 2 d S T P
Al4 Al 0.33140(11) 0.49140(9) 0.5000 0.0082(3) Uani 1 2 d S T P
Al5 Al 0.45285(11) 0.17947(9) 0.5000 0.0071(3) Uani 1 2 d S T P
Al6 Al 0.09585(10) 0.25276(8) 0.0000 0.0080(3) Uani 1 2 d S T P
Al7 Al 0.33993(10) 0.04452(9) 0.0000 0.0098(3) Uani 1 2 d S T P
Al8 Al 0.0000 0.5000 0.5000 0.0078(4) Uani 1 4 d S T P
Al9 Al 0.0000 0.0000 0.0000 0.0084(4) Uani 1 4 d S T P
loop_
_atom_site_aniso_label
_atom_site_aniso_U_11
_atom_site_aniso_U_22
_atom_site_aniso_U_33
_atom_site_aniso_U_23
_atom_site_aniso_U_13
_atom_site_aniso_U_12
Ce1 0.00831(14) 0.01133(13) 0.00592(14) 0.000 0.000 -0.00099(8)
Co1 0.0083(3) 0.0070(2) 0.0060(3) 0.000 0.000 0.0006(2)
Co2 0.0065(3) 0.0057(2) 0.0051(3) 0.000 0.000 -0.00008(19)
Al1 0.0081(6) 0.0085(5) 0.0062(6) 0.000 0.000 0.0005(5)
Al2 0.0068(6) 0.0087(6) 0.0075(7) 0.000 0.000 0.0005(4)
Al3 0.0067(6) 0.0097(6) 0.0071(7) 0.000 0.000 -0.0017(4)
Al4 0.0096(6) 0.0073(5) 0.0075(6) 0.000 0.000 -0.0018(4)
Al5 0.0059(6) 0.0079(5) 0.0077(7) 0.000 0.000 0.0006(4)
Al6 0.0095(6) 0.0064(5) 0.0080(6) 0.000 0.000 0.0006(4)
Al7 0.0073(6) 0.0129(6) 0.0092(7) 0.000 0.000 0.0023(5)
Al8 0.0110(8) 0.0060(7) 0.0064(9) 0.000 0.000 0.0008(6)
Al9 0.0080(8) 0.0082(8) 0.0090(9) 0.000 0.000 -0.0007(6)
loop_
_atom_type_symbol
_atom_type_description
_atom_type_scat_dispersion_real
_atom_type_scat_dispersion_imag
_atom_type_scat_source
Ce Ce -0.2486 2.6331 'International Tables Vol C Tables 4.2.6.8 and 6.1.1.4'
Co Co 0.3494 0.9721 'International Tables Vol C Tables 4.2.6.8 and 6.1.1.4'
Al Al 0.0645 0.0514 'International Tables Vol C Tables 4.2.6.8 and 6.1.1.4'
loop_
_geom_angle_atom_site_label_1
_geom_angle_atom_site_label_2
_geom_angle_atom_site_label_3
_geom_angle
_geom_angle_site_symmetry_1
_geom_angle_site_symmetry_3
Al1 Ce1 Al1 79.49(3) 3_556 3
Al1 Ce1 Al2 150.67(4) 3_556 1_554
Al1 Ce1 Al2 93.12(3) 3 1_554
Al1 Ce1 Al2 93.12(3) 3_556 .
Al1 Ce1 Al2 150.67(4) 3 .
Al2 Ce1 Al2 79.46(3) 1_554 .
Al1 Ce1 Al5 53.97(3) 3_556 .
Al1 Ce1 Al5 102.99(3) 3 .
Al2 Ce1 Al5 154.17(3) 1_554 .
Al2 Ce1 Al5 95.01(2) . .
Al1 Ce1 Al5 102.99(3) 3_556 1_554
Al1 Ce1 Al5 53.97(3) 3 1_554
Al2 Ce1 Al5 95.01(2) 1_554 1_554
Al2 Ce1 Al5 154.17(3) . 1_554
Al5 Ce1 Al5 78.95(3) . 1_554
Al1 Ce1 Al3 92.63(3) 3_556 .
Al1 Ce1 Al3 148.61(3) 3 .
Al2 Ce1 Al3 107.14(3) 1_554 .
Al2 Ce1 Al3 59.16(3) . .
Al5 Ce1 Al3 50.42(3) . .
Al5 Ce1 Al3 99.55(3) 1_554 .
Al1 Ce1 Al3 148.61(3) 3_556 1_554
Al1 Ce1 Al3 92.63(3) 3 1_554
Al2 Ce1 Al3 59.16(3) 1_554 1_554
Al2 Ce1 Al3 107.14(3) . 1_554
Al5 Ce1 Al3 99.55(3) . 1_554
Al5 Ce1 Al3 50.42(3) 1_554 1_554
Al3 Ce1 Al3 78.34(3) . 1_554
Al1 Ce1 Al6 140.255(16) 3_556 .
Al1 Ce1 Al6 140.255(16) 3 .
Al2 Ce1 Al6 52.95(3) 1_554 .
Al2 Ce1 Al6 52.95(3) . .
Al5 Ce1 Al6 103.69(3) . .
Al5 Ce1 Al6 103.69(3) 1_554 .
Al3 Ce1 Al6 54.22(3) . .
Al3 Ce1 Al6 54.22(3) 1_554 .
Al1 Ce1 Al4 104.49(3) 3_556 1_554
Al1 Ce1 Al4 56.43(3) 3 1_554
Al2 Ce1 Al4 49.99(3) 1_554 1_554
Al2 Ce1 Al4 99.21(3) . 1_554
Al5 Ce1 Al4 154.95(3) . 1_554
Al5 Ce1 Al4 96.17(2) 1_554 1_554
Al3 Ce1 Al4 153.50(3) . 1_554
Al3 Ce1 Al4 95.83(2) 1_554 1_554
Al6 Ce1 Al4 101.33(3) . 1_554
Al1 Ce1 Al4 56.43(3) 3_556 .
Al1 Ce1 Al4 104.49(3) 3 .
Al2 Ce1 Al4 99.21(3) 1_554 .
Al2 Ce1 Al4 49.99(3) . .
Al5 Ce1 Al4 96.16(2) . .
Al5 Ce1 Al4 154.95(3) 1_554 .
Al3 Ce1 Al4 95.83(2) . .
Al3 Ce1 Al4 153.50(3) 1_554 .
Al6 Ce1 Al4 101.33(3) . .
Al4 Ce1 Al4 77.82(3) 1_554 .
Al1 Ce1 Al9 51.22(2) 3_556 3
Al1 Ce1 Al9 51.22(2) 3 3
Al2 Ce1 Al9 102.31(2) 1_554 3
Al2 Ce1 Al9 102.31(2) . 3
Al5 Ce1 Al9 103.52(2) . 3
Al5 Ce1 Al9 103.52(2) 1_554 3
Al3 Ce1 Al9 140.502(15) . 3
Al3 Ce1 Al9 140.502(15) 1_554 3
Al6 Ce1 Al9 144.51(2) . 3
Al4 Ce1 Al9 53.34(2) 1_554 3
Al4 Ce1 Al9 53.34(2) . 3
Al6 Co1 Al8 125.327(11) . .
Al6 Co1 Al8 125.327(11) . 1_554
Al8 Co1 Al8 109.32(2) . 1_554
Al6 Co1 Al7 122.92(5) . 7_665
Al8 Co1 Al7 71.01(2) . 7_665
Al8 Co1 Al7 71.01(2) 1_554 7_665
Al6 Co1 Al7 125.51(5) . 3_455
Al8 Co1 Al7 71.03(2) . 3_455
Al8 Co1 Al7 71.03(2) 1_554 3_455
Al7 Co1 Al7 111.56(4) 7_665 3_455
Al6 Co1 Al5 71.31(4) . 3_455
Al8 Co1 Al5 146.25(4) . 3_455
Al8 Co1 Al5 63.47(2) 1_554 3_455
Al7 Co1 Al5 128.40(2) 7_665 3_455
Al7 Co1 Al5 75.68(4) 3_455 3_455
Al6 Co1 Al5 71.31(4) . 3_456
Al8 Co1 Al5 63.47(2) . 3_456
Al8 Co1 Al5 146.25(4) 1_554 3_456
Al7 Co1 Al5 128.40(2) 7_665 3_456
Al7 Co1 Al5 75.68(4) 3_455 3_456
Al5 Co1 Al5 103.15(5) 3_455 3_456
Al6 Co1 Al2 70.29(4) . .
Al8 Co1 Al2 63.24(3) . .
Al8 Co1 Al2 145.73(4) 1_554 .
Al7 Co1 Al2 75.16(4) 7_665 .
Al7 Co1 Al2 128.46(2) 3_455 .
Al5 Co1 Al2 141.60(5) 3_455 .
Al5 Co1 Al2 63.75(4) 3_456 .
Al6 Co1 Al2 70.30(4) . 1_554
Al8 Co1 Al2 145.73(4) . 1_554
Al8 Co1 Al2 63.24(3) 1_554 1_554
Al7 Co1 Al2 75.16(4) 7_665 1_554
Al7 Co1 Al2 128.46(2) 3_455 1_554
Al5 Co1 Al2 63.75(4) 3_455 1_554
Al5 Co1 Al2 141.60(5) 3_456 1_554
Al2 Co1 Al2 102.98(5) . 1_554
Al6 Co1 Co1 178.69(5) . 5_565
Al8 Co1 Co1 54.662(11) . 5_565
Al8 Co1 Co1 54.662(11) 1_554 5_565
Al7 Co1 Co1 55.77(4) 7_665 5_565
Al7 Co1 Co1 55.80(4) 3_455 5_565
Al5 Co1 Co1 109.42(3) 3_455 5_565
Al5 Co1 Co1 109.42(3) 3_456 5_565
Al2 Co1 Co1 108.97(4) . 5_565
Al2 Co1 Co1 108.97(4) 1_554 5_565
Al9 Co2 Al6 109.07(4) . .
Al9 Co2 Al7 126.07(4) . .
Al6 Co2 Al7 124.86(5) . .
Al9 Co2 Al3 126.45(3) . .
Al6 Co2 Al3 73.10(4) . .
Al7 Co2 Al3 74.50(4) . .
Al9 Co2 Al3 126.45(3) . 1_554
Al6 Co2 Al3 73.10(4) . 1_554
Al7 Co2 Al3 74.50(4) . 1_554
Al3 Co2 Al3 105.85(5) . 1_554
Al9 Co2 Al4 73.33(3) . 7_654
Al6 Co2 Al4 126.64(3) . 7_654
Al7 Co2 Al4 74.85(4) . 7_654
Al3 Co2 Al4 149.35(5) . 7_654
Al3 Co2 Al4 65.75(4) 1_554 7_654
Al9 Co2 Al4 73.33(3) . 7_655
Al6 Co2 Al4 126.64(3) . 7_655
Al7 Co2 Al4 74.85(4) . 7_655
Al3 Co2 Al4 65.75(4) . 7_655
Al3 Co2 Al4 149.35(5) 1_554 7_655
Al4 Co2 Al4 105.60(5) 7_654 7_655
Al9 Co2 Al1 68.19(3) . .
Al6 Co2 Al1 68.58(3) . .
Al7 Co2 Al1 129.41(2) . .
Al3 Co2 Al1 63.37(4) . .
Al3 Co2 Al1 141.68(5) 1_554 .
Al4 Co2 Al1 141.52(5) 7_654 .
Al4 Co2 Al1 63.39(4) 7_655 .
Al9 Co2 Al1 68.19(3) . 1_554
Al6 Co2 Al1 68.58(3) . 1_554
Al7 Co2 Al1 129.41(2) . 1_554
Al3 Co2 Al1 141.68(5) . 1_554
Al3 Co2 Al1 63.37(4) 1_554 1_554
Al4 Co2 Al1 63.39(4) 7_654 1_554
Al4 Co2 Al1 141.52(5) 7_655 1_554
Al1 Co2 Al1 101.18(5) . 1_554
Co2 Al1 Co2 101.18(5) . 1_556
Co2 Al1 Al3 56.82(3) . .
Co2 Al1 Al3 56.82(3) 1_556 .
Co2 Al1 Al4 56.89(3) . 7_655
Co2 Al1 Al4 56.89(3) 1_556 7_655
Al3 Al1 Al4 61.11(5) . 7_655
Co2 Al1 Al9 51.523(18) . .
Co2 Al1 Al9 119.65(5) 1_556 .
Al3 Al1 Al9 105.08(4) . .
Al4 Al1 Al9 64.22(3) 7_655 .
Co2 Al1 Al9 119.65(5) . 1_556
Co2 Al1 Al9 51.524(18) 1_556 1_556
Al3 Al1 Al9 105.08(4) . 1_556
Al4 Al1 Al9 64.22(3) 7_655 1_556
Al9 Al1 Al9 92.57(4) . 1_556
Co2 Al1 Al6 119.15(5) . 1_556
Co2 Al1 Al6 51.49(3) 1_556 1_556
Al3 Al1 Al6 63.86(4) . 1_556
Al4 Al1 Al6 104.99(5) 7_655 1_556
Al9 Al1 Al6 168.11(6) . 1_556
Al9 Al1 Al6 86.580(19) 1_556 1_556
Co2 Al1 Al6 51.49(3) . .
Co2 Al1 Al6 119.15(5) 1_556 .
Al3 Al1 Al6 63.86(4) . .
Al4 Al1 Al6 104.99(5) 7_655 .
Al9 Al1 Al6 86.580(19) . .
Al9 Al1 Al6 168.10(6) 1_556 .
Al6 Al1 Al6 91.81(5) 1_556 .
Co2 Al1 Al5 112.12(4) . 3_456
Co2 Al1 Al5 112.12(4) 1_556 3_456
Al3 Al1 Al5 95.91(6) . 3_456
Al4 Al1 Al5 157.03(7) 7_655 3_456
Al9 Al1 Al5 127.59(3) . 3_456
Al9 Al1 Al5 127.59(3) 1_556 3_456
Al6 Al1 Al5 60.64(4) 1_556 3_456
Al6 Al1 Al5 60.64(4) . 3_456
Co2 Al1 Ce1 89.664(13) . 3_455
Co2 Al1 Ce1 169.15(4) 1_556 3_455
Al3 Al1 Ce1 131.85(3) . 3_455
Al4 Al1 Ce1 131.06(3) 7_655 3_455
Al9 Al1 Ce1 66.980(17) . 3_455
Al9 Al1 Ce1 122.22(5) 1_556 3_455
Al6 Al1 Ce1 123.19(5) 1_556 3_455
Al6 Al1 Ce1 68.23(3) . 3_455
Al5 Al1 Ce1 63.33(3) 3_456 3_455
Co2 Al1 Ce1 169.15(4) . 3_456
Co2 Al1 Ce1 89.664(13) 1_556 3_456
Al3 Al1 Ce1 131.85(3) . 3_456
Al4 Al1 Ce1 131.06(3) 7_655 3_456
Al9 Al1 Ce1 122.22(5) . 3_456
Al9 Al1 Ce1 66.980(18) 1_556 3_456
Al6 Al1 Ce1 68.22(3) 1_556 3_456
Al6 Al1 Ce1 123.19(5) . 3_456
Al5 Al1 Ce1 63.33(3) 3_456 3_456
Ce1 Al1 Ce1 79.49(3) 3_455 3_456
Co1 Al2 Co1 102.98(5) . 1_556
Co1 Al2 Al8 56.44(3) . .
Co1 Al2 Al8 56.44(3) 1_556 .
Co1 Al2 Al4 113.24(4) . .
Co1 Al2 Al4 113.24(4) 1_556 .
Al8 Al2 Al4 101.90(5) . .
Co1 Al2 Al5 58.07(3) . 3_456
Co1 Al2 Al5 58.07(3) 1_556 3_456
Al8 Al2 Al5 59.27(4) . 3_456
Al4 Al2 Al5 161.18(7) . 3_456
Co1 Al2 Al6 50.82(3) . .
Co1 Al2 Al6 118.81(5) 1_556 .
Al8 Al2 Al6 102.23(4) . .
Al4 Al2 Al6 127.72(4) . .
Al5 Al2 Al6 62.12(4) 3_456 .
Co1 Al2 Al6 118.81(5) . 1_556
Co1 Al2 Al6 50.82(3) 1_556 1_556
Al8 Al2 Al6 102.23(4) . 1_556
Al4 Al2 Al6 127.72(4) . 1_556
Al5 Al2 Al6 62.12(4) 3_456 1_556
Al6 Al2 Al6 90.73(5) . 1_556
Co1 Al2 Ce1 88.545(13) . .
Co1 Al2 Ce1 167.14(4) 1_556 .
Al8 Al2 Ce1 136.31(2) . .
Al4 Al2 Ce1 66.08(3) . .
Al5 Al2 Ce1 126.49(4) 3_456 .
Al6 Al2 Ce1 64.37(3) . .
Al6 Al2 Ce1 118.50(5) 1_556 .
Co1 Al2 Ce1 167.14(4) . 1_556
Co1 Al2 Ce1 88.546(13) 1_556 1_556
Al8 Al2 Ce1 136.31(2) . 1_556
Al4 Al2 Ce1 66.08(3) . 1_556
Al5 Al2 Ce1 126.49(4) 3_456 1_556
Al6 Al2 Ce1 118.50(5) . 1_556
Al6 Al2 Ce1 64.37(3) 1_556 1_556
Ce1 Al2 Ce1 79.46(3) . 1_556
Co2 Al3 Co2 105.85(5) 1_556 .
Co2 Al3 Al1 59.81(3) 1_556 .
Co2 Al3 Al1 59.81(3) . .
Co2 Al3 Al5 115.75(4) 1_556 .
Co2 Al3 Al5 115.75(4) . .
Al1 Al3 Al5 169.57(7) . .
Co2 Al3 Al4 57.20(3) 1_556 7_655
Co2 Al3 Al4 57.20(3) . 7_655
Al1 Al3 Al4 59.50(5) . 7_655
Al5 Al3 Al4 110.07(6) . 7_655
Co2 Al3 Al6 118.19(5) 1_556 .
Co2 Al3 Al6 50.81(3) . .
Al1 Al3 Al6 59.89(4) . .
Al5 Al3 Al6 125.97(4) . .
Al4 Al3 Al6 101.10(5) 7_655 .
Co2 Al3 Al6 50.81(3) 1_556 1_556
Co2 Al3 Al6 118.19(5) . 1_556
Al1 Al3 Al6 59.89(4) . 1_556
Al5 Al3 Al6 125.97(4) . 1_556
Al4 Al3 Al6 101.10(5) 7_655 1_556
Al6 Al3 Al6 87.59(5) . 1_556
Co2 Al3 Ce1 87.296(14) 1_556 1_556
Co2 Al3 Ce1 163.89(4) . 1_556
Al1 Al3 Ce1 122.79(4) . 1_556
Al5 Al3 Ce1 64.39(3) . 1_556
Al4 Al3 Ce1 138.84(2) 7_655 1_556
Al6 Al3 Ce1 114.89(5) . 1_556
Al6 Al3 Ce1 63.04(3) 1_556 1_556
Co2 Al3 Ce1 163.89(4) 1_556 .
Co2 Al3 Ce1 87.297(14) . .
Al1 Al3 Ce1 122.79(4) . .
Al5 Al3 Ce1 64.40(3) . .
Al4 Al3 Ce1 138.84(2) 7_655 .
Al6 Al3 Ce1 63.04(3) . .
Al6 Al3 Ce1 114.89(5) 1_556 .
Ce1 Al3 Ce1 78.34(3) 1_556 .
Co2 Al4 Co2 105.60(5) 7_666 7_665
Co2 Al4 Al2 115.28(4) 7_666 .
Co2 Al4 Al2 115.28(4) 7_665 .
Co2 Al4 Al1 59.72(3) 7_666 7_665
Co2 Al4 Al1 59.72(3) 7_665 7_665
Al2 Al4 Al1 168.42(7) . 7_665
Co2 Al4 Al3 57.05(3) 7_666 7_665
Co2 Al4 Al3 57.05(3) 7_665 7_665
Al2 Al4 Al3 109.03(6) . 7_665
Al1 Al4 Al3 59.39(5) 7_665 7_665
Co2 Al4 Al9 50.513(19) 7_666 3_556
Co2 Al4 Al9 117.65(5) 7_665 3_556
Al2 Al4 Al9 127.05(3) . 3_556
Al1 Al4 Al9 59.35(3) 7_665 3_556
Al3 Al4 Al9 100.49(4) 7_665 3_556
Co2 Al4 Al9 117.65(5) 7_666 3
Co2 Al4 Al9 50.513(19) 7_665 3
Al2 Al4 Al9 127.05(3) . 3
Al1 Al4 Al9 59.35(3) 7_665 3
Al3 Al4 Al9 100.49(4) 7_665 3
Al9 Al4 Al9 87.34(4) 3_556 3
Co2 Al4 Ce1 164.33(4) 7_666 .
Co2 Al4 Ce1 87.839(15) 7_665 .
Al2 Al4 Ce1 63.93(3) . .
Al1 Al4 Ce1 124.02(4) 7_665 .
Al3 Al4 Ce1 138.62(2) 7_665 .
Al9 Al4 Ce1 116.20(4) 3_556 .
Al9 Al4 Ce1 64.790(18) 3 .
Co2 Al4 Ce1 87.839(15) 7_666 1_556
Co2 Al4 Ce1 164.33(4) 7_665 1_556
Al2 Al4 Ce1 63.93(3) . 1_556
Al1 Al4 Ce1 124.02(4) 7_665 1_556
Al3 Al4 Ce1 138.62(2) 7_665 1_556
Al9 Al4 Ce1 64.790(18) 3_556 1_556
Al9 Al4 Ce1 116.20(4) 3 1_556
Ce1 Al4 Ce1 77.82(3) . 1_556
Co1 Al5 Co1 103.15(5) 3 3_556
Co1 Al5 Al8 56.39(3) 3 3_556
Co1 Al5 Al8 56.39(3) 3_556 3_556
Co1 Al5 Al3 112.37(4) 3 .
Co1 Al5 Al3 112.37(4) 3_556 .
Al8 Al5 Al3 100.70(5) 3_556 .
Co1 Al5 Al2 58.18(3) 3 3_556
Co1 Al5 Al2 58.18(3) 3_556 3_556
Al8 Al5 Al2 59.02(4) 3_556 3_556
Al3 Al5 Al2 159.72(6) . 3_556
Co1 Al5 Al6 117.71(5) 3 3_556
Co1 Al5 Al6 50.44(3) 3_556 3_556
Al8 Al5 Al6 101.19(4) 3_556 3_556
Al3 Al5 Al6 129.49(4) . 3_556
Al2 Al5 Al6 60.89(4) 3_556 3_556
Co1 Al5 Al6 50.44(3) 3 3
Co1 Al5 Al6 117.71(5) 3_556 3
Al8 Al5 Al6 101.19(4) 3_556 3
Al3 Al5 Al6 129.49(4) . 3
Al2 Al5 Al6 60.89(4) 3_556 3
Al6 Al5 Al6 89.39(5) 3_556 3
Co1 Al5 Al1 109.03(4) 3 3_556
Co1 Al5 Al1 109.03(4) 3_556 3_556
Al8 Al5 Al1 148.70(6) 3_556 3_556
Al3 Al5 Al1 110.60(6) . 3_556
Al2 Al5 Al1 89.68(5) 3_556 3_556
Al6 Al5 Al1 58.60(4) 3_556 3_556
Al6 Al5 Al1 58.60(4) 3 3_556
Co1 Al5 Ce1 167.45(4) 3 1_556
Co1 Al5 Ce1 88.854(13) 3_556 1_556
Al8 Al5 Ce1 135.60(2) 3_556 1_556
Al3 Al5 Ce1 65.19(3) . 1_556
Al2 Al5 Ce1 128.18(3) 3_556 1_556
Al6 Al5 Ce1 67.29(3) 3_556 1_556
Al6 Al5 Ce1 120.55(5) 3 1_556
Al1 Al5 Ce1 62.69(3) 3_556 1_556
Co1 Al5 Ce1 88.855(13) 3 .
Co1 Al5 Ce1 167.44(4) 3_556 .
Al8 Al5 Ce1 135.60(2) 3_556 .
Al3 Al5 Ce1 65.19(3) . .
Al2 Al5 Ce1 128.18(3) 3_556 .
Al6 Al5 Ce1 120.55(5) 3_556 .
Al6 Al5 Ce1 67.29(3) 3 .
Al1 Al5 Ce1 62.69(3) 3_556 .
Ce1 Al5 Ce1 78.95(3) 1_556 .
Co1 Al6 Co2 178.13(7) . .
Co1 Al6 Al1 119.02(4) . 1_554
Co2 Al6 Al1 59.93(3) . 1_554
Co1 Al6 Al1 119.02(4) . .
Co2 Al6 Al1 59.92(3) . .
Al1 Al6 Al1 91.81(5) 1_554 .
Co1 Al6 Al2 58.89(3) . .
Co2 Al6 Al2 122.14(4) . .
Al1 Al6 Al2 177.73(6) 1_554 .
Al1 Al6 Al2 88.69(3) . .
Co1 Al6 Al2 58.89(3) . 1_554
Co2 Al6 Al2 122.14(4) . 1_554
Al1 Al6 Al2 88.69(3) 1_554 1_554
Al1 Al6 Al2 177.73(6) . 1_554
Al2 Al6 Al2 90.73(5) . 1_554
Co1 Al6 Al5 58.26(3) . 3_455
Co2 Al6 Al5 120.68(4) . 3_455
Al1 Al6 Al5 60.76(4) 1_554 3_455
Al1 Al6 Al5 121.46(6) . 3_455
Al2 Al6 Al5 117.14(5) . 3_455
Al2 Al6 Al5 56.99(4) 1_554 3_455
Co1 Al6 Al5 58.26(3) . 3_456
Co2 Al6 Al5 120.68(4) . 3_456
Al1 Al6 Al5 121.46(6) 1_554 3_456
Al1 Al6 Al5 60.76(4) . 3_456
Al2 Al6 Al5 56.99(4) . 3_456
Al2 Al6 Al5 117.14(5) 1_554 3_456
Al5 Al6 Al5 89.39(5) 3_455 3_456
Co1 Al6 Al3 124.93(4) . .
Co2 Al6 Al3 56.09(3) . .
Al1 Al6 Al3 116.02(5) 1_554 .
Al1 Al6 Al3 56.26(4) . .
Al2 Al6 Al3 66.05(4) . .
Al2 Al6 Al3 125.38(6) 1_554 .
Al5 Al6 Al3 176.49(6) 3_455 .
Al5 Al6 Al3 91.41(3) 3_456 .
Co1 Al6 Al3 124.93(4) . 1_554
Co2 Al6 Al3 56.09(3) . 1_554
Al1 Al6 Al3 56.26(4) 1_554 1_554
Al1 Al6 Al3 116.02(5) . 1_554
Al2 Al6 Al3 125.38(6) . 1_554
Al2 Al6 Al3 66.05(4) 1_554 1_554
Al5 Al6 Al3 91.41(3) 3_455 1_554
Al5 Al6 Al3 176.49(6) 3_456 1_554
Al3 Al6 Al3 87.59(5) . 1_554
Co1 Al6 Ce1 91.87(4) . .
Co2 Al6 Ce1 90.00(4) . .
Al1 Al6 Ce1 118.87(4) 1_554 .
Al1 Al6 Ce1 118.87(4) . .
Al2 Al6 Ce1 62.68(3) . .
Al2 Al6 Ce1 62.68(3) 1_554 .
Al5 Al6 Ce1 119.67(4) 3_455 .
Al5 Al6 Ce1 119.67(4) 3_456 .
Al3 Al6 Ce1 62.74(3) . .
Al3 Al6 Ce1 62.74(3) 1_554 .
Co1 Al6 Ce1 88.74(4) . 3_455
Co2 Al6 Ce1 89.39(4) . 3_455
Al1 Al6 Ce1 60.79(3) 1_554 3_455
Al1 Al6 Ce1 60.79(3) . 3_455
Al2 Al6 Ce1 117.68(4) . 3_455
Al2 Al6 Ce1 117.68(4) 1_554 3_455
Al5 Al6 Ce1 60.69(3) 3_455 3_455
Al5 Al6 Ce1 60.69(3) 3_456 3_455
Al3 Al6 Ce1 116.88(4) . 3_455
Al3 Al6 Ce1 116.88(4) 1_554 3_455
Ce1 Al6 Ce1 179.39(4) . 3_455
Co2 Al7 Co1 145.66(6) . 7_655
Co2 Al7 Co1 145.90(6) . 3
Co1 Al7 Co1 68.44(4) 7_655 3
Co2 Al7 Al8 136.194(18) . 3_556
Co1 Al7 Al8 53.36(2) 7_655 3_556
Co1 Al7 Al8 53.37(2) 3 3_556
Co2 Al7 Al8 136.194(17) . 3
Co1 Al7 Al8 53.36(2) 7_655 3
Co1 Al7 Al8 53.37(2) 3 3
Al8 Al7 Al8 87.61(4) 3_556 3
Co1 Al8 Co1 109.33(2) 5_566 5_565
Co1 Al8 Co1 70.67(2) 5_566 1_556
Co1 Al8 Co1 180.0 5_565 1_556
Co1 Al8 Co1 180.0 5_566 .
Co1 Al8 Co1 70.68(2) 5_565 .
Co1 Al8 Co1 109.32(2) 1_556 .
Co1 Al8 Al2 60.317(15) 5_566 5_566
Co1 Al8 Al2 60.317(15) 5_565 5_566
Co1 Al8 Al2 119.683(15) 1_556 5_566
Co1 Al8 Al2 119.683(15) . 5_566
Co1 Al8 Al2 119.683(15) 5_566 .
Co1 Al8 Al2 119.683(15) 5_565 .
Co1 Al8 Al2 60.317(15) 1_556 .
Co1 Al8 Al2 60.317(15) . .
Al2 Al8 Al2 180.0 5_566 .
Co1 Al8 Al5 60.140(15) 5_566 7_665
Co1 Al8 Al5 60.140(15) 5_565 7_665
Co1 Al8 Al5 119.860(15) 1_556 7_665
Co1 Al8 Al5 119.861(15) . 7_665
Al2 Al8 Al5 61.70(4) 5_566 7_665
Al2 Al8 Al5 118.30(4) . 7_665
Co1 Al8 Al5 119.860(15) 5_566 3_456
Co1 Al8 Al5 119.860(15) 5_565 3_456
Co1 Al8 Al5 60.140(15) 1_556 3_456
Co1 Al8 Al5 60.139(15) . 3_456
Al2 Al8 Al5 118.30(4) 5_566 3_456
Al2 Al8 Al5 61.70(4) . 3_456
Al5 Al8 Al5 180.0 7_665 3_456
Co1 Al8 Al7 55.61(3) 5_566 7_666
Co1 Al8 Al7 124.37(3) 5_565 7_666
Co1 Al8 Al7 55.63(3) 1_556 7_666
Co1 Al8 Al7 124.39(3) . 7_666
Al2 Al8 Al7 111.88(3) 5_566 7_666
Al2 Al8 Al7 68.12(3) . 7_666
Al5 Al8 Al7 68.44(3) 7_665 7_666
Al5 Al8 Al7 111.56(3) 3_456 7_666
Co1 Al8 Al7 124.39(3) 5_566 3_455
Co1 Al8 Al7 55.63(3) 5_565 3_455
Co1 Al8 Al7 124.37(3) 1_556 3_455
Co1 Al8 Al7 55.61(3) . 3_455
Al2 Al8 Al7 68.12(3) 5_566 3_455
Al2 Al8 Al7 111.88(3) . 3_455
Al5 Al8 Al7 111.56(3) 7_665 3_455
Al5 Al8 Al7 68.44(3) 3_456 3_455
Al7 Al8 Al7 180.0 7_666 3_455
Co1 Al8 Al7 55.63(3) 5_566 3_456
Co1 Al8 Al7 124.39(3) 5_565 3_456
Co1 Al8 Al7 55.61(3) 1_556 3_456
Co1 Al8 Al7 124.37(3) . 3_456
Al2 Al8 Al7 68.12(3) 5_566 3_456
Al2 Al8 Al7 111.88(3) . 3_456
Al5 Al8 Al7 111.56(3) 7_665 3_456
Al5 Al8 Al7 68.44(3) 3_456 3_456
Al7 Al8 Al7 92.39(4) 7_666 3_456
Al7 Al8 Al7 87.61(4) 3_455 3_456
Co1 Al8 Al7 124.37(3) 5_566 7_665
Co1 Al8 Al7 55.61(3) 5_565 7_665
Co1 Al8 Al7 124.39(3) 1_556 7_665
Co1 Al8 Al7 55.63(3) . 7_665
Al2 Al8 Al7 111.88(3) 5_566 7_665
Al2 Al8 Al7 68.12(3) . 7_665
Al5 Al8 Al7 68.44(3) 7_665 7_665
Al5 Al8 Al7 111.56(3) 3_456 7_665
Al7 Al8 Al7 87.61(4) 7_666 7_665
Al7 Al8 Al7 92.39(4) 3_455 7_665
Al7 Al8 Al7 180.0 3_456 7_665
Co2 Al9 Co2 180.0 . 5
Co2 Al9 Al1 60.29(3) . .
Co2 Al9 Al1 119.71(3) 5 .
Co2 Al9 Al1 119.71(3) . 5
Co2 Al9 Al1 60.29(3) 5 5
Al1 Al9 Al1 180.0 . 5
Co2 Al9 Al1 119.71(3) . 5_556
Co2 Al9 Al1 60.29(3) 5 5_556
Al1 Al9 Al1 87.43(4) . 5_556
Al1 Al9 Al1 92.57(4) 5 5_556
Co2 Al9 Al1 60.29(3) . 1_554
Co2 Al9 Al1 119.71(3) 5 1_554
Al1 Al9 Al1 92.57(4) . 1_554
Al1 Al9 Al1 87.43(4) 5 1_554
Al1 Al9 Al1 180.00(7) 5_556 1_554
Co2 Al9 Al4 56.15(2) . 7_655
Co2 Al9 Al4 123.85(2) 5 7_655
Al1 Al9 Al4 56.43(3) . 7_655
Al1 Al9 Al4 123.57(3) 5 7_655
Al1 Al9 Al4 63.56(3) 5_556 7_655
Al1 Al9 Al4 116.44(3) 1_554 7_655
Co2 Al9 Al4 123.85(2) . 3_455
Co2 Al9 Al4 56.15(2) 5 3_455
Al1 Al9 Al4 123.57(3) . 3_455
Al1 Al9 Al4 56.43(3) 5 3_455
Al1 Al9 Al4 116.44(3) 5_556 3_455
Al1 Al9 Al4 63.56(3) 1_554 3_455
Al4 Al9 Al4 180.0 7_655 3_455
Co2 Al9 Al4 56.15(2) . 7_654
Co2 Al9 Al4 123.85(2) 5 7_654
Al1 Al9 Al4 116.44(3) . 7_654
Al1 Al9 Al4 63.56(3) 5 7_654
Al1 Al9 Al4 123.57(3) 5_556 7_654
Al1 Al9 Al4 56.43(3) 1_554 7_654
Al4 Al9 Al4 87.34(4) 7_655 7_654
Al4 Al9 Al4 92.66(4) 3_455 7_654
Co2 Al9 Al4 123.85(2) . 3_456
Co2 Al9 Al4 56.15(2) 5 3_456
Al1 Al9 Al4 63.56(3) . 3_456
Al1 Al9 Al4 116.44(3) 5 3_456
Al1 Al9 Al4 56.43(3) 5_556 3_456
Al1 Al9 Al4 123.57(3) 1_554 3_456
Al4 Al9 Al4 92.66(4) 7_655 3_456
Al4 Al9 Al4 87.34(4) 3_455 3_456
Al4 Al9 Al4 180.00(6) 7_654 3_456
Co2 Al9 Ce1 88.969(14) . 7_655
Co2 Al9 Ce1 91.031(14) 5 7_655
Al1 Al9 Ce1 118.20(3) . 7_655
Al1 Al9 Ce1 61.80(3) 5 7_655
Al1 Al9 Ce1 61.80(3) 5_556 7_655
Al1 Al9 Ce1 118.20(3) 1_554 7_655
Al4 Al9 Ce1 61.87(2) 7_655 7_655
Al4 Al9 Ce1 118.13(2) 3_455 7_655
Al4 Al9 Ce1 61.87(2) 7_654 7_655
Al4 Al9 Ce1 118.13(2) 3_456 7_655
Co2 Al9 Ce1 91.031(14) . 3_455
Co2 Al9 Ce1 88.969(14) 5 3_455
Al1 Al9 Ce1 61.80(3) . 3_455
Al1 Al9 Ce1 118.20(3) 5 3_455
Al1 Al9 Ce1 118.20(3) 5_556 3_455
Al1 Al9 Ce1 61.80(3) 1_554 3_455
Al4 Al9 Ce1 118.13(2) 7_655 3_455
Al4 Al9 Ce1 61.87(2) 3_455 3_455
Al4 Al9 Ce1 118.13(2) 7_654 3_455
Al4 Al9 Ce1 61.87(2) 3_456 3_455
Ce1 Al9 Ce1 180.0 7_655 3_455
loop_
_geom_bond_atom_site_label_1
_geom_bond_atom_site_label_2
_geom_bond_distance
_geom_bond_site_symmetry_2
Ce1 Al1 3.1452(10) 3_556
Ce1 Al1 3.1452(10) 3
Ce1 Al2 3.1461(10) 1_554
Ce1 Al2 3.1461(10) .
Ce1 Al5 3.1633(10) .
Ce1 Al5 3.1634(10) 1_554
Ce1 Al3 3.1840(10) .
Ce1 Al3 3.1840(10) 1_554
Ce1 Al6 3.1927(13) .
Ce1 Al4 3.2018(10) 1_554
Ce1 Al4 3.2018(10) .
Ce1 Al9 3.2848(2) 3
Co1 Al6 2.3269(13) .
Co1 Al8 2.4652(3) .
Co1 Al8 2.4652(3) 1_554
Co1 Al7 2.5360(14) 7_665
Co1 Al7 2.5350(14) 3_455
Co1 Al5 2.5669(9) 3_455
Co1 Al5 2.5669(9) 3_456
Co1 Al2 2.5700(9) .
Co1 Al2 2.5700(9) 1_554
Co1 Co1 2.8517(11) 5_565
Co2 Al9 2.3461(5) .
Co2 Al6 2.3537(13) .
Co2 Al7 2.4643(14) .
Co2 Al3 2.5205(9) .
Co2 Al3 2.5205(9) 1_554
Co2 Al4 2.5248(9) 7_654
Co2 Al4 2.5248(9) 7_655
Co2 Al1 2.6029(9) .
Co2 Al1 2.6029(9) 1_554
Al1 Co2 2.6029(9) 1_556
Al1 Al3 2.6918(19) .
Al1 Al4 2.6948(18) 7_655
Al1 Al9 2.7823(9) .
Al1 Al9 2.7823(9) 1_556
Al1 Al6 2.8001(12) 1_556
Al1 Al6 2.8001(12) .
Al1 Al5 2.8628(18) 3_456
Al1 Ce1 3.1453(10) 3_455
Al1 Ce1 3.1453(10) 3_456
Al2 Co1 2.5700(9) 1_556
Al2 Al8 2.6414(13) .
Al2 Al4 2.6829(19) .
Al2 Al5 2.7125(18) 3_456
Al2 Al6 2.8261(13) .
Al2 Al6 2.8261(13) 1_556
Al2 Ce1 3.1462(10) 1_556
Al3 Co2 2.5205(9) 1_556
Al3 Al5 2.703(2) .
Al3 Al4 2.7385(18) 7_655
Al3 Al6 2.9058(13) .
Al3 Al6 2.9058(13) 1_556
Al3 Ce1 3.1840(10) 1_556
Al4 Co2 2.5248(9) 7_666
Al4 Co2 2.5248(9) 7_665
Al4 Al1 2.6949(18) 7_665
Al4 Al3 2.7385(18) 7_665
Al4 Al9 2.9122(10) 3_556
Al4 Al9 2.9122(10) 3
Al4 Ce1 3.2019(10) 1_556
Al5 Co1 2.5670(9) 3
Al5 Co1 2.5670(9) 3_556
Al5 Al8 2.6482(12) 3_556
Al5 Al2 2.7126(18) 3_556
Al5 Al6 2.8592(13) 3_556
Al5 Al6 2.8592(13) 3
Al5 Al1 2.8627(18) 3_556
Al5 Ce1 3.1633(10) 1_556
Al6 Al1 2.8001(12) 1_554
Al6 Al2 2.8261(13) 1_554
Al6 Al5 2.8592(13) 3_455
Al6 Al5 2.8592(13) 3_456
Al6 Al3 2.9059(13) 1_554
Al6 Ce1 3.3465(13) 3_455
Al7 Co1 2.5360(14) 7_655
Al7 Co1 2.5350(14) 3
Al7 Al8 2.9051(9) 3_556
Al7 Al8 2.9051(9) 3
Al8 Co1 2.4652(3) 5_566
Al8 Co1 2.4652(3) 5_565
Al8 Co1 2.4652(3) 1_556
Al8 Al2 2.6414(13) 5_566
Al8 Al5 2.6481(12) 7_665
Al8 Al5 2.6481(12) 3_456
Al8 Al7 2.9051(9) 7_666
Al8 Al7 2.9051(9) 3_455
Al8 Al7 2.9051(9) 3_456
Al8 Al7 2.9051(9) 7_665
Al9 Co2 2.3462(5) 5
Al9 Al1 2.7823(9) 5
Al9 Al1 2.7823(9) 5_556
Al9 Al1 2.7823(9) 1_554
Al9 Al4 2.9123(10) 7_655
Al9 Al4 2.9123(10) 3_455
Al9 Al4 2.9123(10) 7_654
Al9 Al4 2.9123(10) 3_456
Al9 Ce1 3.2848(2) 7_655
Al9 Ce1 3.2848(2) 3_455
