#------------------------------------------------------------------------------
#$Date: 2015-06-04 06:32:09 +0300 (Thu, 04 Jun 2015) $
#$Revision: 137844 $
#$URL: svn://www.crystallography.net/cod/cif/4/51/31/4513149.cif $
#------------------------------------------------------------------------------
#
# This file is available in the Crystallography Open Database (COD),
# http://www.crystallography.net/
#
# All data on this site have been placed in the public domain by the
# contributors.
#
data_4513149
loop_
_publ_author_name
'Abrahams, Brendan F.'
'Elliott, Robert W.'
'Hudson, Timothy A.'
'Robson, Richard'
'Sutton, Ashley L.'
_publ_section_title
;
 New CuI2(TCNQ--II) and CuI2(F4TCNQ--II) Coordination Polymers
;
_journal_issue                   5
_journal_name_full               'Crystal Growth &amp; Design'
_journal_page_first              2437
_journal_paper_doi               10.1021/acs.cgd.5b00220
_journal_volume                  15
_journal_year                    2015
_chemical_formula_sum            'C26 H17 Cu2 F4 N7'
_chemical_formula_weight         630.55
_chemical_name_common            '[Cu2(F4TCNQ)(2-picoline)2].MeCN'
_space_group_crystal_system      triclinic
_space_group_IT_number           2
_space_group_name_Hall           '-P 1'
_space_group_name_H-M_alt        'P -1'
_symmetry_space_group_name_Hall  '-P 1'
_symmetry_space_group_name_H-M   'P -1'
_atom_sites_solution_hydrogens   geom
_audit_creation_method           SHELXL-2014/7
_cell_angle_alpha                65.132(7)
_cell_angle_beta                 84.915(5)
_cell_angle_gamma                67.579(6)
_cell_formula_units_Z            1
_cell_length_a                   7.5063(5)
_cell_length_b                   9.2925(7)
_cell_length_c                   10.7697(7)
_cell_measurement_reflns_used    2446
_cell_measurement_temperature    130(2)
_cell_measurement_theta_max      74.2800
_cell_measurement_theta_min      4.5381
_cell_volume                     627.73(9)
_computing_cell_refinement
;
CrysAlisPro, Agilent Technologies,
Version 1.171.36.20 (release 27-06-2012 CrysAlis171 .NET)
(compiled Jul 11 2012,15:38:31)
;
_computing_data_collection
;
CrysAlisPro, Agilent Technologies,
Version 1.171.36.20 (release 27-06-2012 CrysAlis171 .NET)
(compiled Jul 11 2012,15:38:31)
;
_computing_data_reduction
;
CrysAlisPro, Agilent Technologies,
Version 1.171.36.20 (release 27-06-2012 CrysAlis171 .NET)
(compiled Jul 11 2012,15:38:31)
;
_computing_structure_refinement  'SHELXL-2014/7 (Sheldrick, 2014)'
_computing_structure_solution    'SHELXS-97 (Sheldrick, 1997)'
_diffrn_ambient_temperature      130(2)
_diffrn_detector_area_resol_mean 10.2273
_diffrn_measured_fraction_theta_full 0.998
_diffrn_measured_fraction_theta_max 0.998
_diffrn_measurement_device_type  'SuperNova, Dual, Cu at zero, Atlas'
_diffrn_measurement_method       '\w scans'
_diffrn_radiation_monochromator  mirror
_diffrn_radiation_source         'SuperNova (Cu) X-ray Source'
_diffrn_radiation_type           CuK\a
_diffrn_radiation_wavelength     1.54184
_diffrn_reflns_av_R_equivalents  0.0198
_diffrn_reflns_av_unetI/netI     0.0253
_diffrn_reflns_laue_measured_fraction_full 0.998
_diffrn_reflns_laue_measured_fraction_max 0.998
_diffrn_reflns_limit_h_max       8
_diffrn_reflns_limit_h_min       -9
_diffrn_reflns_limit_k_max       11
_diffrn_reflns_limit_k_min       -10
_diffrn_reflns_limit_l_max       12
_diffrn_reflns_limit_l_min       -12
_diffrn_reflns_number            3930
_diffrn_reflns_point_group_measured_fraction_full 0.998
_diffrn_reflns_point_group_measured_fraction_max 0.998
_diffrn_reflns_theta_full        67.684
_diffrn_reflns_theta_max         67.961
_diffrn_reflns_theta_min         4.542
_exptl_absorpt_coefficient_mu    2.621
_exptl_absorpt_correction_T_max  0.949
_exptl_absorpt_correction_T_min  0.761
_exptl_absorpt_correction_type   gaussian
_exptl_absorpt_process_details
;
CrysAlisPro, Agilent Technologies,
Version 1.171.36.20 (release 27-06-2012 CrysAlis171 .NET)
(compiled Jul 11 2012,15:38:31)
Numerical absorption correction based on gaussian integration over
            a multifaceted crystal model
;
_exptl_crystal_colour            'Pale yellow'
_exptl_crystal_density_diffrn    1.668
_exptl_crystal_description       'Flat rod'
_exptl_crystal_F_000             316
_exptl_crystal_size_max          0.1986
_exptl_crystal_size_mid          0.0468
_exptl_crystal_size_min          0.0210
_platon_squeeze_details
;
The unit cell contains a highly disordered acetonitrile molecule.. This has 
been treated as a diffuse contribution to the overall 
scattering without specific atom positions by SQUEEZE/PLATON
;
_refine_diff_density_max         0.601
_refine_diff_density_min         -0.328
_refine_diff_density_rms         0.065
_refine_ls_extinction_method     none
_refine_ls_goodness_of_fit_ref   0.960
_refine_ls_hydrogen_treatment    constr
_refine_ls_matrix_type           full
_refine_ls_number_parameters     164
_refine_ls_number_reflns         2270
_refine_ls_number_restraints     0
_refine_ls_restrained_S_all      0.960
_refine_ls_R_factor_all          0.0340
_refine_ls_R_factor_gt           0.0300
_refine_ls_shift/su_max          0.000
_refine_ls_shift/su_mean         0.000
_refine_ls_structure_factor_coef Fsqd
_refine_ls_weighting_details
'w=1/[\s^2^(Fo^2^)+(0.0477P)^2^+0.4203P] where P=(Fo^2^+2Fc^2^)/3'
_refine_ls_weighting_scheme      calc
_refine_ls_wR_factor_gt          0.0774
_refine_ls_wR_factor_ref         0.0791
_reflns_Friedel_coverage         0.000
_reflns_number_gt                2079
_reflns_number_total             2270
_reflns_threshold_expression     'I > 2\s(I)'
_cod_data_source_file            cg5b00220_si_002.cif
_cod_data_source_block           F42picoline
_cod_database_code               4513149
_shelx_shelxl_version_number     2014/7
_shelx_space_group_comment
;
The symmetry employed for this shelxl refinement is uniquely defined
by the following loop, which should always be used as a source of
symmetry information in preference to the above space-group names.
They are only intended as comments.
;
_shelx_res_file
;

    shelx.res created by SHELXL-2014/7

TITL rweC93b in P-1
CELL  1.54184   7.5063   9.2925  10.7697   65.132   84.915   67.579
ZERR     1.00   0.0005   0.0007   0.0007    0.007    0.005    0.006
LATT   1
SFAC  C    N    F    CU   H
UNIT  26   7    4    2    17
MERG   2
OMIT     0.00 136.00
FMAP   2
PLAN   20
ACTA
BOND
L.S.  32
TEMP  -143.00
conf c1 c3 c4 c5
conf c2 c3 c4 c6
list 4
omit     6  -2   5
omit     7   0   5
omit     5  -3   5

WGHT    0.047700    0.420300
FVAR      20.17856
MOLE    1
CU1   4    0.157478    0.319341    0.080740    11.00000    0.02296    0.03443 =
         0.02834   -0.01995    0.00300   -0.01275
F2    3   -0.774314    0.462775    0.384497    11.00000    0.02230    0.05847 =
         0.03646   -0.03333    0.00581   -0.02061
F1    3   -0.141283    0.444625    0.414041    11.00000    0.02061    0.06000 =
         0.03586   -0.03303    0.00942   -0.01957
C8    1    0.102360    0.158500   -0.222269    11.00000    0.03769    0.03963 =
         0.03724   -0.02478    0.00120   -0.01564
AFIX  43
H8    5    0.045704    0.215853   -0.314165    11.00000   -1.20000
AFIX   0
N3    2    0.182412    0.174912   -0.018974    11.00000    0.02192    0.02848 =
         0.03103   -0.01733    0.00337   -0.01060
N1    2   -0.096079    0.384149    0.149402    11.00000    0.02514    0.04043 =
         0.03283   -0.02667    0.00779   -0.01632
C6    1   -0.632783    0.479822    0.439857    11.00000    0.02127    0.02885 =
         0.02489   -0.01440   -0.00088   -0.01169

N2    2   -0.647912    0.357629    0.150043    11.00000    0.02334    0.04276 =
         0.03148   -0.02524    0.00477   -0.01321
C1    1   -0.236386    0.396126    0.204757    11.00000    0.02712    0.02521 =
         0.02499   -0.01567   -0.00068   -0.01120
C3    1   -0.410632    0.410091    0.266114    11.00000    0.02117    0.02742 =
         0.02475   -0.01519    0.00126   -0.00960
C7    1    0.101981    0.250224   -0.148838    11.00000    0.02893    0.02857 =
         0.03318   -0.01831    0.00151   -0.01092
AFIX  43
H7    5    0.042279    0.371816   -0.192001    11.00000   -1.20000
AFIX   0
C2    1   -0.542472    0.381754    0.203361    11.00000    0.02236    0.02860 =
         0.02403   -0.01536    0.00356   -0.00845
C9    1    0.187196   -0.018659   -0.158662    11.00000    0.04052    0.03894 =
         0.05319   -0.03289    0.00696   -0.01679
AFIX  43
H9    5    0.188783   -0.085221   -0.206082    11.00000   -1.20000
AFIX   0
C4    1   -0.454051    0.451224    0.384809    11.00000    0.02217    0.02258 =
         0.02170   -0.01116   -0.00007   -0.00903
C5    1   -0.322177    0.472019    0.453494    11.00000    0.01841    0.02919 =
         0.02452   -0.01410    0.00290   -0.00987
C10   1    0.269320   -0.097287   -0.025716    11.00000    0.03577    0.02807 =
         0.05136   -0.02139    0.00906   -0.01221
AFIX  43
H10   5    0.328145   -0.218823    0.019270    11.00000   -1.20000
AFIX   0
C11   1    0.265866    0.002144    0.042750    11.00000    0.02557    0.03017 =
         0.03570   -0.01545    0.00637   -0.01272
C12   1    0.352322   -0.077226    0.187251    11.00000    0.03781    0.03544 =
         0.03860   -0.00917   -0.00061   -0.01238
AFIX 137
H12A  5    0.427494   -0.014774    0.194924    11.00000   -1.50000
H12B  5    0.437301   -0.197361    0.212143    11.00000   -1.50000
H12C  5    0.248839   -0.071567    0.249398    11.00000   -1.50000
AFIX   0
HKLF    4

REM  rweC93b in P-1
REM R1 =  0.0300 for    2079 Fo > 4sig(Fo)  and  0.0340 for all    2270 data
REM    164 parameters refined using      0 restraints

END

WGHT      0.0528      0.1624

REM Highest difference peak  0.601,  deepest hole -0.328,  1-sigma level  0.065
Q1    1   0.0258  0.3262  0.1189  11.00000  0.05    0.60
Q2    1   0.2184  0.1894  0.1519  11.00000  0.05    0.49
Q3    1   0.2811  0.3187  0.0465  11.00000  0.05    0.46
Q4    1   0.1008  0.4397  0.0255  11.00000  0.05    0.44
Q5    1  -0.3918  0.4562  0.4119  11.00000  0.05    0.37
Q6    1  -0.4348  0.4423  0.3245  11.00000  0.05    0.33
Q7    1  -0.3329  0.4057  0.2469  11.00000  0.05    0.30
Q8    1  -0.5308  0.4797  0.4029  11.00000  0.05    0.29
Q9    1  -0.6655  0.2633  0.1568  11.00000  0.05    0.28
Q10   1  -0.1873  0.3696  0.1616  11.00000  0.05    0.25
Q11   1  -0.6474  0.4963  0.4953  11.00000  0.05    0.25
Q12   1  -0.1488  0.3997  0.1971  11.00000  0.05    0.24
Q13   1  -0.6590  0.5428  0.4653  11.00000  0.05    0.24
Q14   1  -0.8235  0.5803  0.3352  11.00000  0.05    0.23
Q15   1   0.2296  0.1044  0.0066  11.00000  0.05    0.23
Q16   1   0.2328  0.2045  0.0214  11.00000  0.05    0.23
Q17   1   0.1705  0.0635 -0.1843  11.00000  0.05    0.22
Q18   1   0.1452  0.1961 -0.0712  11.00000  0.05    0.22
Q19   1  -0.2826  0.4568  0.4411  11.00000  0.05    0.22
Q20   1   0.2633 -0.0503  0.0173  11.00000  0.05    0.22
;
_shelx_res_checksum              69521
_shelx_hkl_file
;
   0   0  -1 1935025    5502                                                      860656  -23.07    0.00  1.0000
   0   0  -2  156861    6692                                                      602856   18.94    0.00  1.0000
   0   0  -3  375392    9583                                                      801972  -14.08    0.00  1.0000
   0   0  -3  359946    5897                                                      779322  -14.08    0.00  1.0000
   0   0  -4  307480    4435                                                      126446    9.90    0.00  1.0000
   0   0   4  306882    5193                                                      126063    9.90    0.00  1.0000
   0   0  -5  272796    5307                                                      148330   -6.83    0.00  1.0000
   0   0   5  257320    6316                                                      136978   -6.83    0.00  1.0000
   0   0   6  231454    7296                                                      150012    4.67    0.00  1.0000
   0   0   7   32589    5241                                                       60006   -3.21    0.00  1.0000
   0   0   8   58002    4452                                                       37669    2.33    0.00  1.0000
   0   0   8   55046    2156                                                       35295    2.33    0.00  1.0000
   0   0  -9   22110    2523                                                       34345   -1.82    0.00  1.0000
   0   0   9   21990    2152                                                       34195   -1.82    0.00  1.0000
   0   0 -10    2842    1147                                                        6636    1.40    0.00  1.0000
   0   0 -10    2972    1116                                                        6835    1.40    0.00  1.0000
   0   0 -11   17431    1214                                                       12997   -0.90    0.00  1.0000
   0   0 -11   17803    1128                                                       13318   -0.90    0.00  1.0000
   0   1 -11   38894    1726                                                       43011   -0.51    0.00  1.0000
   0   1 -10   74036    2699                                                       63888    0.96    0.00  1.0000
   0   1 -10   66820    2474                                                       57197    0.96    0.00  1.0000
   0   1  -9   47387    2964                                                       60888   -1.45    0.00  1.0000
   0   1  -8   18181    1297                                                        9071    1.97    0.00  1.0000
   0  -1   8   21098    1284                                                       11164    1.97    0.00  1.0000
   0   1  -8   21700    1418                                                       11603    1.97    0.00  1.0000
   0   1  -7   31044    2840                                                       53070   -2.70    0.00  1.0000
   0   1  -7   30827    2775                                                       52788   -2.70    0.00  1.0000
   0   1  -7   35270    2914                                                       58555   -2.70    0.00  1.0000
   0  -1   6  286174   11459                                                      374781    3.85    0.00  1.0000
   0  -1   5   49138    2049                                                       11987   -5.59    0.00  1.0000
   0   1  -5   52074    2111                                                       13459   -5.59    0.00  1.0000
   0   1  -4 1089921   18196                                                     1454460    8.07    0.00  1.0000
   0  -1   4 1085350   17618                                                     1449180    8.07    0.00  1.0000
   0   1  -3 1339703   12394                                                      860839  -11.43    0.00  1.0000
   0  -1   3 1291049   11101                                                      821928  -11.43    0.00  1.0000
   0  -1   2  181272    7393                                                      544680   15.55    0.00  1.0000
   0  -1   1 3389755   10126                                                     2096840  -19.57    0.00  1.0000
   0   1   0 2546642    9191                                                     1328820   22.06    0.00  1.0000
   0   1   1  123847     765                                                        7519  -21.84    0.00  1.0000
   0   1   2  591133    3762                                                      150572   18.96    0.00  1.0000
   0  -1  -3  576929    6378                                                     1113290  -14.72    0.00  1.0000
   0  -1  -4  205249    4948                                                      444207   10.63    0.00  1.0000
   0  -1  -5  109829    4278                                                      231727   -7.47    0.00  1.0000
   0   1   6  470457   14765                                                      624824    5.21    0.00  1.0000
   0   1   7   93524    4976                                                       54464   -3.61    0.00  1.0000
   0   1   8   83646    7784                                                      116466    2.59    0.00  1.0000
   0   1   8   84179    3799                                                      117094    2.59    0.00  1.0000
   0   1   9  180428    4437                                                      146688   -2.08    0.00  1.0000
   0  -1  -9  187996    4406                                                      153520   -2.08    0.00  1.0000
   0  -1 -10   55826    3001                                                       74053    1.78    0.00  1.0000
   0  -1 -10   59448    3812                                                       78217    1.78    0.00  1.0000
   0  -1 -11      31     557                                                         493   -1.38    0.00  1.0000
   0  -1 -11     771     428                                                        -250   -1.38    0.00  1.0000
   0  -1 -12     716     550                                                        1850    0.81    0.00  1.0000
   0   2 -10    7891    1041                                                       10222    0.61    0.00  1.0000
   0   2  -9   24504    1635                                                       18267   -1.06    0.00  1.0000
   0   2  -8   19694    2155                                                       29534    1.57    0.00  1.0000
   0   2  -8   19393    1938                                                       29165    1.57    0.00  1.0000
   0   2  -7  107471    3546                                                       81053   -2.15    0.00  1.0000
   0   2  -7  117685    3472                                                       89954   -2.15    0.00  1.0000
   0   2  -7  108143    3550                                                       81637   -2.15    0.00  1.0000
   0   2  -6    5956     542                                                         333    2.93    0.00  1.0000
   0   2  -6    8925     518                                                        1263    2.93    0.00  1.0000
   0   2  -5  136549    5475                                                       82303   -4.11    0.00  1.0000
   0   2  -4    8430    3809                                                       43667    5.83    0.00  1.0000
   0  -2   4   10347    3233                                                       47905    5.83    0.00  1.0000
   0   2  -3  305780    9117                                                      513564   -8.15    0.00  1.0000
   0   2  -3  302520   11596                                                      509337   -8.15    0.00  1.0000
   0  -2   3  306089    9061                                                      513965   -8.15    0.00  1.0000
   0   2  -2  460924    5691                                                      210379   10.97    0.00  1.0000
   0  -2   2  455162    4750                                                      206492   10.97    0.00  1.0000
   0   2  -1 8315388   37320                                                     9999990  -13.87    0.00  1.0000
   0   2   0  428131   11334                                                      954692   16.07    0.00  1.0000
   0   2   1  318260    2730                                                       52447  -16.69    0.00  1.0000
   0   2   2  738933   14033                                                     1366070   15.39    0.00  1.0000
   0  -2  -3  511522    2761                                                      210948  -12.74    0.00  1.0000
   0   2   3  484611    5845                                                      193797  -12.74    0.00  1.0000
   0  -2  -4  129135    1223                                                       26622    9.77    0.00  1.0000
   0   2   4  132301    2426                                                       28070    9.77    0.00  1.0000
   0  -2  -5 1395706    8603                                                     1072930   -7.25    0.00  1.0000
   0  -2  -6   96202    4059                                                      174311    5.34    0.00  1.0000
   0   2   7   23147    1848                                                        5447   -3.90    0.00  1.0000
   0   2   8    3280    1441                                                       -2361    2.85    0.00  1.0000
   0   2   8    8887     559                                                        1369    2.85    0.00  1.0000
   0   2   9  171107    5370                                                      210248   -2.23    0.00  1.0000
   0   2  10   86013    2988                                                       64729    1.93    0.00  1.0000
   0  -2 -11   23713    2497                                                       35046   -1.65    0.00  1.0000
   0  -2 -12   72318    2653                                                       60116    1.18    0.00  1.0000
   0   3 -10    4119     566                                                        4880    0.28    0.00  1.0000
   0   3  -9       2     492                                                         209   -0.65    0.00  1.0000
   0   3  -8     323     733                                                        1626    1.11    0.00  1.0000
   0   3  -7   76107    3821                                                       94922   -1.60    0.00  1.0000
   0   3  -7   77059    3904                                                       95986   -1.60    0.00  1.0000
   0   3  -6   16807    1176                                                        7497    2.14    0.00  1.0000
   0   3  -6   14689    1085                                                        6106    2.14    0.00  1.0000
   0   3  -5  273384    6660                                                      336555   -2.85    0.00  1.0000
   0   3  -5  293907    6979                                                      359285   -2.85    0.00  1.0000
   0   3  -5  298375   12827                                                      364223   -2.85    0.00  1.0000
   0   3  -4  409987   11443                                                      316502    3.87    0.00  1.0000
   0   3  -3   22459    3848                                                       65289   -5.26    0.00  1.0000
   0   3  -3   21758    5004                                                       64089   -5.26    0.00  1.0000
   0   3  -2   88512    2428                                                       24923    6.95    0.00  1.0000
   0   3  -1 3816587   26323                                                     3163150   -8.72    0.00  1.0000
   0   3   0  220489    9827                                                      454027   10.17    0.00  1.0000
   0   3   1  342288    5455                                                      134580  -10.86    0.00  1.0000
   0   3   2   15983    5051                                                      114265   10.54    0.00  1.0000
   0  -3  -3  873259    7095                                                     1258280   -9.32    0.00  1.0000
   0   3   3  875392   17386                                                     1260840   -9.32    0.00  1.0000
   0  -3  -4   35544    2535                                                      117956    7.71    0.00  1.0000
   0   3   4   34147    5587                                                      115400    7.71    0.00  1.0000
   0   3   5  719640   16542                                                      946338   -6.20    0.00  1.0000
   0  -3  -5  688061    7937                                                      910074   -6.20    0.00  1.0000
   0  -3  -6   85404    1876                                                       37009    4.97    0.00  1.0000
   0  -3  -7  230927    5985                                                      313921   -3.97    0.00  1.0000
   0   3   7  231043   11803                                                      314056   -3.97    0.00  1.0000
   0   3   8  690484    8689                                                      590322    3.12    0.00  1.0000
   0   3   8  706425   17784                                                      605069    3.12    0.00  1.0000
   0  -3  -8  711367    9273                                                      609643    3.12    0.00  1.0000
   0   3   9  186754    5763                                                      231752   -2.45    0.00  1.0000
   0  -3  -9  195962    6156                                                      241997   -2.45    0.00  1.0000
   0   3   9  186373   11589                                                      231328   -2.45    0.00  1.0000
   0   3  10   16805    1140                                                        8021    2.00    0.00  1.0000
   0   3  11    3506     490                                                         693   -1.64    0.00  1.0000
   0  -3 -12  102463    3970                                                      118829    1.23    0.00  1.0000
   0  -3 -13   26027    1257                                                       21476   -0.74    0.00  1.0000
   0   4  -9    8321     738                                                        9164   -0.22    0.00  1.0000
   0   4  -8   20137    1348                                                       16963    0.58    0.00  1.0000
   0   4  -7    9046     994                                                        5595   -1.01    0.00  1.0000
   0   4  -7    7616     912                                                        4484   -1.01    0.00  1.0000
   0   4  -6     854     603                                                        -473    1.45    0.00  1.0000
   0   4  -6      31     769                                                         558    1.45    0.00  1.0000
   0   4  -5   24620    1524                                                       13942   -1.93    0.00  1.0000
   0   4  -5   24600    1611                                                       13927   -1.93    0.00  1.0000
   0   4  -4  192594    5653                                                      239546    2.52    0.00  1.0000
   0   4  -4  198175   11227                                                      245766    2.52    0.00  1.0000
   0   4  -4  213545    6096                                                      262850    2.52    0.00  1.0000
   0   4  -3  170196    7617                                                      120521   -3.26    0.00  1.0000
   0   4  -2 1268555   21141                                                     1462130    4.13    0.00  1.0000
   0   4  -1  214961    9887                                                      319319   -5.05    0.00  1.0000
   0   4   0   33490    1408                                                        4204    5.88    0.00  1.0000
   0   4   1  274370   11376                                                      426312   -6.43    0.00  1.0000
   0   4   2  572986   11018                                                      391861    6.52    0.00  1.0000
   0   4   3   11007    4323                                                       52165   -6.15    0.00  1.0000
   0  -4  -4 1934768    9679                                                     1640210    5.49    0.00  1.0000
   0   4   4 1957298   23985                                                     1660960    5.49    0.00  1.0000
   0   4   5  115062    8599                                                      189559   -4.79    0.00  1.0000
   0  -4  -5  129551    3856                                                      208034   -4.79    0.00  1.0000
   0  -4  -6   12747     474                                                         836    4.18    0.00  1.0000
   0  -4  -7   11487     548                                                        1141   -3.65    0.00  1.0000
   0   4   7    5388    1287                                                       -2188   -3.65    0.00  1.0000
   0   4   8  223841    6298                                                      287490    3.14    0.00  1.0000
   0  -4  -8  222320    6197                                                      285766    3.14    0.00  1.0000
   0   4   9   15590    2123                                                        5236   -2.61    0.00  1.0000
   0  -4  -9   17248    1144                                                        6215   -2.61    0.00  1.0000
   0   4   9   15866    1027                                                        5397   -2.61    0.00  1.0000
   0   4  10    1854    1115                                                        7232    2.09    0.00  1.0000
   0  -4 -10    1668    1136                                                        6859    2.09    0.00  1.0000
   0   4  11   41155    1944                                                       29327   -1.57    0.00  1.0000
   0  -4 -12     458     592                                                         -34    1.07    0.00  1.0000
   0  -4 -13    5626     845                                                        7570   -0.60    0.00  1.0000
   0   5  -7    4962     681                                                        3750   -0.46    0.00  1.0000
   0   5  -7    5125     664                                                        3892   -0.46    0.00  1.0000
   0   5  -6   67432    2997                                                       76229    0.82    0.00  1.0000
   0   5  -6   64181    3176                                                       72770    0.82    0.00  1.0000
   0   5  -5   80906    3188                                                       67771   -1.20    0.00  1.0000
   0   5  -5   87018    3472                                                       73374   -1.20    0.00  1.0000
   0   5  -4     294     528                                                         232    1.61    0.00  1.0000
   0   5  -4      47     662                                                         650    1.61    0.00  1.0000
   0   5  -3    8236    3480                                                       17330   -2.04    0.00  1.0000
   0   5  -3    7961    1672                                                       16930   -2.04    0.00  1.0000
   0   5  -3    6429    1682                                                       14660   -2.04    0.00  1.0000
   0   5  -2  951607   21346                                                      858700    2.43    0.00  1.0000
   0   5  -2 1006107   11206                                                      910509    2.43    0.00  1.0000
   0   5  -1   12222    3336                                                       27687   -2.78    0.00  1.0000
   0   5   0   14465    1144                                                        3342    3.11    0.00  1.0000
   0   5   1      11    1605                                                        5207   -3.43    0.00  1.0000
   0   5   2  134745    8931                                                      194286    3.67    0.00  1.0000
   0   5   3   47285    6093                                                       85631   -3.74    0.00  1.0000
   0   5   4  540311   17167                                                      653296    3.64    0.00  1.0000
   0  -5  -5   78159    1821                                                       44121   -3.46    0.00  1.0000
   0   5   5   70381    4592                                                       38328   -3.46    0.00  1.0000
   0   5   6  121848    9261                                                      171953    3.27    0.00  1.0000
   0  -5  -6  129310    3996                                                      180796    3.27    0.00  1.0000
   0   5   7  330380    5949                                                      263572   -3.06    0.00  1.0000
   0   5   7  311077   10239                                                      246362   -3.06    0.00  1.0000
   0  -5  -7  330846    5261                                                      263988   -3.06    0.00  1.0000
   0   5   8      11    1492                                                        3516    2.79    0.00  1.0000
   0   5   8      14     831                                                        2733    2.79    0.00  1.0000
   0  -5  -8       0     776                                                        3092    2.79    0.00  1.0000
   0   5   9   40243    3169                                                       62294   -2.44    0.00  1.0000
   0  -5 -10  113208    3844                                                       87745    2.00    0.00  1.0000
   0   5  10  107305    3545                                                       82558    2.00    0.00  1.0000
   0   5  11  276424    6152                                                      308748   -1.49    0.00  1.0000
   0  -5 -11  283510    6380                                                      316234   -1.49    0.00  1.0000
   0   5  12   60589    2044                                                       51730    0.93    0.00  1.0000
   0  -5 -13   51861    2033                                                       55878   -0.43    0.00  1.0000
   0   6  -6   22414    1046                                                       20315    0.36    0.00  1.0000
   0   6  -6   25612    1405                                                       23365    0.36    0.00  1.0000
   0   6  -5   84720    3081                                                       92140   -0.62    0.00  1.0000
   0   6  -5   89655    3469                                                       97283   -0.62    0.00  1.0000
   0   6  -4   26100    1722                                                       20508    0.91    0.00  1.0000
   0   6  -4   27655    1980                                                       21889    0.91    0.00  1.0000
   0   6  -3   80203    4056                                                       94566   -1.21    0.00  1.0000
   0   6  -3   81515    3780                                                       95989   -1.21    0.00  1.0000
   0   6  -2  234267    6200                                                      263196    1.44    0.00  1.0000
   0   6  -2  250535    6889                                                      280423    1.44    0.00  1.0000
   0   6  -1   52397    4842                                                       39085   -1.55    0.00  1.0000
   0   6   0  106127    7927                                                      127677    1.57    0.00  1.0000
   0   6   0  107381    4019                                                      129052    1.57    0.00  1.0000
   0   6   1  175060    8727                                                      149009   -1.61    0.00  1.0000
   0   6   1  175698    4341                                                      149598   -1.61    0.00  1.0000
   0   6   2   17854    3971                                                       28511    1.75    0.00  1.0000
   0   6   3  561758   16436                                                      504369   -1.96    0.00  1.0000
   0   6   4    8920    3399                                                       18886    2.14    0.00  1.0000
   0   6   5      20    1457                                                        1696   -2.27    0.00  1.0000
   0   6   5      26     586                                                        1645   -2.27    0.00  1.0000
   0   6   6   54311    4649                                                       34452    2.36    0.00  1.0000
   0   6   6   55384    2278                                                       35308    2.36    0.00  1.0000
   0   6   7  414396    8576                                                      478108   -2.38    0.00  1.0000
   0   6   8  101743    3514                                                       74906    2.25    0.00  1.0000
   0   6   9   34666    2961                                                       51110   -1.99    0.00  1.0000
   0  -6 -10   37490    2172                                                       25950    1.62    0.00  1.0000
   0   6  10   33543    1932                                                       22684    1.62    0.00  1.0000
   0   6  11   30600    1684                                                       22725   -1.20    0.00  1.0000
   0  -6 -11   30562    1744                                                       22693   -1.20    0.00  1.0000
   0   6  12   40178    1870                                                       46531    0.76    0.00  1.0000
   0   7  -5      30     306                                                         -21   -0.27    0.00  1.0000
   0   7  -4    9573     964                                                       11386    0.44    0.00  1.0000
   0   7  -4    9774    1228                                                       11606    0.44    0.00  1.0000
   0   7  -3  257618    5853                                                      244959   -0.63    0.00  1.0000
   0   7  -3  241592    5080                                                      229338   -0.63    0.00  1.0000
   0   7  -2    3842    1055                                                        6098    0.80    0.00  1.0000
   0   7  -2    3747    1196                                                        5980    0.80    0.00  1.0000
   0   7  -1   12964    1439                                                        9168   -0.90    0.00  1.0000
   0   7   0    2278     902                                                        4314    0.89    0.00  1.0000
   0   7   1   26643    2276                                                       32389   -0.83    0.00  1.0000
   0   7   2    5168    1727                                                        3054    0.83    0.00  1.0000
   0   7   2    1370     610                                                         416    0.83    0.00  1.0000
   0   7   3  345119   15204                                                      367430   -0.93    0.00  1.0000
   0   7   3  343198    7598                                                      365448   -0.93    0.00  1.0000
   0   7   4   32359    2045                                                       24831    1.11    0.00  1.0000
   0   7   4   35912    4421                                                       27955    1.11    0.00  1.0000
   0   7   5    5949    3011                                                       10735   -1.32    0.00  1.0000
   0   7   5    7949    1584                                                       13371   -1.32    0.00  1.0000
   0   7   6   13817    1189                                                        7552    1.53    0.00  1.0000
   0   7   7   45182    2405                                                       31953   -1.68    0.00  1.0000
   0   7   8   53634    3512                                                       70569    1.70    0.00  1.0000
   0   7   9   79804    3237                                                       63645   -1.50    0.00  1.0000
   0  -7 -10  253116    6559                                                      277203    1.16    0.00  1.0000
   0   7  10  242163    6079                                                      265735    1.16    0.00  1.0000
   0   7  11   44218    2006                                                       37744   -0.80    0.00  1.0000
   0  -7 -11   40220    2002                                                       34057   -0.80    0.00  1.0000
   0  -7 -12   32941    1550                                                       36490    0.47    0.00  1.0000
   0   7  12   41141    1679                                                       45096    0.47    0.00  1.0000
   0   8  -3   92796    2762                                                       96473   -0.30    0.00  1.0000
   0   8  -2    3854     564                                                        2880    0.42    0.00  1.0000
   0   8  -2    4945     890                                                        3832    0.42    0.00  1.0000
   0   8  -1   10560    1448                                                       12819   -0.52    0.00  1.0000
   0   8  -1   10045    1216                                                       12251   -0.52    0.00  1.0000
   0   8   0   21295    1826                                                       18045    0.58    0.00  1.0000
   0   8   1    3703     938                                                        5272   -0.59    0.00  1.0000
   0   8   2   83043    3469                                                       76471    0.58    0.00  1.0000
   0   8   3   12008    1322                                                        9485   -0.61    0.00  1.0000
   0   8   4   29904    2469                                                       34846    0.68    0.00  1.0000
   0   8   5  133468    4666                                                      121992   -0.80    0.00  1.0000
   0   8   6  305851    7508                                                      327119    0.94    0.00  1.0000
   0   8   7   63494    3029                                                       53003   -1.08    0.00  1.0000
   0   8   8    1667    1039                                                        4087    1.15    0.00  1.0000
   0   8   9    1700     650                                                         402   -1.05    0.00  1.0000
   0   8  10   72756    2771                                                       64415    0.79    0.00  1.0000
   0   8  11   42426    1962                                                       46426   -0.47    0.00  1.0000
   0  -8 -11   39691    2002                                                       43563   -0.47    0.00  1.0000
   0   9  -1     757     375                                                         462   -0.30    0.00  1.0000
   0   9   0    6290     742                                                        7495    0.36    0.00  1.0000
   0   9   0    8184    1070                                                        9550    0.36    0.00  1.0000
   0   9   1    8827    1115                                                        7387   -0.40    0.00  1.0000
   0   9   1    6857     768                                                        5595   -0.40    0.00  1.0000
   0   9   2  146174    4152                                                      152814    0.43    0.00  1.0000
   0   9   3   31463    1967                                                       28264   -0.46    0.00  1.0000
   0   9   4    8885    1351                                                       10893    0.50    0.00  1.0000
   0   9   5     124     534                                                        -147   -0.55    0.00  1.0000
   0   9   6   45285    2564                                                       40198    0.61    0.00  1.0000
   0   9   7   70646    3435                                                       78014   -0.67    0.00  1.0000
   0   9   8   61654    2776                                                       54881    0.70    0.00  1.0000
   0   9   9  136545    4110                                                      146122   -0.63    0.00  1.0000
   0   9  10    3632     589                                                        2602    0.46    0.00  1.0000
   0  -9 -10    3360     617                                                        2373    0.46    0.00  1.0000
   0  10   1    4142     486                                                        3610   -0.21    0.00  1.0000
   0  10   2   15238    1065                                                       14195    0.21    0.00  1.0000
   0  10   3    3419     565                                                        3968   -0.23    0.00  1.0000
   0  10   3    2202     592                                                        2647   -0.23    0.00  1.0000
   0  10   3    3166     494                                                        3695   -0.23    0.00  1.0000
   0  10   4    9851     914                                                        8881    0.25    0.00  1.0000
   0  10   5   34071    1855                                                       36188   -0.28    0.00  1.0000
   0  10   6    9633     977                                                        8420    0.32    0.00  1.0000
   0  10   7     107     416                                                         307   -0.36    0.00  1.0000
   0  10   8    3090     559                                                        2321    0.37    0.00  1.0000
   0  10   9   33054    1429                                                       30778   -0.32    0.00  1.0000
  -1  10   6   23617    1120                                                       22090    0.25    0.00  1.0000
  -1  10   5   39422    1570                                                       41597   -0.27    0.00  1.0000
  -1  10   4    8573     706                                                        7676    0.25    0.00  1.0000
  -1   9  10    6979     660                                                        6387    0.18    0.00  1.0000
  -1   9   9   26559    1603                                                       28492   -0.29    0.00  1.0000
  -1   9   8   61166    2466                                                       57390    0.39    0.00  1.0000
  -1   9   7    1305     552                                                         729   -0.45    0.00  1.0000
  -1   9   6    6048    1020                                                        7715    0.50    0.00  1.0000
  -1   9   5   41864    2090                                                       37591   -0.53    0.00  1.0000
  -1   9   4   20414    1569                                                       23670    0.55    0.00  1.0000
  -1   9   3   27444    1742                                                       24094   -0.52    0.00  1.0000
  -1   9   3   26616    1379                                                       23319   -0.52    0.00  1.0000
  -1   9   2   18676    1545                                                       21188    0.44    0.00  1.0000
  -1   9   1   12936    1108                                                       11465   -0.33    0.00  1.0000
  -1   9   0     760     414                                                        1029    0.22    0.00  1.0000
  -1   8  11     516     308                                                         386   -0.15    0.00  1.0000
  -1   8  10   15120    1322                                                       16680    0.31    0.00  1.0000
   1  -8 -10   12228    1125                                                       13636    0.31    0.00  1.0000
  -1   8   9   20141    1537                                                       17317   -0.51    0.00  1.0000
  -1   8   8  101554    4008                                                      110629    0.69    0.00  1.0000
  -1   8   7   53256    2738                                                       46354   -0.77    0.00  1.0000
  -1   8   6  173554    5435                                                      186257    0.75    0.00  1.0000
  -1   8   5   79475    3384                                                       71848   -0.69    0.00  1.0000
  -1   8   4    9058    1434                                                       11777    0.66    0.00  1.0000
  -1   8   3   26741    2090                                                       31296   -0.67    0.00  1.0000
  -1   8   2   38030    2012                                                       33081    0.65    0.00  1.0000
  -1   8   1   30609    2338                                                       34949   -0.60    0.00  1.0000
  -1   8   0   28697    1991                                                       25360    0.51    0.00  1.0000
  -1   8  -1    1012     640                                                        1615   -0.42    0.00  1.0000
  -1   8  -2    6267     906                                                        7467    0.36    0.00  1.0000
  -1   8  -3   16048     878                                                       14481   -0.32    0.00  1.0000
  -1   7  12   16774    1020                                                       17705    0.18    0.00  1.0000
  -1   7  11   73804    2613                                                       70702   -0.29    0.00  1.0000
   1  -7 -10   92183    3290                                                       97255    0.41    0.00  1.0000
  -1   7  10   97240    3674                                                      102447    0.41    0.00  1.0000
  -1   7   9   87587    3551                                                       80563   -0.60    0.00  1.0000
  -1   7   8   17608    1581                                                       13417    0.84    0.00  1.0000
  -1   7   7   35263    2732                                                       43205   -1.00    0.00  1.0000
  -1   7   6   63472    2637                                                       53762    1.00    0.00  1.0000
  -1   7   6   60394    2983                                                       50933    1.00    0.00  1.0000
  -1   7   5     106     521                                                         791   -0.89    0.00  1.0000
  -1   7   5     134     651                                                         865   -0.89    0.00  1.0000
  -1   7   4      18     571                                                         397    0.78    0.00  1.0000
  -1   7   4     126     564                                                         726    0.78    0.00  1.0000
  -1   7   3       0     586                                                         221   -0.75    0.00  1.0000
  -1   7   3     150     491                                                         741   -0.75    0.00  1.0000
  -1   7   2    1153     441                                                         357    0.75    0.00  1.0000
  -1   7   2    2299     548                                                        1082    0.75    0.00  1.0000
  -1   7   1   12750    1163                                                        9584   -0.75    0.00  1.0000
  -1   7   0  206207    6150                                                      219672    0.73    0.00  1.0000
  -1   7  -1  211205    5816                                                      198508   -0.70    0.00  1.0000
  -1   7  -2   66084    3378                                                       73205    0.67    0.00  1.0000
  -1   7  -3     160     613                                                        -166   -0.63    0.00  1.0000
  -1   7  -4       4     412                                                         163    0.53    0.00  1.0000
  -1   6  12      27     320                                                          86    0.20    0.00  1.0000
  -1   6  11   15728    1482                                                       17642   -0.37    0.00  1.0000
  -1   6  10   18519    1643                                                       15970    0.48    0.00  1.0000
  -1   6   9  114383    4558                                                      122623   -0.60    0.00  1.0000
  -1   6   8   34389    2302                                                       28866    0.77    0.00  1.0000
  -1   6   7   61284    3504                                                       71411   -0.98    0.00  1.0000
  -1   6   6    1912     939                                                        4341    1.10    0.00  1.0000
  -1   6   5  114370    8106                                                       99798   -1.11    0.00  1.0000
  -1   6   5  116868    3864                                                      102132   -1.11    0.00  1.0000
  -1   6   4  482594   17907                                                      513117    1.08    0.00  1.0000
  -1   6   4  463365    8288                                                      493283    1.08    0.00  1.0000
  -1   6   3  378276    6433                                                      351950   -1.08    0.00  1.0000
  -1   6   3  371704   14438                                                      345612   -1.08    0.00  1.0000
  -1   6   3  359964    6154                                                      334295   -1.08    0.00  1.0000
  -1   6   3  372068    6891                                                      345963   -1.08    0.00  1.0000
  -1   6   2  174457   10544                                                      193631    1.11    0.00  1.0000
  -1   6   2  161916    9245                                                      180406    1.11    0.00  1.0000
  -1   6   2  174488    4947                                                      193664    1.11    0.00  1.0000
  -1   6   2  176836    4879                                                      196137    1.11    0.00  1.0000
  -1   6   2  182382    5126                                                      201976    1.11    0.00  1.0000
  -1   6   1  112868    3721                                                       98555   -1.10    0.00  1.0000
  -1   6   1  112199    3579                                                       97929   -1.10    0.00  1.0000
  -1   6   1  105696    6991                                                       91860   -1.10    0.00  1.0000
  -1   6   1  109665    3443                                                       95564   -1.10    0.00  1.0000
  -1   6   1  104449    6980                                                       90698   -1.10    0.00  1.0000
  -1   6   0     943     834                                                        2638    1.03    0.00  1.0000
  -1   6   0     512    1521                                                        1873    1.03    0.00  1.0000
  -1   6   0     734     671                                                        2280    1.03    0.00  1.0000
  -1   6  -1   26658    2501                                                       33366   -0.97    0.00  1.0000
  -1   6  -2   63648    3159                                                       54416    0.95    0.00  1.0000
  -1   6  -3   26489    2467                                                       32985   -0.94    0.00  1.0000
  -1   6  -4   12813    1270                                                        9167    0.87    0.00  1.0000
  -1   6  -5   16282    1577                                                       19999   -0.69    0.00  1.0000
  -1   6  -6    1468     393                                                         888    0.42    0.00  1.0000
   1  -5 -13   16924    1046                                                       16851    0.01    0.00  1.0000
  -1   5  12   65478    2390                                                       64871    0.06    0.00  1.0000
  -1   5  11   23358    1862                                                       24690   -0.21    0.00  1.0000
  -1   5  10   11942    1412                                                       10359    0.37    0.00  1.0000
  -1   5   9   98289    3975                                                       92149   -0.50    0.00  1.0000
  -1   5   8  146732    5135                                                      156405    0.62    0.00  1.0000
  -1   5   7  274582    6305                                                      258317   -0.78    0.00  1.0000
  -1   5   7  265457   10093                                                      249468   -0.78    0.00  1.0000
  -1   5   6  139714    4622                                                      154657    0.97    0.00  1.0000
  -1   5   5  103148    7184                                                       88985   -1.14    0.00  1.0000
  -1   5   4   16736    3688                                                       24264    1.31    0.00  1.0000
  -1   5   3    2047    2211                                                        5802   -1.54    0.00  1.0000
  -1   5   2  167059    8181                                                      139299    1.77    0.00  1.0000
  -1   5   1  680127   18489                                                      743364   -1.87    0.00  1.0000
  -1   5   0  297088   10671                                                      259755    1.76    0.00  1.0000
  -1   5   0  294393   11259                                                      257236    1.76    0.00  1.0000
  -1   5  -1   10033    1558                                                       17136   -1.53    0.00  1.0000
  -1   5  -1   13254    1682                                                       21277   -1.53    0.00  1.0000
  -1   5  -1   10127    3243                                                       17259   -1.53    0.00  1.0000
  -1   5  -2    7773    1402                                                       13155    1.32    0.00  1.0000
  -1   5  -2    7067    2999                                                       12232    1.32    0.00  1.0000
  -1   5  -2    7464    1567                                                       12751    1.32    0.00  1.0000
  -1   5  -3    1255    1013                                                        3559   -1.21    0.00  1.0000
  -1   5  -4    3607     809                                                        1395    1.13    0.00  1.0000
  -1   5  -5   28808    2016                                                       22493   -0.98    0.00  1.0000
  -1   5  -5   25999    1421                                                       20019   -0.98    0.00  1.0000
  -1   5  -6   62620    2301                                                       70037    0.72    0.00  1.0000
  -1   5  -6   73328    3231                                                       81337    0.72    0.00  1.0000
  -1   5  -7   18028    1187                                                       15982   -0.39    0.00  1.0000
   1  -4 -13     242     330                                                         242    0.00    0.00  1.0000
  -1   4  12   66831    2479                                                       66070   -0.07    0.00  1.0000
  -1   4  11   90064    3491                                                       90873    0.07    0.00  1.0000
  -1   4  10  182753    5359                                                      183358    0.04    0.00  1.0000
  -1   4   9   12658    1445                                                       11860   -0.18    0.00  1.0000
  -1   4   8     802    1331                                                        1207    0.32    0.00  1.0000
  -1   4   8    1432     739                                                        1960    0.32    0.00  1.0000
  -1   4   7   24710    3641                                                       27732   -0.46    0.00  1.0000
  -1   4   7   23808    1966                                                       26776   -0.46    0.00  1.0000
  -1   4   7   19887    1782                                                       22607   -0.46    0.00  1.0000
  -1   4   6   84811    5378                                                       77360    0.65    0.00  1.0000
  -1   4   5  318725    9960                                                      339891   -0.92    0.00  1.0000
  -1   4   4  266455    7145                                                      240243    1.30    0.00  1.0000
  -1   4   4  279706   10476                                                      252833    1.30    0.00  1.0000
  -1   4   3  244074   10616                                                      280887   -1.79    0.00  1.0000
  -1   4   2  244590    8667                                                      200757    2.32    0.00  1.0000
  -1   4   2  227896    5709                                                      185660    2.32    0.00  1.0000
  -1   4   1     387    1577                                                        5457   -2.70    0.00  1.0000
  -1   4   0  115596    7389                                                      156596    2.77    0.00  1.0000
  -1   4  -1  237672    9109                                                      190842   -2.52    0.00  1.0000
  -1   4  -1  252065    8211                                                      203761   -2.52    0.00  1.0000
  -1   4  -2  100823    8051                                                      129250    2.09    0.00  1.0000
  -1   4  -3    3521     502                                                         657   -1.68    0.00  1.0000
  -1   4  -3    3918    1312                                                         834   -1.68    0.00  1.0000
  -1   4  -3    4029     473                                                         886   -1.68    0.00  1.0000
  -1   4  -4    4674     873                                                        1640    1.39    0.00  1.0000
  -1   4  -4    5109    1344                                                        1902    1.39    0.00  1.0000
  -1   4  -5   54244    3503                                                       65815   -1.18    0.00  1.0000
  -1   4  -6   82330    3497                                                       71785    0.95    0.00  1.0000
  -1   4  -7   31983    2258                                                       36794   -0.65    0.00  1.0000
  -1   4  -7   29982    1909                                                       34646   -0.65    0.00  1.0000
  -1   4  -8   34403    1471                                                       32023    0.33    0.00  1.0000
   1  -3 -13   29910    1357                                                       29944    0.00    0.00  1.0000
  -1   3  12    4930     718                                                        4559   -0.13    0.00  1.0000
   1  -3 -12    6433    1050                                                        6009   -0.13    0.00  1.0000
  -1   3  11    6631    1146                                                        7480    0.25    0.00  1.0000
  -1   3  10   67350    3336                                                       70466   -0.30    0.00  1.0000
  -1   3   9  112469    4224                                                      108905    0.27    0.00  1.0000
  -1   3   8  203547    5512                                                      207187   -0.20    0.00  1.0000
  -1   3   8  198430   10491                                                      202024   -0.20    0.00  1.0000
  -1   3   7   98932    6692                                                       97654    0.10    0.00  1.0000
  -1   3   6     341     937                                                         284    0.08    0.00  1.0000
   1  -3  -6     663     446                                                         582    0.08    0.00  1.0000
   1  -3  -5  176764    3262                                                      169506   -0.43    0.00  1.0000
  -1   3   5  171668    7174                                                      164517   -0.43    0.00  1.0000
  -1   3   4  231892    7939                                                      252026    1.02    0.00  1.0000
   1  -3  -4  222366    3234                                                      242091    1.02    0.00  1.0000
  -1   3   4  221088    9254                                                      240757    1.02    0.00  1.0000
  -1   3   3  558011   12648                                                      505186   -1.80    0.00  1.0000
  -1   3   3  562417    9104                                                      509379   -1.80    0.00  1.0000
  -1   3   2  889017   16690                                                      991808    2.64    0.00  1.0000
  -1   3   2  870395    9426                                                      972134    2.64    0.00  1.0000
  -1   3   1   32468    1369                                                       12938   -3.31    0.00  1.0000
  -1   3   1   35578    2070                                                       14927   -3.31    0.00  1.0000
  -1   3   0  201723    6032                                                      141607    3.63    0.00  1.0000
  -1   3  -1  207061    9536                                                      276554   -3.53    0.00  1.0000
  -1   3  -1  217398    8433                                                      288481   -3.53    0.00  1.0000
  -1   3  -2   41300    2888                                                       19968    3.08    0.00  1.0000
  -1   3  -2   45563    2307                                                       22964    3.08    0.00  1.0000
  -1   3  -3   93786    7452                                                      126510   -2.46    0.00  1.0000
  -1   3  -4  575225    8307                                                      520068    1.86    0.00  1.0000
  -1   3  -4  552255   15626                                                      498238    1.86    0.00  1.0000
  -1   3  -5  545499    9651                                                      587640   -1.39    0.00  1.0000
  -1   3  -5  561545   17646                                                      604290   -1.39    0.00  1.0000
  -1   3  -6   61203    2550                                                       50931    1.08    0.00  1.0000
  -1   3  -6   63129    3048                                                       52689    1.08    0.00  1.0000
  -1   3  -7      70     637                                                         631   -0.83    0.00  1.0000
  -1   3  -8   23114    1983                                                       26757    0.57    0.00  1.0000
  -1   3  -8   25890    1916                                                       29738    0.57    0.00  1.0000
  -1   3  -9    5466     666                                                        4576   -0.31    0.00  1.0000
   1  -2 -12   36815    2080                                                       38969   -0.28    0.00  1.0000
  -1   2  12   35224    1659                                                       37332   -0.28    0.00  1.0000
  -1   2  11   46909    2373                                                       43303    0.42    0.00  1.0000
  -1   2  10   17168    1585                                                       14535   -0.52    0.00  1.0000
  -1   2   9   71119    3530                                                       77837    0.61    0.00  1.0000
  -1   2   8  134661    4185                                                      124160   -0.73    0.00  1.0000
  -1   2   8  146038    8751                                                      135094   -0.73    0.00  1.0000
  -1   2   7  238653   10973                                                      254704    0.80    0.00  1.0000
  -1   2   6  409669   12408                                                      391349   -0.72    0.00  1.0000
   1  -2  -5  298828    4620                                                      306509    0.35    0.00  1.0000
  -1   2   5  308863    9896                                                      316671    0.35    0.00  1.0000
  -1   2   4  491667   11317                                                      502668    0.39    0.00  1.0000
   1  -2  -4  461367    4727                                                      472026    0.39    0.00  1.0000
  -1   2   3   61748    2985                                                       48122   -1.45    0.00  1.0000
  -1   2   3   56077    1546                                                       43132   -1.45    0.00  1.0000
   1  -2  -3   61977    1224                                                       48324   -1.45    0.00  1.0000
  -1   2   3   64610    3622                                                       50653   -1.45    0.00  1.0000
  -1   2   2  386824    8310                                                      323666    2.64    0.00  1.0000
  -1   2   2  391436    6087                                                      327886    2.64    0.00  1.0000
  -1   2   1 1181412   15776                                                     1346070   -3.65    0.00  1.0000
  -1   2   1 1206153   12782                                                     1372470   -3.65    0.00  1.0000
  -1   2   1 1172551    8433                                                     1336610   -3.65    0.00  1.0000
  -1   2   0 1247753   13370                                                     1066100    4.21    0.00  1.0000
  -1   2   0 1233783    9434                                                     1053190    4.21    0.00  1.0000
  -1   2  -1  357290   10322                                                      466342   -4.24    0.00  1.0000
  -1   2  -1  333590    5519                                                      439207   -4.24    0.00  1.0000
  -1   2  -1  358265    8727                                                      467456   -4.24    0.00  1.0000
  -1   2  -2   74456    3318                                                       38299    3.84    0.00  1.0000
  -1   2  -2   74504    2408                                                       38333    3.84    0.00  1.0000
  -1   2  -3   10765    3219                                                       28081   -3.18    0.00  1.0000
  -1   2  -4   32637    4609                                                       52503    2.41    0.00  1.0000
  -1   2  -5  154737    7530                                                      128749   -1.72    0.00  1.0000
  -1   2  -6   28092    2285                                                       36950    1.23    0.00  1.0000
  -1   2  -6   26680    4063                                                       35328    1.23    0.00  1.0000
  -1   2  -6   26250    2424                                                       34833    1.23    0.00  1.0000
  -1   2  -6   22379    1945                                                       30350    1.23    0.00  1.0000
  -1   2  -7   68388    2906                                                       58886   -0.94    0.00  1.0000
  -1   2  -7   64480    2705                                                       55264   -0.94    0.00  1.0000
  -1   2  -7   68333    3288                                                       58835   -0.94    0.00  1.0000
  -1   2  -8    8132    1405                                                       11073    0.75    0.00  1.0000
  -1   2  -8    8851    1289                                                       11909    0.75    0.00  1.0000
  -1   2  -8    8882    1542                                                       11945    0.75    0.00  1.0000
  -1   2  -9      68     572                                                         373   -0.55    0.00  1.0000
  -1   2  -9     242     427                                                         710   -0.55    0.00  1.0000
  -1   2 -10   13459    1011                                                       11935    0.34    0.00  1.0000
   1  -1 -12    6423     693                                                        5036   -0.46    0.00  1.0000
  -1   1  11   82277    3192                                                       90462    0.69    0.00  1.0000
   1  -1 -11   77314    3592                                                       85254    0.69    0.00  1.0000
  -1   1  10   55733    2729                                                       48426   -0.80    0.00  1.0000
  -1   1   9   72256    3592                                                       81985    0.87    0.00  1.0000
  -1   1   8   55506    2587                                                       46001   -1.05    0.00  1.0000
  -1   1   8   50308    4962                                                       41281   -1.05    0.00  1.0000
  -1   1   7     344    1306                                                        1983    1.29    0.00  1.0000
  -1   1   6   96627    6633                                                      114766   -1.39    0.00  1.0000
  -1   1   5   89801    4934                                                       76512    1.15    0.00  1.0000
  -1   1   4  673235   13062                                                      689702   -0.50    0.00  1.0000
  -1   1   3  928767   13021                                                      949865   -0.54    0.00  1.0000
   1  -1  -3  931629    5891                                                      952759   -0.54    0.00  1.0000
  -1   1   2   76483    1207                                                       57219    1.86    0.00  1.0000
  -1   1   2  104777    3244                                                       81992    1.86    0.00  1.0000
  -1   1   1  329496    4231                                                      259940   -3.20    0.00  1.0000
  -1   1   1  314571    4211                                                      246703   -3.20    0.00  1.0000
  -1   1   1  312644    5663                                                      244997   -3.20    0.00  1.0000
  -1   1   0  850381   10227                                                     1011750    4.17    0.00  1.0000
  -1   1   0  867588    9066                                                     1030510    4.17    0.00  1.0000
  -1   1  -1  128306    2436                                                       71792   -4.49    0.00  1.0000
  -1   1  -1  126155    2460                                                       70186   -4.49    0.00  1.0000
  -1   1  -2  437747   10374                                                      556004    4.18    0.00  1.0000
  -1   1  -2  436275    7522                                                      554345    4.18    0.00  1.0000
  -1   1  -2  419097    6075                                                      534960    4.18    0.00  1.0000
  -1   1  -3  815211   13131                                                      693850   -3.48    0.00  1.0000
  -1   1  -4  302332   10554                                                      363868    2.66    0.00  1.0000
   1  -1   4  327129    8535                                                      391024    2.66    0.00  1.0000
  -1   1  -5   42145    4646                                                       59268   -1.90    0.00  1.0000
  -1   1  -6   28835    2897                                                       20489    1.33    0.00  1.0000
  -1   1  -7  126165    4639                                                      140702   -0.99    0.00  1.0000
  -1   1  -7  122553    4718                                                      136887   -0.99    0.00  1.0000
  -1   1  -8   36615    2183                                                       30531    0.83    0.00  1.0000
  -1   1  -8   32097    2212                                                       26419    0.83    0.00  1.0000
  -1   1  -9   30456    2274                                                       35544   -0.70    0.00  1.0000
  -1   1  -9   31479    2336                                                       36648   -0.70    0.00  1.0000
  -1   1 -10   31276    1682                                                       27723    0.52    0.00  1.0000
  -1   1 -10   34421    1943                                                       30689    0.52    0.00  1.0000
  -1   1 -11     697     411                                                        1067   -0.31    0.00  1.0000
   1   0 -11   25280    1216                                                       20143    0.85    0.00  1.0000
  -1   0  11   27728    1447                                                       22335    0.85    0.00  1.0000
   1   0 -11   24556    1427                                                       19498    0.85    0.00  1.0000
   1   0 -10   73274    3082                                                       85290   -1.06    0.00  1.0000
  -1   0  10   75071    3461                                                       87229   -1.06    0.00  1.0000
   1   0 -10   74347    3697                                                       86448   -1.06    0.00  1.0000
  -1   0   9  101705    3688                                                       87824    1.12    0.00  1.0000
  -1   0   8  151738    9785                                                      171503   -1.22    0.00  1.0000
  -1   0   8  138772    4836                                                      157701   -1.22    0.00  1.0000
   1   0  -7  133837    3579                                                      113331    1.45    0.00  1.0000
  -1   0   7  128232    7420                                                      108178    1.45    0.00  1.0000
  -1   0   6    4168    2142                                                        9525   -1.64    0.00  1.0000
  -1   0   5   28096    2755                                                       18518    1.57    0.00  1.0000
  -1   0   4  137753    5498                                                      120811   -1.17    0.00  1.0000
   1   0  -4  134741    2893                                                      117991   -1.17    0.00  1.0000
  -1   0   3  636872   10761                                                      653717    0.52    0.00  1.0000
   1   0  -3  594911    5457                                                      611195    0.52    0.00  1.0000
  -1   0   2  681680    9602                                                      694376    0.38    0.00  1.0000
  -1   0   1  710631    7550                                                      659009   -1.55    0.00  1.0000
  -1   0   0  180326    4051                                                      231077    2.79    0.00  1.0000
  -1   0  -1  605982    6332                                                      497309   -3.65    0.00  1.0000
  -1   0  -2    3329     548                                                         325    3.77    0.00  1.0000
  -1   0  -2    1734     830                                                        1161    3.77    0.00  1.0000
  -1   0  -3  674787   12033                                                      785354   -3.22    0.00  1.0000
  -1   0  -3  666822    5863                                                      776759   -3.22    0.00  1.0000
  -1   0  -4 1299139   16566                                                     1191730    2.40    0.00  1.0000
  -1   0  -4 1310070    8812                                                     1202200    2.40    0.00  1.0000
  -1   0  -5  170377    7506                                                      199021   -1.66    0.00  1.0000
   1   0   6  126317    6007                                                      110188    1.17    0.00  1.0000
  -1   0  -6  121927    5872                                                      106090    1.17    0.00  1.0000
   1   0   7   10928    1831                                                        7453   -0.91    0.00  1.0000
  -1   0  -7    9954    1103                                                        6653   -0.91    0.00  1.0000
  -1   0  -7    9566    1134                                                        6336   -0.91    0.00  1.0000
  -1   0  -7   11122    1128                                                        7614   -0.91    0.00  1.0000
  -1   0  -8   49275    3110                                                       56656    0.80    0.00  1.0000
  -1   0  -8   45875    3039                                                       53006    0.80    0.00  1.0000
  -1   0  -9   81651    3458                                                       73359   -0.74    0.00  1.0000
  -1   0  -9   74267    3199                                                       66370   -0.74    0.00  1.0000
  -1   0 -10  101687    3701                                                      109997    0.64    0.00  1.0000
  -1   0 -10   94130    3878                                                      102131    0.64    0.00  1.0000
  -1   0 -11    4828     722                                                        3640   -0.46    0.00  1.0000
  -1   0 -11    6192     757                                                        4835   -0.46    0.00  1.0000
   1   1 -11    7466     627                                                        5158    0.73    0.00  1.0000
   1   1 -10   17158    1649                                                       23206   -1.06    0.00  1.0000
  -1  -1  10   17962    1708                                                       24140   -1.06    0.00  1.0000
   1   1  -9   10139    1006                                                        5838    1.21    0.00  1.0000
  -1  -1   9   11044    1029                                                        6529    1.21    0.00  1.0000
  -1  -1   8    6505     909                                                        3038   -1.27    0.00  1.0000
   1   1  -8    7387     934                                                        3650   -1.27    0.00  1.0000
   1   1  -7  105041    4388                                                      124111    1.40    0.00  1.0000
  -1  -1   7  114443    8047                                                      134313    1.40    0.00  1.0000
   1   1  -7  104052    3809                                                      123036    1.40    0.00  1.0000
  -1  -1   6   76644    5059                                                       60164   -1.57    0.00  1.0000
  -1  -1   5  535709   14234                                                      583539    1.59    0.00  1.0000
   1   1  -4  324671    6882                                                      293317   -1.40    0.00  1.0000
  -1  -1   4  300100    8601                                                      269986   -1.40    0.00  1.0000
  -1  -1   3    3617    1348                                                        6910    1.14    0.00  1.0000
   1   1  -3    4341     578                                                        7897    1.14    0.00  1.0000
  -1  -1   2  435643    8267                                                      459216   -0.88    0.00  1.0000
  -1  -1   1 1981757   14601                                                     1958270    0.42    0.00  1.0000
  -1  -1   1 1985399   12828                                                     1961890    0.42    0.00  1.0000
  -1  -1   0  387612    4913                                                      377068    0.42    0.00  1.0000
  -1  -1  -1 1125937   10206                                                     1188290   -1.44    0.00  1.0000
   1   1   2  547182    4664                                                      486250    2.11    0.00  1.0000
  -1  -1  -2  556801    7612                                                      495320    2.11    0.00  1.0000
  -1  -1  -3   56029    1805                                                       77635   -2.09    0.00  1.0000
  -1  -1  -3   53535    3241                                                       74695   -2.09    0.00  1.0000
  -1  -1  -4  351866    8406                                                      389897    1.56    0.00  1.0000
  -1  -1  -4  346108    4708                                                      383834    1.56    0.00  1.0000
  -1  -1  -5   58338    2026                                                       49142   -0.99    0.00  1.0000
  -1  -1  -6  299969    5777                                                      315348    0.69    0.00  1.0000
   1   1   7  147104    7629                                                      137488   -0.63    0.00  1.0000
  -1  -1  -8   88539    3876                                                       96645    0.66    0.00  1.0000
  -1  -1  -8   91663    4187                                                       99908    0.66    0.00  1.0000
   1   1   8  101166    7265                                                      109818    0.66    0.00  1.0000
  -1  -1  -8   94377    3641                                                      102740    0.66    0.00  1.0000
  -1  -1  -9   86114    3606                                                       78255   -0.68    0.00  1.0000
  -1  -1  -9   97104    4044                                                       88747   -0.68    0.00  1.0000
  -1  -1  -9   91050    3449                                                       82963   -0.68    0.00  1.0000
  -1  -1 -10    2257     796                                                        1164    0.67    0.00  1.0000
  -1  -1 -10    2082     662                                                        1040    0.67    0.00  1.0000
  -1  -1 -11      26     533                                                         287   -0.59    0.00  1.0000
  -1  -1 -11     151     591                                                         581   -0.59    0.00  1.0000
  -1  -1 -12   68504    2178                                                       63984    0.44    0.00  1.0000
  -1  -2  10   17949    1052                                                       13757   -0.83    0.00  1.0000
   1   2 -10   19600    1211                                                       15207   -0.83    0.00  1.0000
  -1  -2   9   23440    2000                                                       30356    1.05    0.00  1.0000
  -1  -2   8   28575    1884                                                       21350   -1.14    0.00  1.0000
   1   2  -7    1460     809                                                        3919    1.21    0.00  1.0000
   1   2  -7    1379     923                                                        3787    1.21    0.00  1.0000
   1   2  -7    2180     961                                                        5054    1.21    0.00  1.0000
   1   2  -6   10621     962                                                        5825   -1.33    0.00  1.0000
   1   2  -6   11189    1041                                                        6247   -1.33    0.00  1.0000
   1   2  -5  221362    7519                                                      195598    1.41    0.00  1.0000
  -1  -2   5  237252    8767                                                      210551    1.41    0.00  1.0000
   1   2  -4  545230   12235                                                      586333   -1.36    0.00  1.0000
  -1  -2   4  595273   13480                                                      638188   -1.36    0.00  1.0000
   1   2  -3  554796    5151                                                      516583    1.30    0.00  1.0000
  -1  -2   3  534204    7881                                                      496720    1.30    0.00  1.0000
  -1  -2   3  555576   10733                                                      517336    1.30    0.00  1.0000
   1   2  -2  228396    3408                                                      255737   -1.38    0.00  1.0000
  -1  -2   2  212663    4651                                                      239073   -1.38    0.00  1.0000
  -1  -2   2  218184    6579                                                      244924   -1.38    0.00  1.0000
  -1  -2   1   75200    2334                                                       93103    1.54    0.00  1.0000
   1   2  -1   83551    1895                                                      102371    1.54    0.00  1.0000
  -1  -2   0  138338    3131                                                      160800   -1.45    0.00  1.0000
   1   2   0  154226    2223                                                      177895   -1.45    0.00  1.0000
   1   2   1  325791    6626                                                      347540    0.93    0.00  1.0000
  -1  -2  -1  328375    5539                                                      350208    0.93    0.00  1.0000
   1   2   2 1018355   10794                                                     1008190   -0.25    0.00  1.0000
  -1  -2  -3 1072046    6709                                                     1065660   -0.15    0.00  1.0000
   1   2   3 1066560   11126                                                     1060190   -0.15    0.00  1.0000
   1   2   4   11170    1280                                                       11767    0.14    0.00  1.0000
  -1  -2  -4   11564     890                                                       12172    0.14    0.00  1.0000
  -1  -2  -5   23960    1439                                                       24071    0.02    0.00  1.0000
  -1  -2  -6   88618    2956                                                       88488    0.01    0.00  1.0000
  -1  -2  -7  177698    4777                                                      181902   -0.25    0.00  1.0000
  -1  -2  -8  173917    5083                                                      165948    0.48    0.00  1.0000
   1   2   8  166075    9030                                                      158290    0.48    0.00  1.0000
  -1  -2  -8  176120    4313                                                      168100    0.48    0.00  1.0000
  -1  -2  -9  309411    6375                                                      322499   -0.58    0.00  1.0000
  -1  -2  -9  320888    7510                                                      334214   -0.58    0.00  1.0000
  -1  -2 -10   12821    1280                                                       10284    0.59    0.00  1.0000
  -1  -2 -10   15646    1505                                                       12828    0.59    0.00  1.0000
  -1  -2 -10   17116    1715                                                       14162    0.59    0.00  1.0000
  -1  -2 -11   56476    2537                                                       62194   -0.58    0.00  1.0000
  -1  -2 -11   58501    3191                                                       64318   -0.58    0.00  1.0000
  -1  -2 -12     764     648                                                        1487    0.54    0.00  1.0000
   1   3 -10     457     392                                                        1087   -0.58    0.00  1.0000
  -1  -3   9   14477    1038                                                       10752    0.83    0.00  1.0000
  -1  -3   8   39598    2548                                                       47507   -0.94    0.00  1.0000
   1   3  -7     712     610                                                          49    0.98    0.00  1.0000
   1   3  -7     389     764                                                        -213    0.98    0.00  1.0000
   1   3  -6   36613    2444                                                       44994   -1.03    0.00  1.0000
   1   3  -6   38110    2813                                                       46652   -1.03    0.00  1.0000
   1   3  -5     504     473                                                         -57    1.12    0.00  1.0000
   1   3  -5     504    1628                                                       -5685    1.12    0.00  1.0000
   1   3  -4   16593    2217                                                       11048   -1.18    0.00  1.0000
   1   3  -3  181168    7574                                                      202970    1.24    0.00  1.0000
   1   3  -2 1070422    8224                                                     1012630   -1.41    0.00  1.0000
   1   3  -2 1091198   16356                                                     1032840   -1.41    0.00  1.0000
   1   3  -1  578753    6256                                                      633272    1.74    0.00  1.0000
   1   3  -1  601888   12386                                                      657462    1.74    0.00  1.0000
   1   3   0 1598180    8867                                                     1494420   -2.08    0.00  1.0000
   1   3   0 1581167   17732                                                     1477970   -2.08    0.00  1.0000
   1   3   1   97829    2365                                                      126813    2.16    0.00  1.0000
   1   3   1   88984    4868                                                      116714    2.16    0.00  1.0000
   1   3   2  246066    7463                                                      285875   -1.92    0.00  1.0000
   1   3   2  251952    3292                                                      292217   -1.92    0.00  1.0000
   1   3   3 1490488   16754                                                     1414490    1.57    0.00  1.0000
   1   3   3 1497581    6732                                                     1421400    1.57    0.00  1.0000
   1   3   4  622687   11655                                                      664343   -1.29    0.00  1.0000
  -1  -3  -4  625096    6357                                                      666831   -1.29    0.00  1.0000
   1   3   5  565672   10742                                                      534296    1.05    0.00  1.0000
  -1  -3  -5  555160    6344                                                      524081    1.05    0.00  1.0000
  -1  -3  -6  180597    4275                                                      192541   -0.69    0.00  1.0000
  -1  -3  -7   59315    2644                                                       57470    0.19    0.00  1.0000
  -1  -3  -8   86396    3519                                                       83527    0.25    0.00  1.0000
  -1  -3  -8   85769    3684                                                       82910    0.25    0.00  1.0000
  -1  -3  -9   27189    2161                                                       24297   -0.45    0.00  1.0000
   1   3   9   21075    3490                                                       18539   -0.45    0.00  1.0000
  -1  -3 -10     738     783                                                        1332    0.46    0.00  1.0000
  -1  -3 -11  172028    5351                                                      164663   -0.45    0.00  1.0000
  -1  -3 -11  159172    4669                                                      152091   -0.45    0.00  1.0000
  -1  -3 -12   74838    3191                                                       79893    0.45    0.00  1.0000
  -1  -3 -13      66     351                                                        -550   -0.40    0.00  1.0000
   1   4  -9    1297     405                                                         565    0.61    0.00  1.0000
  -1  -4   8    5017     674                                                        3035   -0.78    0.00  1.0000
   1   4  -7   18822    1695                                                       23635    0.82    0.00  1.0000
   1   4  -7   21388    2073                                                       26500    0.82    0.00  1.0000
   1   4  -6  354009    7439                                                      334700   -0.82    0.00  1.0000
   1   4  -6  350983    6720                                                      331758   -0.82    0.00  1.0000
   1   4  -5  400617    7442                                                      422652    0.86    0.00  1.0000
   1   4  -5  408963    8296                                                      431223    0.86    0.00  1.0000
   1   4  -4  181826    4768                                                      166089   -0.94    0.00  1.0000
   1   4  -4  176823    4404                                                      161309   -0.94    0.00  1.0000
   1   4  -4  183913    8832                                                      168084   -0.94    0.00  1.0000
   1   4  -3   32151    3749                                                       40216    1.06    0.00  1.0000
   1   4  -2   74896    5521                                                       89205   -1.24    0.00  1.0000
   1   4  -1   57870    4960                                                       73884    1.56    0.00  1.0000
   1   4   0  168926    7836                                                      202652   -1.95    0.00  1.0000
   1   4   0  170009    4005                                                      203838   -1.95    0.00  1.0000
   1   4   1  436083    5201                                                      377882    2.27    0.00  1.0000
   1   4   1  441880   10506                                                      383280    2.27    0.00  1.0000
   1   4   2  418514    5569                                                      482796   -2.39    0.00  1.0000
   1   4   2  423927   11909                                                      488609   -2.39    0.00  1.0000
   1   4   3    6216     473                                                        1097    2.28    0.00  1.0000
   1   4   3    6857    1199                                                        1375    2.28    0.00  1.0000
   1   4   4   19753    3155                                                       32782   -2.02    0.00  1.0000
   1   4   5    8707    2296                                                       15941    1.64    0.00  1.0000
  -1  -4  -5    7896    1135                                                       14837    1.64    0.00  1.0000
  -1  -4  -6  132959    3364                                                      116806   -1.14    0.00  1.0000
   1   4   6  134858    6184                                                      118587   -1.14    0.00  1.0000
  -1  -4  -7  221147    5283                                                      231998    0.57    0.00  1.0000
  -1  -4  -8  423779    7631                                                      421653   -0.08    0.00  1.0000
  -1  -4  -8  442392    8609                                                      440220   -0.08    0.00  1.0000
  -1  -4  -9    1130     717                                                         886   -0.19    0.00  1.0000
  -1  -4  -9    1263     649                                                        1004   -0.19    0.00  1.0000
   1   4   9    2774    1992                                                        2383   -0.19    0.00  1.0000
  -1  -4 -10    6824    1277                                                        7758    0.27    0.00  1.0000
  -1  -4 -11   81462    3989                                                       84750   -0.28    0.00  1.0000
  -1  -4 -11   78946    3590                                                       82183   -0.28    0.00  1.0000
  -1  -4 -12  110077    3215                                                      106109    0.30    0.00  1.0000
  -1  -4 -12  115759    3845                                                      111689    0.30    0.00  1.0000
  -1  -4 -13   24408    1432                                                       26243   -0.29    0.00  1.0000
   1   5  -8    2815     453                                                        1756   -0.56    0.00  1.0000
   1   5  -7   34856    2144                                                       40085    0.67    0.00  1.0000
   1   5  -6    8425     952                                                        6071   -0.69    0.00  1.0000
   1   5  -6    7805    1073                                                        5546   -0.69    0.00  1.0000
   1   5  -5     731     664                                                        1702    0.71    0.00  1.0000
   1   5  -5     434     712                                                        1229    0.71    0.00  1.0000
   1   5  -4   23348    3954                                                       28365   -0.78    0.00  1.0000
   1   5  -4   26620    2211                                                       31960   -0.78    0.00  1.0000
   1   5  -4   26585    2398                                                       31922   -0.78    0.00  1.0000
   1   5  -3  235808    5336                                                      218916    0.88    0.00  1.0000
   1   5  -3  237408    5618                                                      220458    0.88    0.00  1.0000
   1   5  -3  244393   10940                                                      227191    0.88    0.00  1.0000
   1   5  -2   30528    4026                                                       38107   -1.02    0.00  1.0000
   1   5  -1  103035    6128                                                       87619    1.24    0.00  1.0000
   1   5   0  159288    7415                                                      134961   -1.58    0.00  1.0000
   1   5   1  410639   13391                                                      462341    1.95    0.00  1.0000
   1   5   2  462250   12491                                                      403969   -2.21    0.00  1.0000
   1   5   3  195869    9636                                                      237938    2.25    0.00  1.0000
   1   5   4  181845    7703                                                      148040   -2.07    0.00  1.0000
   1   5   5   66438    5864                                                       85391    1.72    0.00  1.0000
  -1  -5  -5   76886    2928                                                       97184    1.72    0.00  1.0000
  -1  -5  -6     114     514                                                        1264   -1.24    0.00  1.0000
   1   5   6     620     981                                                         -28   -1.24    0.00  1.0000
  -1  -5  -7    3597     635                                                        2015    0.75    0.00  1.0000
  -1  -5  -8  239572    5763                                                      246930   -0.37    0.00  1.0000
   1   5   8  230809    5494                                                      238033   -0.37    0.00  1.0000
   1   5   9   48739    2529                                                       47421    0.15    0.00  1.0000
  -1  -5  -9   47904    2708                                                       46598    0.15    0.00  1.0000
  -1  -5  -9   55688    3301                                                       54279    0.15    0.00  1.0000
  -1  -5 -10  335907    8134                                                      336501   -0.03    0.00  1.0000
  -1  -5 -11   93834    3969                                                       94913   -0.09    0.00  1.0000
  -1  -5 -12    4157     884                                                        4677    0.19    0.00  1.0000
  -1  -5 -12    3147     745                                                        3601    0.19    0.00  1.0000
  -1  -5 -13    5099     659                                                        4462   -0.23    0.00  1.0000
   1   6  -7   44957    1370                                                       41609    0.40    0.00  1.0000
   1   6  -6   29120    1862                                                       32661   -0.50    0.00  1.0000
   1   6  -6   29826    1597                                                       33408   -0.50    0.00  1.0000
   1   6  -5     894     478                                                         338    0.57    0.00  1.0000
   1   6  -5    2163     692                                                        1225    0.57    0.00  1.0000
   1   6  -4    2435     652                                                        1273   -0.68    0.00  1.0000
   1   6  -4    3824     820                                                        2321   -0.68    0.00  1.0000
   1   6  -3   88907    4091                                                       98859    0.81    0.00  1.0000
   1   6  -3   90928    3941                                                      100989    0.81    0.00  1.0000
   1   6  -2    4763     759                                                        2580   -0.91    0.00  1.0000
   1   6  -2    3616     826                                                        1756   -0.91    0.00  1.0000
   1   6  -1  278865    6423                                                      300524    1.00    0.00  1.0000
   1   6  -1  276331   12098                                                      297893    1.00    0.00  1.0000
   1   6   0  208552    4903                                                      187319   -1.19    0.00  1.0000
   1   6   0  215500    9907                                                      193906   -1.19    0.00  1.0000
   1   6   1   52983    5871                                                       67765    1.50    0.00  1.0000
   1   6   2   57360    6255                                                       76310   -1.83    0.00  1.0000
   1   6   3  145832    7740                                                      116654    2.01    0.00  1.0000
   1   6   4  112416    8341                                                      140088   -1.94    0.00  1.0000
   1   6   5  179719    8829                                                      152755    1.65    0.00  1.0000
  -1  -6  -5  181166    3890                                                      154089    1.65    0.00  1.0000
  -1  -6  -6  203792    4917                                                      226537   -1.22    0.00  1.0000
   1   6   6  195817   10702                                                      218125   -1.22    0.00  1.0000
  -1  -6  -7  345074    6237                                                      326537    0.80    0.00  1.0000
   1   6   7  333181   12705                                                      314971    0.80    0.00  1.0000
   1   6   7  339891    6597                                                      321496    0.80    0.00  1.0000
   1   6   8    5012    1110                                                        6526   -0.50    0.00  1.0000
  -1  -6  -8    6800    1175                                                        8547   -0.50    0.00  1.0000
   1   6   9   10092    1197                                                        8715    0.35    0.00  1.0000
  -1  -6  -9   11506    1219                                                       10033    0.35    0.00  1.0000
   1   6  10  154484    4381                                                      150266   -0.27    0.00  1.0000
  -1  -6 -10  161353    5592                                                      157041   -0.27    0.00  1.0000
  -1  -6 -11  228073    6149                                                      230490    0.13    0.00  1.0000
  -1  -6 -12   54012    2421                                                       54681    0.07    0.00  1.0000
  -1  -6 -12   51501    2422                                                       52155    0.07    0.00  1.0000
  -1  -6 -13   47482    1568                                                       45744   -0.20    0.00  1.0000
   1   7  -5   22176    1249                                                       24379    0.36    0.00  1.0000
   1   7  -5   24157    1506                                                       26454    0.36    0.00  1.0000
   1   7  -4   45804    2109                                                       41496   -0.51    0.00  1.0000
   1   7  -4   46764    2313                                                       42410   -0.51    0.00  1.0000
   1   7  -3    4495     858                                                        2800    0.70    0.00  1.0000
   1   7  -3    3360     773                                                        1921    0.70    0.00  1.0000
   1   7  -2    2723     723                                                        1214   -0.86    0.00  1.0000
   1   7  -2    3759     670                                                        1934   -0.86    0.00  1.0000
   1   7  -2    2683     705                                                        1187   -0.86    0.00  1.0000
   1   7  -1   91847    3621                                                       80813    0.94    0.00  1.0000
   1   7  -1   83720    3413                                                       73202    0.94    0.00  1.0000
   1   7   0  112017    4493                                                      125558   -0.98    0.00  1.0000
   1   7   0  100729    7967                                                      113590   -0.98    0.00  1.0000
   1   7   1  143460    8682                                                      126999    1.11    0.00  1.0000
   1   7   1  133348    4271                                                      117496    1.11    0.00  1.0000
   1   7   2  220763    6220                                                      247393   -1.37    0.00  1.0000
   1   7   2  209418   11835                                                      235374   -1.37    0.00  1.0000
   1   7   3  303538    6439                                                      268746    1.62    0.00  1.0000
   1   7   3  300529   12640                                                      265915    1.62    0.00  1.0000
   1   7   4  220822    6125                                                      254046   -1.70    0.00  1.0000
   1   7   4  216723   12398                                                      249648   -1.70    0.00  1.0000
   1   7   5      48     590                                                         577    1.54    0.00  1.0000
   1   7   5    1286    1991                                                        4466    1.54    0.00  1.0000
   1   7   6   66188    5842                                                       54299   -1.21    0.00  1.0000
   1   7   6   64290    2881                                                       52580   -1.21    0.00  1.0000
   1   7   7  252025   12640                                                      268899    0.82    0.00  1.0000
   1   7   7  250583    6422                                                      267410    0.82    0.00  1.0000
   1   7   8   32609    2163                                                       28948   -0.52    0.00  1.0000
   1   7   9  118547    4299                                                      123632    0.36    0.00  1.0000
  -1  -7 -10    3157    1034                                                        2504   -0.31    0.00  1.0000
   1   7  10    2605     636                                                        2016   -0.31    0.00  1.0000
  -1  -7 -11   31556    2179                                                       29991    0.22    0.00  1.0000
   1   7  11   31467    1683                                                       29905    0.22    0.00  1.0000
  -1  -7 -12    6636     852                                                        6822   -0.06    0.00  1.0000
   1   8  -4   34823    1369                                                       37066   -0.29    0.00  1.0000
   1   8  -3    8853     859                                                        7134    0.48    0.00  1.0000
   1   8  -3    9826     948                                                        8010    0.48    0.00  1.0000
   1   8  -2  157681    4533                                                      168686   -0.68    0.00  1.0000
   1   8  -2  154564    4667                                                      165461   -0.68    0.00  1.0000
   1   8  -1   49930    2439                                                       42801    0.82    0.00  1.0000
   1   8  -1   51326    2617                                                       44094    0.82    0.00  1.0000
   1   8  -1   54373    2661                                                       46922    0.82    0.00  1.0000
   1   8   0    1387     878                                                        3015   -0.88    0.00  1.0000
   1   8   0    1446     915                                                        3102   -0.88    0.00  1.0000
   1   8   1   12292    1736                                                       16647    0.90    0.00  1.0000
   1   8   2   13648    1402                                                        9388   -0.99    0.00  1.0000
   1   8   3    4972     936                                                        2247    1.15    0.00  1.0000
   1   8   4     650     623                                                        -790   -1.27    0.00  1.0000
   1   8   5   12436    1933                                                       18610    1.24    0.00  1.0000
   1   8   6   64241    3173                                                       54032   -1.05    0.00  1.0000
   1   8   6   60263    2989                                                       50389   -1.05    0.00  1.0000
   1   8   7    4092     795                                                        2369    0.76    0.00  1.0000
   1   8   8   27841    2275                                                       31223   -0.49    0.00  1.0000
   1   8   9  343157    6881                                                      335901    0.31    0.00  1.0000
  -1  -8 -10  242053    6373                                                      246646   -0.23    0.00  1.0000
   1   8  10  232668    5199                                                      237172   -0.23    0.00  1.0000
   1   8  11   22308    1318                                                       21199    0.19    0.00  1.0000
  -1  -8 -11   24841    1783                                                       23671    0.19    0.00  1.0000
  -1  -8 -12    8365     861                                                        8742   -0.10    0.00  1.0000
   1   9  -2   20914    1003                                                       18791   -0.38    0.00  1.0000
   1   9  -2   22896    1062                                                       20672   -0.38    0.00  1.0000
   1   9  -1   12650    1199                                                       15084    0.52    0.00  1.0000
   1   9  -1   12148    1188                                                       14535    0.52    0.00  1.0000
   1   9   0    4430     644                                                        2918   -0.62    0.00  1.0000
   1   9   0    5071     749                                                        3443   -0.62    0.00  1.0000
   1   9   0    4562     726                                                        3025   -0.62    0.00  1.0000
   1   9   1   13960    1611                                                       17381    0.68    0.00  1.0000
   1   9   1   13863    1647                                                       17273    0.68    0.00  1.0000
   1   9   2    5702     906                                                        3739   -0.72    0.00  1.0000
   1   9   3    1216     885                                                        2530    0.77    0.00  1.0000
   1   9   4   83623    3989                                                       93518   -0.83    0.00  1.0000
   1   9   5  177520    5345                                                      163691    0.83    0.00  1.0000
   1   9   6  178245    5772                                                      191046   -0.74    0.00  1.0000
   1   9   7   38461    2421                                                       34088    0.57    0.00  1.0000
   1   9   8   83882    3702                                                       88433   -0.39    0.00  1.0000
   1   9   9     210     498                                                          92    0.24    0.00  1.0000
   1   9  10   34214    1779                                                       32971   -0.17    0.00  1.0000
  -1  -9 -10   30888    2009                                                       29708   -0.17    0.00  1.0000
  -1  -9 -11   35630    1847                                                       36653    0.13    0.00  1.0000
   1  10   1   18304    1087                                                       16528    0.34    0.00  1.0000
   1  10   1   18696    1153                                                       16900    0.34    0.00  1.0000
   1  10   2    9949    1072                                                       11670   -0.41    0.00  1.0000
   1  10   2    8671    1057                                                       10282   -0.41    0.00  1.0000
   1  10   3   31127    1792                                                       27864    0.47    0.00  1.0000
   1  10   4   13596    1475                                                       16114   -0.51    0.00  1.0000
   1  10   5    2002     589                                                        1170    0.53    0.00  1.0000
   1  10   6   22289    1666                                                       19470   -0.49    0.00  1.0000
   1  10   7   43903    2456                                                       47279    0.39    0.00  1.0000
   1  10   8  147786    3923                                                      143603   -0.27    0.00  1.0000
   1  10   9   34930    1776                                                       36182    0.17    0.00  1.0000
  -1 -10 -10     380     362                                                         303   -0.10    0.00  1.0000
   1  10  10       4     285                                                        -332   -0.10    0.00  1.0000
   1  11   4   39806    1378                                                       37512   -0.29    0.00  1.0000
   1  11   5   51402    1772                                                       54305    0.31    0.00  1.0000
   1  11   5   60954    1941                                                       64111    0.31    0.00  1.0000
   1  11   6   25160    1227                                                       23270   -0.30    0.00  1.0000
   1  11   7   28724    1357                                                       30544    0.26    0.00  1.0000
  -2   9   8    7802     713                                                        7967    0.05    0.00  1.0000
  -2   9   7    5214     609                                                        5050   -0.06    0.00  1.0000
  -2   9   6   20254    1117                                                       21019    0.13    0.00  1.0000
  -2   9   6   22444    1197                                                       23248    0.13    0.00  1.0000
  -2   9   5   16344    1024                                                       15019   -0.26    0.00  1.0000
  -2   9   4     335     375                                                         669    0.38    0.00  1.0000
  -2   9   3    5675     599                                                        4519   -0.40    0.00  1.0000
  -2   9   2      55     302                                                         205    0.34    0.00  1.0000
  -2   8  10   64494    2079                                                       65318    0.08    0.00  1.0000
  -2   8   9   11675     782                                                       10962   -0.17    0.00  1.0000
  -2   8   9   14305    1156                                                       13514   -0.17    0.00  1.0000
  -2   8   8    6506     777                                                        7266    0.23    0.00  1.0000
  -2   8   8    7696    1033                                                        8521    0.23    0.00  1.0000
  -2   8   7   11521    1001                                                       10434   -0.26    0.00  1.0000
  -2   8   6      34     406                                                        -229    0.29    0.00  1.0000
  -2   8   6      34     497                                                         -72    0.29    0.00  1.0000
  -2   8   5    7148     967                                                        8417   -0.36    0.00  1.0000
  -2   8   5    7868    1118                                                        9197   -0.36    0.00  1.0000
  -2   8   4   16113    1212                                                       13942    0.44    0.00  1.0000
  -2   8   4   14136    1138                                                       12107    0.44    0.00  1.0000
  -2   8   3   87522    3010                                                       93543   -0.50    0.00  1.0000
  -2   8   2   60504    2591                                                       55489    0.52    0.00  1.0000
  -2   8   1   18492    1598                                                       21490   -0.53    0.00  1.0000
  -2   8   0     233     465                                                         675    0.53    0.00  1.0000
  -2   8  -1   18637    1086                                                       16023   -0.49    0.00  1.0000
  -2   7  11     755     266                                                         717   -0.04    0.00  1.0000
  -2   7  11    1378     438                                                        1326   -0.04    0.00  1.0000
  -2   7  10   19590    1449                                                       19146    0.08    0.00  1.0000
  -2   7   9    2448     747                                                        2723   -0.13    0.00  1.0000
  -2   7   8   15720    1527                                                       14681    0.21    0.00  1.0000
  -2   7   7  173495    4863                                                      178452   -0.29    0.00  1.0000
  -2   7   7  174792    5233                                                      179768   -0.29    0.00  1.0000
  -2   7   6  119641    4209                                                      114639    0.36    0.00  1.0000
  -2   7   6  117623    3953                                                      112664    0.36    0.00  1.0000
  -2   7   5   34494    2393                                                       37591   -0.41    0.00  1.0000
  -2   7   5   34151    2305                                                       37232   -0.41    0.00  1.0000
  -2   7   4    2560     610                                                        1772    0.42    0.00  1.0000
  -2   7   4    4523     851                                                        3452    0.42    0.00  1.0000
  -2   7   3   26497    1777                                                       23810   -0.42    0.00  1.0000
  -2   7   3   27344    1893                                                       24613   -0.42    0.00  1.0000
  -2   7   2   63390    3093                                                       67815    0.43    0.00  1.0000
  -2   7   1   99334    3786                                                       93177   -0.49    0.00  1.0000
  -2   7   1  111542    3789                                                      105011   -0.49    0.00  1.0000
  -2   7   0   43622    2742                                                       49025    0.63    0.00  1.0000
  -2   7  -1     286     675                                                        1016   -0.74    0.00  1.0000
  -2   7  -2     126     550                                                         672    0.73    0.00  1.0000
  -2   7  -3     737     527                                                        1462   -0.55    0.00  1.0000
  -2   6  12   29423    1312                                                       29701   -0.04    0.00  1.0000
  -2   6  11   78028    2755                                                       78021    0.00    0.00  1.0000
  -2   6  10    7493    1068                                                        7343    0.04    0.00  1.0000
  -2   6   9   12367    1507                                                       12570   -0.05    0.00  1.0000
  -2   6   8   19745    1895                                                       19589    0.03    0.00  1.0000
  -2   6   7   17004    1753                                                       16748   -0.05    0.00  1.0000
  -2   6   6    4305    1027                                                        4645    0.13    0.00  1.0000
  -2   6   5   39592    2466                                                       37859   -0.22    0.00  1.0000
  -2   6   4  158017    4967                                                      162527    0.28    0.00  1.0000
  -2   6   4  150553    4735                                                      154956    0.28    0.00  1.0000
  -2   6   4  149042    4161                                                      153422    0.28    0.00  1.0000
  -2   6   3   82913    3355                                                       79499   -0.30    0.00  1.0000
  -2   6   3   84680    3269                                                       81229   -0.30    0.00  1.0000
  -2   6   3   85880    3522                                                       82405   -0.30    0.00  1.0000
  -2   6   2    9736    1373                                                       10960    0.30    0.00  1.0000
  -2   6   2   12037    1462                                                       13394    0.30    0.00  1.0000
  -2   6   1   78950    3583                                                       82812   -0.34    0.00  1.0000
  -2   6   1   82954    3633                                                       86912   -0.34    0.00  1.0000
  -2   6   0  175078    5215                                                      167451    0.46    0.00  1.0000
  -2   6   0  181246    5146                                                      173485    0.46    0.00  1.0000
  -2   6   0  178034    5093                                                      170342    0.46    0.00  1.0000
  -2   6  -1   83256    3676                                                       90816   -0.64    0.00  1.0000
  -2   6  -1   84639    3983                                                       92261   -0.64    0.00  1.0000
  -2   6  -2   71470    3276                                                       63501    0.76    0.00  1.0000
  -2   6  -3    7565    1373                                                       10308   -0.72    0.00  1.0000
  -2   6  -4    5308    1022                                                        6953    0.52    0.00  1.0000
  -2   6  -5   25952    1397                                                       24157   -0.28    0.00  1.0000
  -2   5  12     756     391                                                         670   -0.08    0.00  1.0000
  -2   5  11   48484    2410                                                       49318    0.09    0.00  1.0000
  -2   5  10    4671     988                                                        4527   -0.05    0.00  1.0000
  -2   5   9   18677    1858                                                       18923    0.04    0.00  1.0000
  -2   5   8  205973    5904                                                      203704   -0.12    0.00  1.0000
  -2   5   7   33448    4522                                                       35230    0.24    0.00  1.0000
  -2   5   7   46228    2853                                                       48318    0.24    0.00  1.0000
  -2   5   6   25580    2006                                                       23791   -0.28    0.00  1.0000
  -2   5   6   23552    3436                                                       21837   -0.28    0.00  1.0000
  -2   5   6   29793    2106                                                       27860   -0.28    0.00  1.0000
  -2   5   5   27426    1997                                                       26015    0.21    0.00  1.0000
  -2   5   5   29229    2007                                                       27772    0.21    0.00  1.0000
  -2   5   4  274972    5884                                                      276521   -0.07    0.00  1.0000
  -2   5   3  342934    6063                                                      344917   -0.08    0.00  1.0000
  -2   5   3  338611    6350                                                      340582   -0.08    0.00  1.0000
  -2   5   2  524185    7834                                                      517441    0.23    0.00  1.0000
  -2   5   2  512228   16602                                                      505562    0.23    0.00  1.0000
  -2   5   2  489593    7465                                                      483076    0.23    0.00  1.0000
  -2   5   2  528170   14818                                                      521400    0.23    0.00  1.0000
  -2   5   1  102244    3808                                                      107071   -0.37    0.00  1.0000
  -2   5   1  100724    7220                                                      105515   -0.37    0.00  1.0000
  -2   5   1   89892    7017                                                       94421   -0.37    0.00  1.0000
  -2   5   1   96472    3651                                                      101162   -0.37    0.00  1.0000
  -2   5   0    1555    1630                                                        2456    0.50    0.00  1.0000
  -2   5   0    1996     804                                                        3004    0.50    0.00  1.0000
  -2   5   0    1028     772                                                        1780    0.50    0.00  1.0000
  -2   5  -1    9467    1178                                                        7179   -0.63    0.00  1.0000
  -2   5  -1   12275    2714                                                        9648   -0.63    0.00  1.0000
  -2   5  -1    8758    1042                                                        6563   -0.63    0.00  1.0000
  -2   5  -1    9131    1139                                                        6887   -0.63    0.00  1.0000
  -2   5  -2   44675    3019                                                       50884    0.71    0.00  1.0000
  -2   5  -2   45648    2760                                                       51922    0.71    0.00  1.0000
  -2   5  -3   24973    2014                                                       20686   -0.71    0.00  1.0000
  -2   5  -4   22974    2141                                                       26847    0.61    0.00  1.0000
  -2   5  -5    4163     874                                                        3046   -0.46    0.00  1.0000
  -2   5  -6   24587    1658                                                       26697    0.33    0.00  1.0000
  -2   4  12   63993    2315                                                       63818   -0.02    0.00  1.0000
  -2   4  11   24385    1844                                                       25064    0.11    0.00  1.0000
  -2   4  10   39184    2513                                                       37907   -0.16    0.00  1.0000
  -2   4   9    8742    1343                                                        9511    0.20    0.00  1.0000
  -2   4   8  187444    5440                                                      192686   -0.30    0.00  1.0000
  -2   4   8  193410    5746                                                      198734   -0.30    0.00  1.0000
  -2   4   7   57646    5082                                                       53149    0.48    0.00  1.0000
  -2   4   7   67879    3039                                                       62992    0.48    0.00  1.0000
  -2   4   7   66546    3146                                                       61708    0.48    0.00  1.0000
  -2   4   6  168568    4791                                                      179205   -0.64    0.00  1.0000
  -2   4   6  166167    4901                                                      176730   -0.64    0.00  1.0000
  -2   4   5  162059    8292                                                      151601    0.66    0.00  1.0000
  -2   4   4   24183    3309                                                       27427   -0.50    0.00  1.0000
  -2   4   3    1289     876                                                        1623    0.22    0.00  1.0000
  -2   4   2  469384   14808                                                      472902    0.13    0.00  1.0000
  -2   4   2  471239   12673                                                      474764    0.13    0.00  1.0000
  -2   4   1  268066   10822                                                      258153   -0.48    0.00  1.0000
  -2   4   1  276572   10593                                                      266501   -0.48    0.00  1.0000
  -2   4   0   56476    5080                                                       64221    0.79    0.00  1.0000
  -2   4   0   53718    5405                                                       61278    0.79    0.00  1.0000
  -2   4  -1   56755    2494                                                       47827   -0.97    0.00  1.0000
  -2   4  -1   62197    5365                                                       52833   -0.97    0.00  1.0000
  -2   4  -1   57819    2459                                                       48805   -0.97    0.00  1.0000
  -2   4  -2     597     774                                                        1983    1.00    0.00  1.0000
  -2   4  -2     131     621                                                         994    1.00    0.00  1.0000
  -2   4  -2      47     643                                                         727    1.00    0.00  1.0000
  -2   4  -2      16    1579                                                         581    1.00    0.00  1.0000
  -2   4  -3    8216    2803                                                       11768   -0.89    0.00  1.0000
  -2   4  -3    7598    1506                                                       11026   -0.89    0.00  1.0000
  -2   4  -3    7839    1275                                                       11317   -0.89    0.00  1.0000
  -2   4  -4   73731    3432                                                       66087    0.72    0.00  1.0000
  -2   4  -4   66221    2686                                                       58987    0.72    0.00  1.0000
  -2   4  -5   31626    2496                                                       35980   -0.59    0.00  1.0000
  -2   4  -5   28154    1830                                                       32270   -0.59    0.00  1.0000
  -2   4  -6   67730    2357                                                       62273    0.53    0.00  1.0000
  -2   4  -6   74753    3248                                                       69015    0.53    0.00  1.0000
  -2   4  -7   22149    1263                                                       25220   -0.50    0.00  1.0000
  -2   4  -7   23322    1789                                                       26470   -0.50    0.00  1.0000
  -2   3  12   18398    1289                                                       18214    0.03    0.00  1.0000
  -2   3  11    2503     776                                                        2586    0.04    0.00  1.0000
  -2   3  10     321     615                                                         200   -0.19    0.00  1.0000
  -2   3   9   92599    3854                                                       88134    0.37    0.00  1.0000
  -2   3   8    1984    1950                                                        3140   -0.57    0.00  1.0000
  -2   3   8     923     803                                                        1753   -0.57    0.00  1.0000
  -2   3   8     811     702                                                        1597   -0.57    0.00  1.0000
  -2   3   7   11989    2302                                                        8746    0.80    0.00  1.0000
  -2   3   7    9688    1031                                                        6799    0.80    0.00  1.0000
  -2   3   7    8189    1052                                                        5553    0.80    0.00  1.0000
  -2   3   6  274161   10678                                                      253699   -0.99    0.00  1.0000
  -2   3   5 1124819   20456                                                     1170290    1.06    0.00  1.0000
  -2   3   4  933024   15394                                                      898395   -0.90    0.00  1.0000
  -2   3   3  943202   13214                                                      963705    0.52    0.00  1.0000
  -2   3   3  932186   16788                                                      952569    0.52    0.00  1.0000
  -2   3   2    2173     892                                                        2189   -0.01    0.00  1.0000
  -2   3   2    1906     866                                                        1921   -0.01    0.00  1.0000
  -2   3   1  202300    6510                                                      211954   -0.53    0.00  1.0000
  -2   3   1  207055    8299                                                      216821   -0.53    0.00  1.0000
  -2   3   1  199918    8563                                                      209516   -0.53    0.00  1.0000
  -2   3   0  216104    8520                                                      197959    0.99    0.00  1.0000
  -2   3   0  232379    8477                                                      213548    0.99    0.00  1.0000
  -2   3  -1  372431   10543                                                      405309   -1.31    0.00  1.0000
  -2   3  -1  373294   12875                                                      406209   -1.31    0.00  1.0000
  -2   3  -2   74514    5393                                                       59695    1.43    0.00  1.0000
  -2   3  -3   48878    2874                                                       61261   -1.32    0.00  1.0000
  -2   3  -3   49936    5766                                                       62444   -1.32    0.00  1.0000
  -2   3  -3   48629    2820                                                       60982   -1.32    0.00  1.0000
  -2   3  -4     449     620                                                       -1018    1.06    0.00  1.0000
  -2   3  -4    2188     613                                                         655    1.06    0.00  1.0000
  -2   3  -4     449     415                                                         -64    1.06    0.00  1.0000
  -2   3  -5   37098    2820                                                       43516   -0.80    0.00  1.0000
  -2   3  -5   35849    2361                                                       42162   -0.80    0.00  1.0000
  -2   3  -5   36621    2354                                                       43000   -0.80    0.00  1.0000
  -2   3  -6    1296     823                                                        2435    0.66    0.00  1.0000
  -2   3  -6     948     585                                                        1947    0.66    0.00  1.0000
  -2   3  -6     695     608                                                        1576    0.66    0.00  1.0000
  -2   3  -7   19408    1748                                                       15951   -0.65    0.00  1.0000
  -2   3  -7   17186    1261                                                       13943   -0.65    0.00  1.0000
  -2   3  -7   17563    1359                                                       14283   -0.65    0.00  1.0000
  -2   3  -8   65420    2890                                                       71945    0.62    0.00  1.0000
  -2   3  -8   60554    2377                                                       66837    0.62    0.00  1.0000
  -2   3  -9   27564    1031                                                       24503   -0.47    0.00  1.0000
  -2   2  12     533     389                                                         574   -0.04    0.00  1.0000
   2  -2 -12    1025     511                                                        1081   -0.04    0.00  1.0000
  -2   2  11     692     585                                                         754    0.06    0.00  1.0000
  -2   2  10   40559    2564                                                       39005   -0.19    0.00  1.0000
  -2   2   9  459391    8817                                                      471718    0.45    0.00  1.0000
  -2   2   8  148523    3970                                                      136872   -0.77    0.00  1.0000
  -2   2   8  142006    8969                                                      130619   -0.77    0.00  1.0000
  -2   2   8  144935    4585                                                      133429   -0.77    0.00  1.0000
  -2   2   7  254585    6111                                                      276943    1.08    0.00  1.0000
  -2   2   7  262149   12353                                                      284829    1.08    0.00  1.0000
  -2   2   6  155645    8127                                                      135405   -1.32    0.00  1.0000
  -2   2   5    3997    2035                                                        8406    1.42    0.00  1.0000
  -2   2   4   14119    2589                                                       20858   -1.27    0.00  1.0000
  -2   2   3 1429715   20152                                                     1389830    0.84    0.00  1.0000
  -2   2   3 1453051   17420                                                     1412840    0.84    0.00  1.0000
  -2   2   2  484857    8623                                                      489319   -0.16    0.00  1.0000
  -2   2   2  483659    8333                                                      488116   -0.16    0.00  1.0000
  -2   2   2  490909   10775                                                      495399   -0.16    0.00  1.0000
  -2   2   1   35304    2848                                                       39767   -0.57    0.00  1.0000
  -2   2   1   35912    2935                                                       40413   -0.57    0.00  1.0000
  -2   2   0   24791    1775                                                       18019    1.16    0.00  1.0000
  -2   2   0   26702    2329                                                       19653    1.16    0.00  1.0000
  -2   2   0   27206    2213                                                       20086    1.16    0.00  1.0000
  -2   2  -1   63982    3975                                                       49762   -1.49    0.00  1.0000
  -2   2  -1   66508    2835                                                       51993   -1.49    0.00  1.0000
  -2   2  -2   12685    2989                                                       20918    1.59    0.00  1.0000
  -2   2  -3  172885    7881                                                      148224   -1.53    0.00  1.0000
  -2   2  -4   89836    7210                                                      106672    1.34    0.00  1.0000
  -2   2  -5  282299    6239                                                      260215   -1.06    0.00  1.0000
  -2   2  -5  272928   11512                                                      251221   -1.06    0.00  1.0000
  -2   2  -5  269521    5832                                                      247953   -1.06    0.00  1.0000
  -2   2  -6   87440    3779                                                       97101    0.79    0.00  1.0000
  -2   2  -6   86306    3663                                                       95906    0.79    0.00  1.0000
  -2   2  -6   86112    4057                                                       95701    0.79    0.00  1.0000
  -2   2  -7   10894    1390                                                        8364   -0.64    0.00  1.0000
  -2   2  -7   11077    1269                                                        8523   -0.64    0.00  1.0000
  -2   2  -7   12195    1235                                                        9508   -0.64    0.00  1.0000
  -2   2  -8   14144    1462                                                       11466    0.59    0.00  1.0000
  -2   2  -8   13890    1218                                                       11238    0.59    0.00  1.0000
  -2   2  -8   15643    1401                                                       12819    0.59    0.00  1.0000
  -2   2  -9   45107    1873                                                       49603   -0.51    0.00  1.0000
  -2   2  -9   53846    2334                                                       58748   -0.51    0.00  1.0000
  -2   2 -10    2128     372                                                        1537    0.34    0.00  1.0000
   2  -1 -12    5204     576                                                        4883   -0.11    0.00  1.0000
  -2   1  12    6632     678                                                        6269   -0.11    0.00  1.0000
  -2   1  11   21133    1659                                                       21905    0.13    0.00  1.0000
   2  -1 -11   16017    1594                                                       16690    0.13    0.00  1.0000
  -2   1  10  104527    3987                                                      101413   -0.24    0.00  1.0000
  -2   1   9    3251     859                                                        2286    0.46    0.00  1.0000
  -2   1   8    6333    1246                                                        8929   -0.74    0.00  1.0000
  -2   1   8    4663    2279                                                        6923   -0.74    0.00  1.0000
  -2   1   7  326042    6313                                                      302759    1.03    0.00  1.0000
   2  -1  -7  333327    6067                                                      309780    1.03    0.00  1.0000
  -2   1   7  334511   13013                                                      310922    1.03    0.00  1.0000
  -2   1   6  788839   19631                                                      834900   -1.27    0.00  1.0000
  -2   1   5  344921   11134                                                      312786    1.40    0.00  1.0000
  -2   1   4  339002   10733                                                      370480   -1.32    0.00  1.0000
  -2   1   3  292705    8557                                                      313398    0.94    0.00  1.0000
  -2   1   2  112302    4414                                                      109241   -0.23    0.00  1.0000
  -2   1   2  122997    5190                                                      119793   -0.23    0.00  1.0000
  -2   1   1   47420    2868                                                       41915   -0.65    0.00  1.0000
  -2   1   1   48882    2415                                                       43290   -0.65    0.00  1.0000
  -2   1   0  635933   10527                                                      680992    1.38    0.00  1.0000
  -2   1   0  641631   10971                                                      686888    1.38    0.00  1.0000
  -2   1  -1   84178    3226                                                       65365   -1.72    0.00  1.0000
  -2   1  -1   87556    3991                                                       68346   -1.72    0.00  1.0000
  -2   1  -2  126924    5057                                                      151781    1.66    0.00  1.0000
  -2   1  -2  123424    6388                                                      147951    1.66    0.00  1.0000
  -2   1  -3   26656    3619                                                       36917   -1.44    0.00  1.0000
  -2   1  -4     559    1400                                                        2348    1.24    0.00  1.0000
  -2   1  -5   76560    6361                                                       88726   -1.05    0.00  1.0000
  -2   1  -6  155949    8323                                                      143093    0.83    0.00  1.0000
  -2   1  -6  159196    4641                                                      146204    0.83    0.00  1.0000
  -2   1  -6  155896    4690                                                      143043    0.83    0.00  1.0000
  -2   1  -6  161090    4345                                                      148020    0.83    0.00  1.0000
  -2   1  -7  161083    5003                                                      170679   -0.59    0.00  1.0000
  -2   1  -7  160107    5212                                                      169674   -0.59    0.00  1.0000
  -2   1  -8   33069    2190                                                       30033    0.43    0.00  1.0000
  -2   1  -8   36227    2483                                                       33046    0.43    0.00  1.0000
  -2   1  -8   34184    2227                                                       31096    0.43    0.00  1.0000
  -2   1  -9    9758    1150                                                        8392   -0.36    0.00  1.0000
  -2   1  -9    9054    1188                                                        7740   -0.36    0.00  1.0000
  -2   1 -10     235     497                                                          90    0.29    0.00  1.0000
  -2   1 -10     629     364                                                         370    0.29    0.00  1.0000
  -2   0  11    8658     986                                                        8340    0.09    0.00  1.0000
   2   0 -11    8337     872                                                        8025    0.09    0.00  1.0000
  -2   0  10  163211    4958                                                      166435   -0.20    0.00  1.0000
   2   0 -10  144140    4695                                                      147171   -0.20    0.00  1.0000
  -2   0   9   38764    2473                                                       35824    0.38    0.00  1.0000
  -2   0   8  120073    4526                                                      127869   -0.55    0.00  1.0000
   2   0  -8  130503    4437                                                      138626   -0.55    0.00  1.0000
  -2   0   8  132446    9332                                                      140628   -0.55    0.00  1.0000
  -2   0   7   69351    2938                                                       62437    0.67    0.00  1.0000
   2   0  -7   65831    2765                                                       59099    0.67    0.00  1.0000
  -2   0   7   62169    5641                                                       55632    0.67    0.00  1.0000
  -2   0   6   20715    2959                                                       16646   -0.74    0.00  1.0000
  -2   0   5  198603    9171                                                      212452    0.76    0.00  1.0000
  -2   0   4 1734852   23191                                                     1699590   -0.67    0.00  1.0000
  -2   0   3   43740    3483                                                       46987    0.38    0.00  1.0000
  -2   0   2  817868   12691                                                      811635    0.17    0.00  1.0000
  -2   0   2  858875   13045                                                      852488    0.17    0.00  1.0000
  -2   0   1 1324106   14400                                                     1366940   -0.92    0.00  1.0000
  -2   0   1 1344510   15707                                                     1387670   -0.92    0.00  1.0000
  -2   0   0 1378067   14142                                                     1303040    1.61    0.00  1.0000
  -2   0   0 1359883   12898                                                     1285360    1.61    0.00  1.0000
  -2   0  -1     156     925                                                        2636   -1.93    0.00  1.0000
  -2   0  -1       1     776                                                        1578   -1.93    0.00  1.0000
  -2   0  -2  390141    8680                                                      347231    1.76    0.00  1.0000
  -2   0  -2  369831    7547                                                      328086    1.76    0.00  1.0000
  -2   0  -2  380968    3209                                                      338580    1.76    0.00  1.0000
  -2   0  -3  519681   12289                                                      557948   -1.30    0.00  1.0000
  -2   0  -3  498072   10441                                                      535550   -1.30    0.00  1.0000
  -2   0  -3  521428    5118                                                      559759   -1.30    0.00  1.0000
  -2   0  -4 1261794    9074                                                     1221630    0.90    0.00  1.0000
  -2   0  -4 1294353   19877                                                     1253670    0.90    0.00  1.0000
  -2   0  -5  317014   11113                                                      333255   -0.71    0.00  1.0000
  -2   0  -6   13443    2769                                                       16446    0.61    0.00  1.0000
  -2   0  -7  203604    5644                                                      195379   -0.46    0.00  1.0000
  -2   0  -7  214655    5773                                                      206207   -0.46    0.00  1.0000
  -2   0  -7  211976    5262                                                      203581   -0.46    0.00  1.0000
  -2   0  -8  262252    6893                                                      268037    0.28    0.00  1.0000
  -2   0  -8  265741    6737                                                      271564    0.28    0.00  1.0000
  -2   0  -8  264756    6331                                                      270569    0.28    0.00  1.0000
  -2   0  -9   44572    2627                                                       42935   -0.19    0.00  1.0000
  -2   0  -9   46972    2617                                                       45291   -0.19    0.00  1.0000
  -2   0 -10  113830    3740                                                      116640    0.21    0.00  1.0000
  -2   0 -10  109358    3775                                                      112112    0.21    0.00  1.0000
  -2   0 -11      15     365                                                        -645   -0.20    0.00  1.0000
  -2   0 -11      48     372                                                         118   -0.20    0.00  1.0000
  -2  -1  11    5342     688                                                        5430   -0.03    0.00  1.0000
  -2  -1  10   52648    2599                                                       52514   -0.01    0.00  1.0000
   2   1 -10   50131    2085                                                       50000   -0.01    0.00  1.0000
   2   1  -9   36861    2349                                                       38032    0.15    0.00  1.0000
  -2  -1   9   43648    2728                                                       44922    0.15    0.00  1.0000
   2   1  -8  118293    4086                                                      114720   -0.26    0.00  1.0000
  -2  -1   8  119651    4362                                                      116057   -0.26    0.00  1.0000
   2   1  -7  124883    4108                                                      128372    0.24    0.00  1.0000
   2   1  -7  117533    4405                                                      120918    0.24    0.00  1.0000
  -2  -1   7  111282    8017                                                      114577    0.24    0.00  1.0000
  -2  -1   6     574     907                                                         470   -0.11    0.00  1.0000
  -2  -1   6       5     933                                                        -186   -0.11    0.00  1.0000
  -2  -1   5    1108    1161                                                        1207   -0.07    0.00  1.0000
  -2  -1   5    1320    1086                                                        1427   -0.07    0.00  1.0000
  -2  -1   4  706812   15142                                                      696397    0.31    0.00  1.0000
  -2  -1   4  667658   13596                                                      657537    0.31    0.00  1.0000
  -2  -1   3  385202    9473                                                      401459   -0.65    0.00  1.0000
  -2  -1   3  377913   10222                                                      394017   -0.65    0.00  1.0000
  -2  -1   2  824731   12157                                                      785512    1.09    0.00  1.0000
  -2  -1   2  805580   12665                                                      766825    1.09    0.00  1.0000
  -2  -1   1 4134384   26285                                                     4262950   -1.56    0.00  1.0000
  -2  -1   0 1513232   14305                                                     1419910    1.92    0.00  1.0000
  -2  -1  -1  756212   11127                                                      827159   -1.99    0.00  1.0000
  -2  -1  -2   73747    4034                                                       93110    1.67    0.00  1.0000
  -2  -1  -2   74316    1813                                                       93750    1.67    0.00  1.0000
  -2  -1  -3   12758    2086                                                       18191   -1.09    0.00  1.0000
  -2  -1  -3   14190    1007                                                       19894   -1.09    0.00  1.0000
  -2  -1  -4   77624    2310                                                       83784    0.54    0.00  1.0000
  -2  -1  -5  327454    5158                                                      321584   -0.26    0.00  1.0000
  -2  -1  -6  187986    4561                                                      191797    0.22    0.00  1.0000
  -2  -1  -7   29370    2064                                                       27874   -0.22    0.00  1.0000
  -2  -1  -7   27716    2038                                                       26263   -0.22    0.00  1.0000
  -2  -1  -7   25421    1974                                                       24030   -0.22    0.00  1.0000
  -2  -1  -7   25723    1746                                                       24324   -0.22    0.00  1.0000
  -2  -1  -8   58140    2868                                                       56657    0.15    0.00  1.0000
  -2  -1  -8   55891    3125                                                       54437    0.15    0.00  1.0000
  -2  -1  -8   55103    3083                                                       53660    0.15    0.00  1.0000
  -2  -1  -9    7973    1329                                                        8336   -0.10    0.00  1.0000
  -2  -1  -9    6249    1169                                                        6570   -0.10    0.00  1.0000
  -2  -1 -10  133903    4541                                                      131729    0.15    0.00  1.0000
  -2  -1 -10  132500    4128                                                      130338    0.15    0.00  1.0000
  -2  -1 -11   26272    1712                                                       27806   -0.23    0.00  1.0000
  -2  -1 -11   24556    1730                                                       26041   -0.23    0.00  1.0000
  -2  -1 -12   17854     977                                                       16713    0.22    0.00  1.0000
  -2  -2  10   11124    1099                                                       11629    0.12    0.00  1.0000
   2   2 -10    9592     976                                                       10061    0.12    0.00  1.0000
  -2  -2   9   12020    1390                                                       11599   -0.10    0.00  1.0000
  -2  -2   8     912     697                                                         854    0.05    0.00  1.0000
   2   2  -8       1     575                                                        -276    0.05    0.00  1.0000
   2   2  -7  113171    4439                                                      114331   -0.09    0.00  1.0000
   2   2  -7  115718    3990                                                      116891   -0.09    0.00  1.0000
   2   2  -6  279078    6383                                                      273642    0.26    0.00  1.0000
   2   2  -6  285975    5756                                                      280472    0.26    0.00  1.0000
  -2  -2   6  296503   12063                                                      290899    0.26    0.00  1.0000
  -2  -2   5  876569   19595                                                      896519   -0.53    0.00  1.0000
  -2  -2   4   20237    2089                                                       15579    0.87    0.00  1.0000
   2   2  -4   24245    1129                                                       19118    0.87    0.00  1.0000
  -2  -2   4   25151    2817                                                       19924    0.87    0.00  1.0000
   2   2  -3   53153    1459                                                       41841   -1.29    0.00  1.0000
  -2  -2   3   53776    3759                                                       42394   -1.29    0.00  1.0000
  -2  -2   3   51705    2940                                                       40557   -1.29    0.00  1.0000
  -2  -2   2   12893    2428                                                       22235    1.77    0.00  1.0000
  -2  -2   2   17759    2245                                                       28503    1.77    0.00  1.0000
  -2  -2   1   63038    2619                                                       43243   -2.15    0.00  1.0000
  -2  -2   0  444304    7350                                                      386272    2.24    0.00  1.0000
  -2  -2  -1  246925    5626                                                      208929   -1.98    0.00  1.0000
  -2  -2  -2  454452    9512                                                      494138    1.43    0.00  1.0000
  -2  -2  -3  744744   12578                                                      718420   -0.77    0.00  1.0000
   2   2   3  752261    8429                                                      725804   -0.77    0.00  1.0000
  -2  -2  -4     601     391                                                         431    0.19    0.00  1.0000
  -2  -2  -5  790024    8051                                                      785292    0.13    0.00  1.0000
  -2  -2  -6  650339    8240                                                      655759   -0.17    0.00  1.0000
  -2  -2  -7  376879    6932                                                      375412    0.06    0.00  1.0000
  -2  -2  -8   35727    2518                                                       35550    0.02    0.00  1.0000
  -2  -2  -8   32659    2109                                                       32490    0.02    0.00  1.0000
  -2  -2  -8   33214    2414                                                       33043    0.02    0.00  1.0000
  -2  -2  -9  110195    4041                                                      110904   -0.05    0.00  1.0000
  -2  -2  -9  113967    4584                                                      114688   -0.05    0.00  1.0000
  -2  -2  -9  116259    4730                                                      116987   -0.05    0.00  1.0000
  -2  -2 -10   13278    1691                                                       13780    0.11    0.00  1.0000
  -2  -2 -10   14820    1758                                                       15350    0.11    0.00  1.0000
  -2  -2 -10   11945    1442                                                       12421    0.11    0.00  1.0000
  -2  -2 -11   36649    1984                                                       35097   -0.20    0.00  1.0000
  -2  -2 -11   34220    2193                                                       32721   -0.20    0.00  1.0000
  -2  -2 -12   62861    2406                                                       65392    0.25    0.00  1.0000
  -2  -3  10   12605     798                                                       12108    0.11    0.00  1.0000
   2   3 -10   11285     793                                                       10816    0.11    0.00  1.0000
  -2  -3   9   25802    1778                                                       26949   -0.18    0.00  1.0000
  -2  -3   8   38243    2404                                                       36547    0.22    0.00  1.0000
   2   3  -7      65     650                                                         178   -0.26    0.00  1.0000
   2   3  -7      20     553                                                          95   -0.26    0.00  1.0000
   2   3  -6   11725    1538                                                       13345    0.36    0.00  1.0000
   2   3  -6   11301    1402                                                       12892    0.36    0.00  1.0000
   2   3  -5  332391    5883                                                      320196   -0.53    0.00  1.0000
   2   3  -5  335515    6766                                                      323262   -0.53    0.00  1.0000
   2   3  -4  120634    3263                                                      131993    0.80    0.00  1.0000
   2   3  -3   60503    2020                                                       49428   -1.18    0.00  1.0000
  -2  -3   2  279883    6365                                                      315993    1.65    0.00  1.0000
   2   3  -2  277948    4484                                                      313937    1.65    0.00  1.0000
  -2  -3   1      86     562                                                        1022   -2.05    0.00  1.0000
   2   3  -1      49     541                                                        1171   -2.05    0.00  1.0000
  -2  -3   0   92400    4010                                                      120852    2.17    0.00  1.0000
  -2  -3  -1  175888    5678                                                      209207   -1.89    0.00  1.0000
   2   3   2   20324    1786                                                       13597    1.29    0.00  1.0000
  -2  -3  -2   19008    1664                                                       12524    1.29    0.00  1.0000
   2   3   3  537503    9927                                                      555122   -0.59    0.00  1.0000
   2   3   4 1429755   15312                                                     1429360    0.01    0.00  1.0000
  -2  -3  -4 1422774    9918                                                     1422380    0.01    0.00  1.0000
  -2  -3  -5  172631    3795                                                      167126    0.33    0.00  1.0000
  -2  -3  -6   27075    1645                                                       24498   -0.40    0.00  1.0000
  -2  -3  -7  554565    8397                                                      562664    0.27    0.00  1.0000
  -2  -3  -8  271915    6392                                                      270157   -0.08    0.00  1.0000
  -2  -3  -8  283793    6995                                                      281997   -0.08    0.00  1.0000
  -2  -3  -8  276890    5647                                                      275116   -0.08    0.00  1.0000
  -2  -3  -9  355165    8277                                                      353948   -0.05    0.00  1.0000
  -2  -3  -9  366150    8436                                                      364915   -0.05    0.00  1.0000
  -2  -3  -9  369385    6878                                                      368144   -0.05    0.00  1.0000
  -2  -3 -10   33438    2577                                                       34368    0.13    0.00  1.0000
  -2  -3 -10   34940    2187                                                       35891    0.13    0.00  1.0000
  -2  -3 -10   34415    2630                                                       35358    0.13    0.00  1.0000
  -2  -3 -11   10114    1307                                                        9414   -0.18    0.00  1.0000
  -2  -3 -11    8483    1296                                                        7843   -0.18    0.00  1.0000
  -2  -3 -12      16     504                                                        -202    0.20    0.00  1.0000
  -2  -4   9    3215     493                                                        2931   -0.13    0.00  1.0000
   2   4  -9    3235     595                                                        2949   -0.13    0.00  1.0000
  -2  -4   8   39276    2219                                                       40950    0.21    0.00  1.0000
   2   4  -7   55085    2966                                                       52387   -0.29    0.00  1.0000
   2   4  -6  114237    4644                                                      119051    0.35    0.00  1.0000
   2   4  -6  113956    3773                                                      118764    0.35    0.00  1.0000
   2   4  -5     169     529                                                          24   -0.40    0.00  1.0000
   2   4  -5      65     412                                                         -46   -0.40    0.00  1.0000
   2   4  -4   17341    1517                                                       14786    0.50    0.00  1.0000
   2   4  -4   15039    1183                                                       12667    0.50    0.00  1.0000
   2   4  -3   36437    4239                                                       42193   -0.72    0.00  1.0000
   2   4  -3   34143    2052                                                       39722   -0.72    0.00  1.0000
   2   4  -2  302508    5226                                                      279296    1.07    0.00  1.0000
   2   4  -1   44812    2235                                                       57846   -1.44    0.00  1.0000
   2   4   0  446263   11481                                                      403629    1.63    0.00  1.0000
   2   4   0  447810    5456                                                      405100    1.63    0.00  1.0000
   2   4   1   85329    2631                                                      104145   -1.52    0.00  1.0000
   2   4   1   76608    5494                                                       94485   -1.52    0.00  1.0000
   2   4   2    6249     581                                                        3151    1.14    0.00  1.0000
   2   4   2    6407    1233                                                        3264    1.14    0.00  1.0000
   2   4   3  430291    4684                                                      414097   -0.62    0.00  1.0000
   2   4   3  447540   10625                                                      431022   -0.62    0.00  1.0000
   2   4   4 1899679   22332                                                     1906510    0.12    0.00  1.0000
   2   4   4 1886214    9409                                                     1893020    0.12    0.00  1.0000
   2   4   5  605434   12262                                                      612656    0.23    0.00  1.0000
  -2  -4  -5  572020    7427                                                      579041    0.23    0.00  1.0000
  -2  -4  -6  332128    5868                                                      323584   -0.37    0.00  1.0000
  -2  -4  -7   95129    3558                                                       98864    0.30    0.00  1.0000
  -2  -4  -8  239782    5903                                                      237885   -0.10    0.00  1.0000
  -2  -4  -8  244726    6602                                                      242809   -0.10    0.00  1.0000
  -2  -4  -9     769     696                                                         888   -0.10    0.00  1.0000
  -2  -4  -9    1029     747                                                        1166   -0.10    0.00  1.0000
  -2  -4  -9     930     615                                                        1060   -0.10    0.00  1.0000
  -2  -4 -10   74787    3867                                                       72472    0.21    0.00  1.0000
  -2  -4 -10   72976    3721                                                       70689    0.21    0.00  1.0000
  -2  -4 -11  122483    4470                                                      125740   -0.23    0.00  1.0000
  -2  -4 -11  122469    4623                                                      125726   -0.23    0.00  1.0000
  -2  -4 -12   20089    1573                                                       18995    0.19    0.00  1.0000
  -2  -4 -12   20622    1540                                                       19513    0.19    0.00  1.0000
  -2  -4 -13    3431     539                                                        3133   -0.13    0.00  1.0000
  -2  -5   8    2231     457                                                        1975    0.14    0.00  1.0000
   2   5  -7   31598    2140                                                       33267   -0.23    0.00  1.0000
   2   5  -6  124612    4486                                                      120053    0.32    0.00  1.0000
   2   5  -5   44456    2992                                                       47689   -0.37    0.00  1.0000
   2   5  -4    9637    1321                                                        8158    0.39    0.00  1.0000
   2   5  -3   53766    5215                                                       58091   -0.46    0.00  1.0000
   2   5  -3   56725    3021                                                       61165   -0.46    0.00  1.0000
   2   5  -2    1269     908                                                         520    0.64    0.00  1.0000
   2   5  -1   18169    3344                                                       23310   -0.89    0.00  1.0000
   2   5  -1   18178    1722                                                       23319   -0.89    0.00  1.0000
   2   5   0  192529    4833                                                      211719    1.06    0.00  1.0000
   2   5   0  197054    9625                                                      216463    1.06    0.00  1.0000
   2   5   1  309367    5369                                                      286498   -1.04    0.00  1.0000
   2   5   1  316448   10806                                                      293314   -1.04    0.00  1.0000
   2   5   2  721138    8214                                                      750181    0.84    0.00  1.0000
   2   5   2  728832   16768                                                      758028    0.84    0.00  1.0000
   2   5   3  946182   18469                                                      924662   -0.55    0.00  1.0000
   2   5   3  981286    8851                                                      959368   -0.55    0.00  1.0000
   2   5   4   15222    2556                                                       16513    0.26    0.00  1.0000
   2   5   4   14167    1135                                                       15413    0.26    0.00  1.0000
   2   5   5   65382    4799                                                       65364    0.00    0.00  1.0000
  -2  -5  -5   62688    2522                                                       62670    0.00    0.00  1.0000
   2   5   6  450227   12413                                                      454351   -0.15    0.00  1.0000
  -2  -5  -6  452232    7129                                                      456365   -0.15    0.00  1.0000
  -2  -5  -7  154689    4427                                                      152537    0.14    0.00  1.0000
  -2  -5  -8  107923    3991                                                      107593    0.03    0.00  1.0000
  -2  -5  -8  112873    4597                                                      112535    0.03    0.00  1.0000
  -2  -5  -9    1424     984                                                        1121   -0.21    0.00  1.0000
  -2  -5  -9    2180     779                                                        1800   -0.21    0.00  1.0000
  -2  -5 -10   23821    2147                                                       25742    0.30    0.00  1.0000
  -2  -5 -10   21590    1990                                                       23422    0.30    0.00  1.0000
  -2  -5 -10   22983    2346                                                       24871    0.30    0.00  1.0000
  -2  -5 -11   30755    2303                                                       28809   -0.28    0.00  1.0000
  -2  -5 -11   29233    2079                                                       27336   -0.28    0.00  1.0000
  -2  -5 -12   25649    1862                                                       27000    0.21    0.00  1.0000
  -2  -5 -12   25040    1732                                                       26375    0.21    0.00  1.0000
  -2  -5 -13   10900     804                                                       10329   -0.14    0.00  1.0000
  -2  -6   7    7415     757                                                        7969   -0.16    0.00  1.0000
   2   6  -6    1259     638                                                        1668    0.27    0.00  1.0000
   2   6  -5    6111    1084                                                        4948   -0.39    0.00  1.0000
   2   6  -4    5881    1250                                                        7386    0.46    0.00  1.0000
   2   6  -3   65681    3246                                                       60882   -0.48    0.00  1.0000
   2   6  -2   25728    2230                                                       29121    0.51    0.00  1.0000
   2   6  -2   20988    3544                                                       24063    0.51    0.00  1.0000
   2   6  -1   84646    6461                                                       77581   -0.62    0.00  1.0000
   2   6  -1   84848    3398                                                       77774   -0.62    0.00  1.0000
   2   6   0    2568    1557                                                        4264    0.73    0.00  1.0000
   2   6   1   16878    1687                                                       20855   -0.72    0.00  1.0000
   2   6   1   17062    3354                                                       21060   -0.72    0.00  1.0000
   2   6   2  297191   11801                                                      284781    0.57    0.00  1.0000
   2   6   2  310523    5928                                                      297835    0.57    0.00  1.0000
   2   6   3 1046020   22306                                                     1061250   -0.37    0.00  1.0000
   2   6   3 1065608   10762                                                     1080980   -0.37    0.00  1.0000
   2   6   4  197897    9511                                                      194313    0.20    0.00  1.0000
   2   6   5   45356    4678                                                       46105   -0.09    0.00  1.0000
  -2  -6  -6    1904     641                                                        1953    0.03    0.00  1.0000
   2   6   6     864    1075                                                         897    0.03    0.00  1.0000
  -2  -6  -7     177     549                                                         209   -0.06    0.00  1.0000
  -2  -6  -8  127098    4324                                                      129788    0.19    0.00  1.0000
  -2  -6  -9  256717    7282                                                      250136   -0.33    0.00  1.0000
  -2  -6  -9  264364    6246                                                      257685   -0.33    0.00  1.0000
  -2  -6 -10  162957    5004                                                      168686    0.35    0.00  1.0000
  -2  -6 -10  155626    4853                                                      161225    0.35    0.00  1.0000
  -2  -6 -10  162341    5926                                                      168059    0.35    0.00  1.0000
  -2  -6 -11   19788    1577                                                       18435   -0.24    0.00  1.0000
  -2  -6 -11   24131    2086                                                       22634   -0.24    0.00  1.0000
  -2  -6 -12       1     514                                                           2    0.11    0.00  1.0000
  -2  -6 -12       5     413                                                        -565    0.11    0.00  1.0000
  -2  -6 -13    7419     667                                                        7224   -0.06    0.00  1.0000
  -2  -7   6   15118     899                                                       15888    0.15    0.00  1.0000
   2   7  -5     746     468                                                         464   -0.29    0.00  1.0000
   2   7  -4     434     713                                                         880    0.44    0.00  1.0000
   2   7  -3   19711    2063                                                       22803   -0.53    0.00  1.0000
   2   7  -2   25892    2045                                                       22602    0.53    0.00  1.0000
   2   7  -2   22296    1896                                                       19251    0.53    0.00  1.0000
   2   7  -2   25605    1788                                                       22334    0.53    0.00  1.0000
   2   7  -1  134595    4386                                                      142158   -0.51    0.00  1.0000
   2   7  -1  132018    4904                                                      139509   -0.51    0.00  1.0000
   2   7   0  162539    9578                                                      154177    0.52    0.00  1.0000
   2   7   0  148966    4930                                                      140965    0.52    0.00  1.0000
   2   7   1  175047   10502                                                      184062   -0.53    0.00  1.0000
   2   7   1  172238    5425                                                      181182   -0.53    0.00  1.0000
   2   7   2   94308    3765                                                       88855    0.45    0.00  1.0000
   2   7   2   93749    7253                                                       88311    0.45    0.00  1.0000
   2   7   3   35705    2298                                                       33504   -0.29    0.00  1.0000
   2   7   3   36689    4526                                                       34457   -0.29    0.00  1.0000
   2   7   4   34776    4598                                                       35997    0.16    0.00  1.0000
   2   7   4   40298    2539                                                       41611    0.16    0.00  1.0000
   2   7   5  159230    4812                                                      157485   -0.11    0.00  1.0000
   2   7   5  160276    9489                                                      158525   -0.11    0.00  1.0000
  -2  -7  -5  159155    4421                                                      157410   -0.11    0.00  1.0000
   2   7   5  159925    4582                                                      158176   -0.11    0.00  1.0000
   2   7   6  100453    7500                                                      102039    0.12    0.00  1.0000
  -2  -7  -6  109247    3793                                                      110900    0.12    0.00  1.0000
   2   7   6  103965    3781                                                      105578    0.12    0.00  1.0000
   2   7   7  124162    4026                                                      121585   -0.18    0.00  1.0000
  -2  -7  -7  127964    4144                                                      125348   -0.18    0.00  1.0000
  -2  -7  -8    7843    1212                                                        8863    0.28    0.00  1.0000
   2   7   8    6740    1093                                                        7688    0.28    0.00  1.0000
  -2  -7  -9   35671    2343                                                       38448   -0.36    0.00  1.0000
  -2  -7 -10   82705    4043                                                       78913    0.33    0.00  1.0000
  -2  -7 -11   73978    3610                                                       75828   -0.17    0.00  1.0000
  -2  -7 -12   39839    2138                                                       40022   -0.02    0.00  1.0000
   2   8  -4   15416    1166                                                       14305    0.23    0.00  1.0000
   2   8  -3   21900    1798                                                       24180   -0.37    0.00  1.0000
   2   8  -2   26558    1611                                                       23669    0.45    0.00  1.0000
   2   8  -2   28774    2037                                                       25762    0.45    0.00  1.0000
   2   8  -1     893     807                                                        1502   -0.44    0.00  1.0000
   2   8  -1     644     546                                                        1173   -0.44    0.00  1.0000
   2   8   0   22860    1991                                                       25372    0.40    0.00  1.0000
   2   8   0   23052    2203                                                       25575    0.40    0.00  1.0000
   2   8   1  155561    5217                                                      149366   -0.39    0.00  1.0000
   2   8   2  284581    7277                                                      293095    0.39    0.00  1.0000
   2   8   3   11396    1440                                                        9933   -0.35    0.00  1.0000
   2   8   4   11431    1417                                                       10238    0.29    0.00  1.0000
   2   8   5   75930    3740                                                       78719   -0.25    0.00  1.0000
   2   8   6   34092    2424                                                       32150    0.27    0.00  1.0000
   2   8   7  119612    4535                                                      123844   -0.30    0.00  1.0000
   2   8   7  115800    4214                                                      119965   -0.30    0.00  1.0000
   2   8   8  163837    4889                                                      158523    0.33    0.00  1.0000
   2   8   8  160072    4645                                                      154820    0.33    0.00  1.0000
   2   8   9   71300    3094                                                       74891   -0.33    0.00  1.0000
   2   8   9   68515    2939                                                       72036   -0.33    0.00  1.0000
  -2  -8 -10   11140    1522                                                       10027    0.27    0.00  1.0000
  -2  -8 -11     473     593                                                         584   -0.12    0.00  1.0000
  -2  -8 -12    3360     622                                                        3503   -0.06    0.00  1.0000
   2   9  -2   20887    1447                                                       22221    0.23    0.00  1.0000
   2   9  -1   22702    1340                                                       20895   -0.30    0.00  1.0000
   2   9  -1   23425    1652                                                       21589   -0.30    0.00  1.0000
   2   9   0    9383    1188                                                       10680    0.32    0.00  1.0000
   2   9   0    9162    1301                                                       10444    0.32    0.00  1.0000
   2   9   0    9636    1359                                                       10949    0.32    0.00  1.0000
   2   9   1    1947     915                                                        2557   -0.32    0.00  1.0000
   2   9   1    1471     708                                                        2007   -0.32    0.00  1.0000
   2   9   2   73582    3555                                                       69865    0.35    0.00  1.0000
   2   9   3   46090    3015                                                       49502   -0.39    0.00  1.0000
   2   9   4   73245    3548                                                       68786    0.42    0.00  1.0000
   2   9   5   67370    3625                                                       71863   -0.42    0.00  1.0000
   2   9   6   66431    3305                                                       62118    0.42    0.00  1.0000
   2   9   7     698     565                                                         330   -0.41    0.00  1.0000
   2   9   8   70624    3306                                                       74632    0.37    0.00  1.0000
   2   9   9   66388    2724                                                       63308   -0.30    0.00  1.0000
  -2  -9 -10   36655    2403                                                       38298    0.21    0.00  1.0000
  -2  -9 -11   26272    1731                                                       25619   -0.10    0.00  1.0000
  -2  -9 -12   32468    1396                                                       32361   -0.01    0.00  1.0000
   2  10   0   41596    1770                                                       40128    0.18    0.00  1.0000
   2  10   1   49464    2250                                                       51429   -0.22    0.00  1.0000
   2  10   1   49134    1958                                                       51092   -0.22    0.00  1.0000
   2  10   2    3985     816                                                        3394    0.24    0.00  1.0000
   2  10   2    3309     646                                                        2773    0.24    0.00  1.0000
   2  10   3      34     627                                                        -614   -0.29    0.00  1.0000
   2  10   4   11801    1480                                                       13457    0.37    0.00  1.0000
   2  10   5   19028    1673                                                       16719   -0.43    0.00  1.0000
   2  10   6  104914    3987                                                      110811    0.45    0.00  1.0000
   2  10   7  118982    3846                                                      113391   -0.41    0.00  1.0000
   2  10   8   24278    1741                                                       26369    0.33    0.00  1.0000
   2  10   9      21     357                                                        -174   -0.23    0.00  1.0000
  -2 -10 -10    2508     637                                                        2228    0.14    0.00  1.0000
  -2 -10 -11    2139     451                                                        2278   -0.07    0.00  1.0000
   2  11   3       3     376                                                        -451   -0.09    0.00  1.0000
   2  11   3       3     339                                                        -339   -0.09    0.00  1.0000
   2  11   4       0     288                                                           9    0.15    0.00  1.0000
   2  11   4     148     354                                                         230    0.15    0.00  1.0000
   2  11   5   12840    1093                                                       11780   -0.24    0.00  1.0000
   2  11   6      37     384                                                         -20    0.30    0.00  1.0000
   2  11   7   17840    1275                                                       19441   -0.29    0.00  1.0000
   2  11   8    9579     770                                                        8777    0.21    0.00  1.0000
  -3   8   8    4082     523                                                        3993    0.03    0.00  1.0000
  -3   8   7   22709    1148                                                       22719    0.00    0.00  1.0000
  -3   8   7   23924    1225                                                       23934    0.00    0.00  1.0000
  -3   8   6   78134    2304                                                       79106   -0.09    0.00  1.0000
  -3   8   6   73305    2058                                                       74247   -0.09    0.00  1.0000
  -3   8   5      12     375                                                        -264    0.17    0.00  1.0000
  -3   8   4  105853    2787                                                      108268   -0.18    0.00  1.0000
  -3   8   3       5     378                                                        -198    0.11    0.00  1.0000
  -3   8   3     394     254                                                         313    0.11    0.00  1.0000
  -3   8   2       0     296                                                        -227   -0.01    0.00  1.0000
  -3   7  10  110038    2271                                                      109300    0.06    0.00  1.0000
  -3   7  10  140534    2847                                                      139700    0.06    0.00  1.0000
  -3   7   9   27553    1477                                                       27562    0.00    0.00  1.0000
  -3   7   9   29851    1591                                                       29860    0.00    0.00  1.0000
  -3   7   8   17227    1372                                                       17329   -0.02    0.00  1.0000
  -3   7   8   17036    1345                                                       17137   -0.02    0.00  1.0000
  -3   7   7   61554    2657                                                       61394    0.02    0.00  1.0000
  -3   7   7   62242    2635                                                       62081    0.02    0.00  1.0000
  -3   7   6    8130    1122                                                        8305   -0.05    0.00  1.0000
  -3   7   6    7833    1005                                                        8004   -0.05    0.00  1.0000
  -3   7   5  105538    3618                                                      103877    0.13    0.00  1.0000
  -3   7   5  106193    3364                                                      104527    0.13    0.00  1.0000
  -3   7   4  125921    3974                                                      123265   -0.19    0.00  1.0000
  -3   7   3   59692    2579                                                       61293    0.16    0.00  1.0000
  -3   7   3   62133    2853                                                       63765    0.16    0.00  1.0000
  -3   7   2   18253    1443                                                       17847   -0.08    0.00  1.0000
  -3   7   2   17366    1502                                                       16970   -0.08    0.00  1.0000
  -3   7   1       0     502                                                        -116    0.00    0.00  1.0000
  -3   7   1     669     525                                                         670    0.00    0.00  1.0000
  -3   7   0   32019    1755                                                       31774    0.03    0.00  1.0000
  -3   7  -1       1     358                                                         -45   -0.06    0.00  1.0000
  -3   7  -2   14169     866                                                       13796    0.08    0.00  1.0000
  -3   6  11   84857    2285                                                       85893   -0.09    0.00  1.0000
  -3   6  10     961     490                                                        1068    0.08    0.00  1.0000
  -3   6   9   15118    1430                                                       15103    0.00    0.00  1.0000
  -3   6   8   32573    2131                                                       31913   -0.09    0.00  1.0000
  -3   6   7   83479    3474                                                       84972    0.13    0.00  1.0000
  -3   6   6   23804    1932                                                       24507   -0.11    0.00  1.0000
  -3   6   5   60774    3217                                                       61839    0.11    0.00  1.0000
  -3   6   5   65268    3010                                                       66371    0.11    0.00  1.0000
  -3   6   4   64157    3262                                                       65443   -0.13    0.00  1.0000
  -3   6   4   64035    2771                                                       65320   -0.13    0.00  1.0000
  -3   6   4   67592    2959                                                       68912   -0.13    0.00  1.0000
  -3   6   3   44339    2622                                                       43382    0.11    0.00  1.0000
  -3   6   3   44177    2451                                                       43221    0.11    0.00  1.0000
  -3   6   2   44172    2586                                                       44540   -0.04    0.00  1.0000
  -3   6   2   47301    2737                                                       47682   -0.04    0.00  1.0000
  -3   6   1  171573    5006                                                      172053   -0.03    0.00  1.0000
  -3   6   1  170839    5138                                                      171318   -0.03    0.00  1.0000
  -3   6   0   26899    2029                                                       26618    0.04    0.00  1.0000
  -3   6   0   26860    1970                                                       26580    0.04    0.00  1.0000
  -3   6   0   29032    2117                                                       28740    0.04    0.00  1.0000
  -3   6  -1   98039    3599                                                       98377   -0.03    0.00  1.0000
  -3   6  -1  103117    3664                                                      103464   -0.03    0.00  1.0000
  -3   6  -2    5043     854                                                        4891    0.05    0.00  1.0000
  -3   6  -3    1483     543                                                        1297   -0.12    0.00  1.0000
  -3   6  -4    5955     685                                                        6464    0.16    0.00  1.0000
  -3   5  11  107834    3010                                                      106067   -0.13    0.00  1.0000
  -3   5  10    4850     915                                                        5247    0.14    0.00  1.0000
  -3   5   9     315     558                                                         277   -0.05    0.00  1.0000
  -3   5   8   12175    1482                                                       11772   -0.09    0.00  1.0000
  -3   5   7   33826    2311                                                       32322    0.21    0.00  1.0000
  -3   5   6    2187     714                                                        1784   -0.23    0.00  1.0000
  -3   5   6    1398     654                                                        1080   -0.23    0.00  1.0000
  -3   5   5  770198   10233                                                      763701    0.18    0.00  1.0000
  -3   5   5  736757   10468                                                      730403    0.18    0.00  1.0000
  -3   5   4  275971    5530                                                      279136   -0.15    0.00  1.0000
  -3   5   4  270310    5885                                                      273442   -0.15    0.00  1.0000
  -3   5   3   38593    2500                                                       37675    0.12    0.00  1.0000
  -3   5   3   39394    2263                                                       38467    0.12    0.00  1.0000
  -3   5   2    7061    1151                                                        7171   -0.03    0.00  1.0000
  -3   5   2    7953    1225                                                        8069   -0.03    0.00  1.0000
  -3   5   1   75003    3473                                                       73965   -0.09    0.00  1.0000
  -3   5   1   74178    3356                                                       73146   -0.09    0.00  1.0000
  -3   5   0    4258     917                                                        3831    0.17    0.00  1.0000
  -3   5   0    5819     985                                                        5318    0.17    0.00  1.0000
  -3   5   0    6873    1122                                                        6328    0.17    0.00  1.0000
  -3   5  -1   78806    3461                                                       77376   -0.13    0.00  1.0000
  -3   5  -1   84811    3721                                                       83327   -0.13    0.00  1.0000
  -3   5  -1   81150    3464                                                       79698   -0.13    0.00  1.0000
  -3   5  -2   83985    3605                                                       84566    0.05    0.00  1.0000
  -3   5  -2   87059    3521                                                       87650    0.05    0.00  1.0000
  -3   5  -3   36890    2326                                                       36517   -0.05    0.00  1.0000
  -3   5  -4   11145    1272                                                       11697    0.13    0.00  1.0000
  -3   5  -5    3399     737                                                        3847   -0.19    0.00  1.0000
  -3   4  12    9008     778                                                        9614    0.16    0.00  1.0000
  -3   4  11   37074    2034                                                       38875   -0.23    0.00  1.0000
  -3   4  10   34094    2165                                                       32465    0.22    0.00  1.0000
  -3   4   9   42388    2686                                                       43296   -0.11    0.00  1.0000
  -3   4   8  176832    5356                                                      178065   -0.07    0.00  1.0000
  -3   4   8  182744    5515                                                      183997   -0.07    0.00  1.0000
  -3   4   7    6286    1085                                                        5554    0.24    0.00  1.0000
  -3   4   7    5448    1103                                                        4768    0.24    0.00  1.0000
  -3   4   6  324793    7001                                                      331833   -0.31    0.00  1.0000
  -3   4   6  334584    7038                                                      341729   -0.31    0.00  1.0000
  -3   4   5   99953    3714                                                      103564    0.28    0.00  1.0000
  -3   4   5  105602    3878                                                      109312    0.28    0.00  1.0000
  -3   4   4  138551    3943                                                      135046   -0.24    0.00  1.0000
  -3   4   4  149000    4252                                                      145364   -0.24    0.00  1.0000
  -3   4   3  171250    4426                                                      174746    0.21    0.00  1.0000
  -3   4   3  164904    4261                                                      168335    0.21    0.00  1.0000
  -3   4   2  565518    8871                                                      560866   -0.15    0.00  1.0000
  -3   4   2  543098    8174                                                      538539   -0.15    0.00  1.0000
  -3   4   1   11148    1321                                                       11214    0.02    0.00  1.0000
  -3   4   1   10610    2256                                                       10674    0.02    0.00  1.0000
  -3   4   1   10973    1313                                                       11039    0.02    0.00  1.0000
  -3   4   0   95522    3491                                                       97474    0.16    0.00  1.0000
  -3   4   0   96954    7403                                                       98921    0.16    0.00  1.0000
  -3   4   0   95592    3776                                                       97545    0.16    0.00  1.0000
  -3   4   0   96609    3838                                                       98572    0.16    0.00  1.0000
  -3   4  -1    4279     770                                                        4917   -0.23    0.00  1.0000
  -3   4  -1    5549    1138                                                        6273   -0.23    0.00  1.0000
  -3   4  -1    4235     964                                                        4871   -0.23    0.00  1.0000
  -3   4  -1    6150    1133                                                        6911   -0.23    0.00  1.0000
  -3   4  -1    5393    2049                                                        6107   -0.23    0.00  1.0000
  -3   4  -2   17806    1778                                                       16904    0.17    0.00  1.0000
  -3   4  -2   20297    1766                                                       19333    0.17    0.00  1.0000
  -3   4  -2   20757    1844                                                       19782    0.17    0.00  1.0000
  -3   4  -2   17353    1411                                                       16463    0.17    0.00  1.0000
  -3   4  -3     741     623                                                         812   -0.06    0.00  1.0000
  -3   4  -3    1264     576                                                        1356   -0.06    0.00  1.0000
  -3   4  -4   32776    1898                                                       32484    0.04    0.00  1.0000
  -3   4  -4   29892    1894                                                       29613    0.04    0.00  1.0000
  -3   4  -4   32562    2340                                                       32271    0.04    0.00  1.0000
  -3   4  -5   45092    2599                                                       45997   -0.11    0.00  1.0000
  -3   4  -5   38704    1799                                                       39543   -0.11    0.00  1.0000
  -3   4  -6     186     589                                                         281    0.15    0.00  1.0000
  -3   3  12   97640    2488                                                       96325    0.11    0.00  1.0000
  -3   3  11    8242    1060                                                        9104   -0.23    0.00  1.0000
  -3   3  10     205     587                                                         385    0.26    0.00  1.0000
  -3   3   9     853     699                                                        1045   -0.16    0.00  1.0000
  -3   3   9     512     634                                                         663   -0.16    0.00  1.0000
  -3   3   8   69699    3218                                                       69042   -0.06    0.00  1.0000
  -3   3   8   71285    3505                                                       70620   -0.06    0.00  1.0000
  -3   3   7    1465     709                                                        1056    0.29    0.00  1.0000
  -3   3   7    2191     642                                                        1683    0.29    0.00  1.0000
  -3   3   7      33    1203                                                        -311    0.29    0.00  1.0000
  -3   3   6  811568   22004                                                      796338   -0.42    0.00  1.0000
  -3   3   6  772537   10332                                                      757679   -0.42    0.00  1.0000
  -3   3   6  796708    9949                                                      781619   -0.42    0.00  1.0000
  -3   3   6  796747   19172                                                      781657   -0.42    0.00  1.0000
  -3   3   5  107862    7767                                                      113710    0.44    0.00  1.0000
  -3   3   5  111752    3674                                                      117703    0.44    0.00  1.0000
  -3   3   5  100743    6348                                                      106397    0.44    0.00  1.0000
  -3   3   4    2055    1307                                                        1415   -0.38    0.00  1.0000
  -3   3   3   14548    2580                                                       16200    0.33    0.00  1.0000
  -3   3   2  125144    6501                                                      129251   -0.29    0.00  1.0000
  -3   3   1   38788    3791                                                       40344    0.19    0.00  1.0000
  -3   3   0  297842   11795                                                      298560   -0.03    0.00  1.0000
  -3   3  -1  232319    5353                                                      234882   -0.13    0.00  1.0000
  -3   3  -1  247367    5597                                                      250011   -0.13    0.00  1.0000
  -3   3  -1  229196   10906                                                      231741   -0.13    0.00  1.0000
  -3   3  -2    1191     544                                                         928    0.20    0.00  1.0000
  -3   3  -2     925     582                                                         694    0.20    0.00  1.0000
  -3   3  -2      44     543                                                           7    0.20    0.00  1.0000
  -3   3  -2     902    1623                                                         675    0.20    0.00  1.0000
  -3   3  -2     448     408                                                         293    0.20    0.00  1.0000
  -3   3  -3   28949    1973                                                       27865   -0.16    0.00  1.0000
  -3   3  -3   29583    2128                                                       28487   -0.16    0.00  1.0000
  -3   3  -3   25972    1898                                                       24945   -0.16    0.00  1.0000
  -3   3  -3   28564    2115                                                       27487   -0.16    0.00  1.0000
  -3   3  -3   33350    4586                                                       32185   -0.16    0.00  1.0000
  -3   3  -4  265331    6558                                                      267111    0.09    0.00  1.0000
  -3   3  -4  260769    5984                                                      262534    0.09    0.00  1.0000
  -3   3  -4  267960    5688                                                      269749    0.09    0.00  1.0000
  -3   3  -5  233040    5558                                                      231943   -0.06    0.00  1.0000
  -3   3  -5  249410    6316                                                      248275   -0.06    0.00  1.0000
  -3   3  -6    9263    1313                                                        9518    0.07    0.00  1.0000
  -3   3  -6    8027    1029                                                        8265    0.07    0.00  1.0000
  -3   3  -6   10018    1055                                                       10283    0.07    0.00  1.0000
  -3   3  -7   35365    2101                                                       34957   -0.05    0.00  1.0000
  -3   3  -7   32178    1557                                                       31789   -0.05    0.00  1.0000
  -3   3  -7   34463    1581                                                       34059   -0.05    0.00  1.0000
  -3   2  12   18020    1068                                                       17872   -0.03    0.00  1.0000
   3  -2 -12   11798     852                                                       11678   -0.03    0.00  1.0000
  -3   2  11    4051     795                                                        3845   -0.08    0.00  1.0000
  -3   2  10    5388    1088                                                        5888    0.17    0.00  1.0000
  -3   2   9  101619    4102                                                       99814   -0.14    0.00  1.0000
  -3   2   9   93634    3435                                                       91901   -0.14    0.00  1.0000
  -3   2   8    5159    1114                                                        5087   -0.03    0.00  1.0000
  -3   2   8    4228     945                                                        4162   -0.03    0.00  1.0000
  -3   2   7  135462    4695                                                      139670    0.28    0.00  1.0000
  -3   2   7  137642    4267                                                      141884    0.28    0.00  1.0000
  -3   2   7  148384    9705                                                      152787    0.28    0.00  1.0000
  -3   2   7  124402    9456                                                      128436    0.28    0.00  1.0000
  -3   2   6  624809    9241                                                      641255   -0.51    0.00  1.0000
  -3   2   6  638886    8589                                                      655515   -0.51    0.00  1.0000
  -3   2   6  658438   19352                                                      675317   -0.51    0.00  1.0000
  -3   2   6  645928   20512                                                      662647   -0.51    0.00  1.0000
  -3   2   5  667996   16759                                                      647751    0.62    0.00  1.0000
  -3   2   5  624761   18023                                                      605187    0.62    0.00  1.0000
  -3   2   4  277506   11398                                                      290032   -0.59    0.00  1.0000
  -3   2   4  268278    9871                                                      280596   -0.59    0.00  1.0000
  -3   2   3  462144   13064                                                      449548    0.46    0.00  1.0000
  -3   2   3  454944   10883                                                      442447    0.46    0.00  1.0000
  -3   2   2  134329    6530                                                      129597   -0.32    0.00  1.0000
  -3   2   2  137351    5088                                                      132566   -0.32    0.00  1.0000
  -3   2   1    2830    1134                                                        2438    0.19    0.00  1.0000
  -3   2   1    2511    1154                                                        2142    0.19    0.00  1.0000
  -3   2   0  283575    9721                                                      282253   -0.06    0.00  1.0000
  -3   2   0  275945    8542                                                      274641   -0.06    0.00  1.0000
  -3   2  -1  348684   11805                                                      347481   -0.05    0.00  1.0000
  -3   2  -1  351660    9288                                                      350452   -0.05    0.00  1.0000
  -3   2  -2   89576    6492                                                       91081    0.12    0.00  1.0000
  -3   2  -3  452236    7386                                                      448206   -0.15    0.00  1.0000
  -3   2  -3  459481    7537                                                      455419   -0.15    0.00  1.0000
  -3   2  -3  466119    7532                                                      462028   -0.15    0.00  1.0000
  -3   2  -4  246947    5200                                                      249690    0.14    0.00  1.0000
  -3   2  -4  249504   11901                                                      252261    0.14    0.00  1.0000
  -3   2  -4  248676    5897                                                      251428    0.14    0.00  1.0000
  -3   2  -4  248265    5977                                                      251015    0.14    0.00  1.0000
  -3   2  -4  239963    5212                                                      242667    0.14    0.00  1.0000
  -3   2  -5    5718    1108                                                        5414   -0.10    0.00  1.0000
  -3   2  -5    4096     916                                                        3840   -0.10    0.00  1.0000
  -3   2  -5    3939     764                                                        3688   -0.10    0.00  1.0000
  -3   2  -6    9316    1401                                                        9490    0.04    0.00  1.0000
  -3   2  -6    9782    1269                                                        9960    0.04    0.00  1.0000
  -3   2  -6    9372    1192                                                        9547    0.04    0.00  1.0000
  -3   2  -7   54359    2931                                                       54078    0.03    0.00  1.0000
  -3   2  -7   47294    2534                                                       47033    0.03    0.00  1.0000
  -3   2  -7   52404    2482                                                       52129    0.03    0.00  1.0000
  -3   2  -8    7535     927                                                        7897   -0.10    0.00  1.0000
  -3   2  -8    6602     925                                                        6942   -0.10    0.00  1.0000
  -3   1  12     577     265                                                         642   -0.07    0.00  1.0000
  -3   1  11    8691    1038                                                        8524    0.04    0.00  1.0000
  -3   1  10   11478    1412                                                       11484    0.00    0.00  1.0000
  -3   1   9  132462    4729                                                      132899   -0.03    0.00  1.0000
  -3   1   8   50595    2927                                                       50741   -0.02    0.00  1.0000
  -3   1   8   49609    2439                                                       49753   -0.02    0.00  1.0000
  -3   1   7  812123   10992                                                      805621    0.18    0.00  1.0000
   3  -1  -7  817149    9960                                                      810627    0.18    0.00  1.0000
  -3   1   7  819070    9520                                                      812540    0.18    0.00  1.0000
  -3   1   7  847236   22654                                                      840594    0.18    0.00  1.0000
  -3   1   7  806799   22155                                                      800318    0.18    0.00  1.0000
  -3   1   6   47460    5626                                                       51136   -0.41    0.00  1.0000
  -3   1   6   52622    6020                                                       56489   -0.41    0.00  1.0000
  -3   1   5   11441    3001                                                       14084    0.58    0.00  1.0000
  -3   1   5   13349    2927                                                       16193    0.58    0.00  1.0000
  -3   1   4    9201    2075                                                        7082   -0.59    0.00  1.0000
  -3   1   4    6409    1589                                                        4664   -0.59    0.00  1.0000
  -3   1   3  701444   16191                                                      715710    0.42    0.00  1.0000
  -3   1   3  678129   14445                                                      692157    0.42    0.00  1.0000
  -3   1   2    2518    1236                                                        2169   -0.18    0.00  1.0000
  -3   1   1  903858   15814                                                      901961   -0.05    0.00  1.0000
  -3   1   1  899194   13300                                                      897302   -0.05    0.00  1.0000
  -3   1   0  370126    9713                                                      375301    0.21    0.00  1.0000
  -3   1   0  377514    9968                                                      382740    0.21    0.00  1.0000
  -3   1  -1   14197    2285                                                       15543   -0.27    0.00  1.0000
  -3   1  -1   12410    1898                                                       13671   -0.27    0.00  1.0000
  -3   1  -2    4304    1548                                                        3693    0.24    0.00  1.0000
  -3   1  -2    3108    1097                                                        2593    0.24    0.00  1.0000
  -3   1  -3  324975   11896                                                      328585   -0.16    0.00  1.0000
  -3   1  -3  323170    9191                                                      326770   -0.16    0.00  1.0000
  -3   1  -4  215535   10121                                                      213779    0.09    0.00  1.0000
  -3   1  -5    1444     581                                                        1334   -0.07    0.00  1.0000
  -3   1  -5      78    1367                                                          54   -0.07    0.00  1.0000
  -3   1  -5     875     605                                                         790   -0.07    0.00  1.0000
  -3   1  -5       2     628                                                        -250   -0.07    0.00  1.0000
  -3   1  -5     517     631                                                         452   -0.07    0.00  1.0000
  -3   1  -6  106704    4253                                                      106069    0.05    0.00  1.0000
  -3   1  -6  106387    4140                                                      105753    0.05    0.00  1.0000
  -3   1  -6  104382    3847                                                      103754    0.05    0.00  1.0000
  -3   1  -7    1935     755                                                        1890    0.03    0.00  1.0000
  -3   1  -7    2281     895                                                        2232    0.03    0.00  1.0000
  -3   1  -7     353     614                                                         334    0.03    0.00  1.0000
  -3   1  -8    3011     961                                                        3300   -0.13    0.00  1.0000
  -3   1  -8    3896     948                                                        4223   -0.13    0.00  1.0000
  -3   1  -8    3391     954                                                        3696   -0.13    0.00  1.0000
  -3   1  -9   22049    1579                                                       23228    0.20    0.00  1.0000
  -3   1  -9   24236    1676                                                       25472    0.20    0.00  1.0000
  -3   1 -10  150147    2612                                                      147206   -0.19    0.00  1.0000
  -3   0  11    1657     520                                                        1580    0.05    0.00  1.0000
  -3   0  10   37488    2394                                                       38050   -0.07    0.00  1.0000
  -3   0   9    3857     863                                                        3662    0.08    0.00  1.0000
  -3   0   8   32999    2415                                                       33567   -0.08    0.00  1.0000
   3   0  -8   30022    2299                                                       30565   -0.08    0.00  1.0000
  -3   0   7  451084    8366                                                      454103    0.11    0.00  1.0000
   3   0  -7  473442    7906                                                      476535    0.11    0.00  1.0000
  -3   0   7  473278   17146                                                      476371    0.11    0.00  1.0000
  -3   0   7  437656   15492                                                      440630    0.11    0.00  1.0000
  -3   0   6  284318    6033                                                      280001   -0.20    0.00  1.0000
  -3   0   6  281774   12158                                                      277476   -0.20    0.00  1.0000
  -3   0   6  295922   12916                                                      291517   -0.20    0.00  1.0000
  -3   0   5   72083    6205                                                       75142    0.28    0.00  1.0000
  -3   0   5   66957    5761                                                       69906    0.28    0.00  1.0000
  -3   0   4  231242    9479                                                      226827   -0.23    0.00  1.0000
  -3   0   4  234344    9565                                                      229899   -0.23    0.00  1.0000
  -3   0   3  160080    7441                                                      159900    0.01    0.00  1.0000
  -3   0   3  154148    7118                                                      153971    0.01    0.00  1.0000
  -3   0   2    9690    1964                                                       10838    0.28    0.00  1.0000
  -3   0   1  973884   16134                                                      994691   -0.52    0.00  1.0000
  -3   0   0 1157183   16752                                                     1129290    0.65    0.00  1.0000
  -3   0  -1   92676    5148                                                      100964   -0.66    0.00  1.0000
  -3   0  -1   97138    5195                                                      105619   -0.66    0.00  1.0000
  -3   0  -2  465181   10691                                                      449946    0.56    0.00  1.0000
  -3   0  -2  471247   11795                                                      455912    0.56    0.00  1.0000
  -3   0  -3   13991    2501                                                       15728   -0.35    0.00  1.0000
  -3   0  -3   10291    1825                                                       11788   -0.35    0.00  1.0000
  -3   0  -4  144215    7777                                                      146162    0.13    0.00  1.0000
  -3   0  -5     654    1159                                                         638    0.01    0.00  1.0000
  -3   0  -6  224203    5803                                                      223322   -0.05    0.00  1.0000
  -3   0  -6  232324    5981                                                      231428   -0.05    0.00  1.0000
  -3   0  -6  236306    5586                                                      235402   -0.05    0.00  1.0000
  -3   0  -7   21553    1986                                                       21811    0.04    0.00  1.0000
  -3   0  -7   22720    2034                                                       22985    0.04    0.00  1.0000
  -3   0  -7   23251    1923                                                       23520    0.04    0.00  1.0000
  -3   0  -8   81292    3624                                                       80382   -0.08    0.00  1.0000
  -3   0  -8   79469    3566                                                       78569   -0.08    0.00  1.0000
  -3   0  -9   67894    3143                                                       69367    0.14    0.00  1.0000
  -3   0  -9   68416    3098                                                       69895    0.14    0.00  1.0000
  -3   0 -10   58916    2406                                                       60542   -0.17    0.00  1.0000
  -3   0 -10   62438    2491                                                       64112   -0.17    0.00  1.0000
  -3  -1  11   11099     903                                                       11244    0.03    0.00  1.0000
  -3  -1  10   89294    3332                                                       88583   -0.06    0.00  1.0000
  -3  -1   9   59349    3116                                                       60236    0.09    0.00  1.0000
   3   1  -8  289308    6487                                                      286744   -0.12    0.00  1.0000
  -3  -1   8  279607    6922                                                      277086   -0.12    0.00  1.0000
  -3  -1   7   16821    1680                                                       16154    0.13    0.00  1.0000
   3   1  -7   17139    1600                                                       16466    0.13    0.00  1.0000
  -3  -1   7   14593    3462                                                       13972    0.13    0.00  1.0000
   3   1  -6  161588    4736                                                      163352   -0.11    0.00  1.0000
  -3  -1   6  150457    8466                                                      152160   -0.11    0.00  1.0000
   3   1  -6  157646    4497                                                      159389   -0.11    0.00  1.0000
  -3  -1   6  169100    9875                                                      170905   -0.11    0.00  1.0000
  -3  -1   6  161901    4753                                                      163667   -0.11    0.00  1.0000
  -3  -1   5  152103    8088                                                      151667    0.03    0.00  1.0000
  -3  -1   5  158000    8904                                                      157555    0.03    0.00  1.0000
  -3  -1   4  586160   14547                                                      580930    0.17    0.00  1.0000
  -3  -1   4  596713   15636                                                      591436    0.17    0.00  1.0000
  -3  -1   3    6286    1442                                                        4790   -0.50    0.00  1.0000
  -3  -1   3    5676    1483                                                        4259   -0.50    0.00  1.0000
  -3  -1   2  360523    9995                                                      339939    0.87    0.00  1.0000
  -3  -1   1   99997    5396                                                      114449   -1.10    0.00  1.0000
  -3  -1   0   35536    3433                                                       44567    1.13    0.00  1.0000
  -3  -1  -1      91     918                                                         879   -1.00    0.00  1.0000
  -3  -1  -2  869773    6107                                                      900475    0.81    0.00  1.0000
  -3  -1  -2  900073   15309                                                      931300    0.81    0.00  1.0000
  -3  -1  -3  705197   13786                                                      686324   -0.56    0.00  1.0000
  -3  -1  -3  698223    5937                                                      679444   -0.56    0.00  1.0000
  -3  -1  -4    6090    1607                                                        6909    0.25    0.00  1.0000
  -3  -1  -4    7985     810                                                        8918    0.25    0.00  1.0000
  -3  -1  -5  334154    5350                                                      334938    0.03    0.00  1.0000
  -3  -1  -6   54543    2817                                                       56224   -0.18    0.00  1.0000
  -3  -1  -6   54571    2562                                                       56252   -0.18    0.00  1.0000
  -3  -1  -6   58055    3032                                                       59788   -0.18    0.00  1.0000
  -3  -1  -7   31662    2259                                                       30487    0.17    0.00  1.0000
  -3  -1  -7   32714    2319                                                       31520    0.17    0.00  1.0000
  -3  -1  -7   32180    2145                                                       30996    0.17    0.00  1.0000
  -3  -1  -7   32702    2450                                                       31508    0.17    0.00  1.0000
  -3  -1  -8  255331    6709                                                      257444   -0.10    0.00  1.0000
  -3  -1  -8  262165    6264                                                      264306   -0.10    0.00  1.0000
  -3  -1  -9  491953    8993                                                      489584    0.08    0.00  1.0000
  -3  -1  -9  505779    8523                                                      503376    0.08    0.00  1.0000
  -3  -1 -10    2423     766                                                        2234   -0.10    0.00  1.0000
  -3  -1 -10    1187     645                                                        1056   -0.10    0.00  1.0000
  -3  -1 -11    6320     747                                                        6037    0.09    0.00  1.0000
  -3  -2  10     473     471                                                         423   -0.06    0.00  1.0000
  -3  -2   9     554     571                                                         495    0.06    0.00  1.0000
  -3  -2   8  317865    7303                                                      319817   -0.09    0.00  1.0000
   3   2  -8  312283    6625                                                      314217   -0.09    0.00  1.0000
  -3  -2   7  106346    4259                                                      104752    0.12    0.00  1.0000
   3   2  -7  111825    4350                                                      110190    0.12    0.00  1.0000
   3   2  -7  109711    3953                                                      108092    0.12    0.00  1.0000
  -3  -2   6    8467    2548                                                        8909   -0.12    0.00  1.0000
   3   2  -6   10970    1462                                                       11472   -0.12    0.00  1.0000
   3   2  -6   11146    1376                                                       11652   -0.12    0.00  1.0000
  -3  -2   5   15754    3016                                                       15737    0.00    0.00  1.0000
   3   2  -4  132302    2958                                                      136166    0.26    0.00  1.0000
  -3  -2   4  136230    6830                                                      140151    0.26    0.00  1.0000
  -3  -2   4  134004    7914                                                      137893    0.26    0.00  1.0000
  -3  -2   3    3511    1078                                                        2117   -0.66    0.00  1.0000
  -3  -2   2  897883   15627                                                      939513    1.08    0.00  1.0000
  -3  -2   1 1022573   15287                                                      968027   -1.36    0.00  1.0000
  -3  -2   0   44141    3717                                                       56586    1.38    0.00  1.0000
  -3  -2  -1  305959    8218                                                      280253   -1.18    0.00  1.0000
  -3  -2  -2   15406    1872                                                       11273    0.89    0.00  1.0000
   3   2   3  374942    6676                                                      389846   -0.60    0.00  1.0000
  -3  -2  -3  366576   10500                                                      381314   -0.60    0.00  1.0000
  -3  -2  -3  369104    4897                                                      383892   -0.60    0.00  1.0000
  -3  -2  -4    7497    1880                                                        8538    0.29    0.00  1.0000
  -3  -2  -4    6783     836                                                        7774    0.29    0.00  1.0000
  -3  -2  -5  710501    7963                                                      709420    0.03    0.00  1.0000
  -3  -2  -6   69798    2835                                                       72630   -0.26    0.00  1.0000
  -3  -2  -7  199786    5093                                                      194231    0.31    0.00  1.0000
  -3  -2  -7  209468    5619                                                      203779    0.31    0.00  1.0000
  -3  -2  -7  206358    5820                                                      200712    0.31    0.00  1.0000
  -3  -2  -7  201582    4976                                                      196002    0.31    0.00  1.0000
  -3  -2  -8   31410    2471                                                       32945   -0.21    0.00  1.0000
  -3  -2  -8   30969    2236                                                       32493   -0.21    0.00  1.0000
  -3  -2  -8   33105    2640                                                       34681   -0.21    0.00  1.0000
  -3  -2  -9  292716    7210                                                      294958    0.10    0.00  1.0000
  -3  -2  -9  289306    6651                                                      291535    0.10    0.00  1.0000
  -3  -2  -9  301433    7587                                                      303708    0.10    0.00  1.0000
  -3  -2 -10    4674     955                                                        4516   -0.06    0.00  1.0000
  -3  -2 -10    3620     865                                                        3481   -0.06    0.00  1.0000
  -3  -2 -11   99322    3373                                                       99882    0.04    0.00  1.0000
  -3  -2 -12    2417     463                                                        2402   -0.01    0.00  1.0000
  -3  -3  10   14379     916                                                       14516   -0.03    0.00  1.0000
  -3  -3   9   55430    2512                                                       54948    0.05    0.00  1.0000
  -3  -3   8   27840    2129                                                       27502   -0.05    0.00  1.0000
   3   3  -8   25158    1868                                                       24837   -0.05    0.00  1.0000
   3   3  -7   48514    2923                                                       49054    0.06    0.00  1.0000
   3   3  -7   49467    2707                                                       50012    0.06    0.00  1.0000
   3   3  -6   66751    3351                                                       65929   -0.08    0.00  1.0000
   3   3  -6   63539    3013                                                       62738   -0.08    0.00  1.0000
   3   3  -5  199349    5470                                                      200070    0.04    0.00  1.0000
   3   3  -5  199512    4972                                                      200233    0.04    0.00  1.0000
   3   3  -4    3889     734                                                        4220    0.13    0.00  1.0000
   3   3  -3   94578    2660                                                       89275   -0.44    0.00  1.0000
  -3  -3   2   36532    2778                                                       30677    0.80    0.00  1.0000
  -3  -3   1  286167    8354                                                      309721   -1.07    0.00  1.0000
  -3  -3   0   30867    2318                                                       23249    1.16    0.00  1.0000
  -3  -3  -1  621090   12452                                                      653936   -1.02    0.00  1.0000
  -3  -3  -2  283443    8373                                                      267255    0.77    0.00  1.0000
   3   3   3   47789    2924                                                       43597   -0.49    0.00  1.0000
  -3  -3  -3   50534    3711                                                       46220   -0.49    0.00  1.0000
  -3  -3  -4  353283    5357                                                      348202    0.21    0.00  1.0000
  -3  -3  -4  340100   10608                                                      335115    0.21    0.00  1.0000
  -3  -3  -5  332804    5707                                                      334299    0.06    0.00  1.0000
  -3  -3  -6  180746    4477                                                      175737   -0.30    0.00  1.0000
  -3  -3  -7  766668   10215                                                      780106    0.38    0.00  1.0000
  -3  -3  -7  783108   10803                                                      796689    0.38    0.00  1.0000
  -3  -3  -7  784767    9662                                                      798362    0.38    0.00  1.0000
  -3  -3  -7  770071   11186                                                      783539    0.38    0.00  1.0000
  -3  -3  -8  910066   11682                                                      898848   -0.29    0.00  1.0000
  -3  -3  -8  888608   12093                                                      877524   -0.29    0.00  1.0000
  -3  -3  -8  894029   12750                                                      882911   -0.29    0.00  1.0000
  -3  -3  -9   37215    2587                                                       36170    0.14    0.00  1.0000
  -3  -3  -9   35165    2324                                                       34150    0.14    0.00  1.0000
  -3  -3  -9   40018    2813                                                       38934    0.14    0.00  1.0000
  -3  -3 -10    5106    1132                                                        5022   -0.03    0.00  1.0000
  -3  -3 -10    5001    1126                                                        4918   -0.03    0.00  1.0000
  -3  -3 -11   56290    2720                                                       56333    0.00    0.00  1.0000
  -3  -3 -12      16     385                                                          12    0.02    0.00  1.0000
  -3  -4   9   95055    2568                                                       95103    0.00    0.00  1.0000
  -3  -4   8       1     518                                                         -89   -0.05    0.00  1.0000
   3   4  -7   37314    2462                                                       36957    0.05    0.00  1.0000
   3   4  -7   37621    2215                                                       37263    0.05    0.00  1.0000
   3   4  -6   37284    2650                                                       37446   -0.02    0.00  1.0000
   3   4  -6   39447    2400                                                       39614   -0.02    0.00  1.0000
   3   4  -5   86143    3810                                                       86139    0.00    0.00  1.0000
   3   4  -5   89004    3480                                                       89000    0.00    0.00  1.0000
   3   4  -4    9916    1289                                                        9748    0.04    0.00  1.0000
   3   4  -4    8372    1007                                                        8217    0.04    0.00  1.0000
   3   4  -4    7201    1005                                                        7058    0.04    0.00  1.0000
   3   4  -3  346975    6216                                                      350675   -0.16    0.00  1.0000
   3   4  -2  455266    6540                                                      446071    0.34    0.00  1.0000
   3   4  -1  116059    3277                                                      123316   -0.52    0.00  1.0000
  -3  -4   0  123825    4924                                                      115452    0.60    0.00  1.0000
  -3  -4  -1  170351    6165                                                      161450   -0.54    0.00  1.0000
  -3  -4  -2  861769   15211                                                      876553    0.39    0.00  1.0000
   3   4   2  846988   15997                                                      861646    0.39    0.00  1.0000
   3   4   3  157148    6563                                                      153473   -0.23    0.00  1.0000
  -3  -4  -3  160482    6897                                                      156768   -0.23    0.00  1.0000
   3   4   4 1742134   20546                                                     1746570    0.08    0.00  1.0000
  -3  -4  -5   94721    3174                                                       95615    0.07    0.00  1.0000
  -3  -4  -6   99338    3454                                                       96485   -0.23    0.00  1.0000
  -3  -4  -7   17601    1590                                                       15999    0.31    0.00  1.0000
  -3  -4  -7   17267    1627                                                       15681    0.31    0.00  1.0000
  -3  -4  -8  681708   10283                                                      690122   -0.25    0.00  1.0000
  -3  -4  -8  684175   10464                                                      692604   -0.25    0.00  1.0000
  -3  -4  -8  663137   11239                                                      671436   -0.25    0.00  1.0000
  -3  -4  -9   14603    1667                                                       15113    0.10    0.00  1.0000
  -3  -4  -9   15139    1694                                                       15658    0.10    0.00  1.0000
  -3  -4  -9   14855    1886                                                       15369    0.10    0.00  1.0000
  -3  -4 -10   82691    3697                                                       82399    0.03    0.00  1.0000
  -3  -4 -10   89584    4180                                                       89280    0.03    0.00  1.0000
  -3  -4 -11       2     672                                                        -384   -0.07    0.00  1.0000
  -3  -4 -11     725     705                                                         651   -0.07    0.00  1.0000
  -3  -4 -12    5935     821                                                        5749    0.06    0.00  1.0000
  -3  -5   8   47202    1930                                                       47530   -0.04    0.00  1.0000
   3   5  -7   76204    3079                                                       75131    0.10    0.00  1.0000
   3   5  -6  127987    4590                                                      128940   -0.07    0.00  1.0000
   3   5  -6  123665    3738                                                      124602   -0.07    0.00  1.0000
   3   5  -5   17905    1575                                                       17943   -0.01    0.00  1.0000
   3   5  -5   16654    1765                                                       16691   -0.01    0.00  1.0000
   3   5  -4   21459    1976                                                       21220    0.04    0.00  1.0000
   3   5  -4   22522    1737                                                       22278    0.04    0.00  1.0000
   3   5  -3   35846    2210                                                       35665   -0.02    0.00  1.0000
   3   5  -3   35486    2356                                                       35306   -0.02    0.00  1.0000
   3   5  -3   36081    2083                                                       35900   -0.02    0.00  1.0000
   3   5  -3   29312    4118                                                       29149   -0.02    0.00  1.0000
   3   5  -2   64287    5888                                                       64473    0.02    0.00  1.0000
   3   5  -2   55314    2933                                                       55486    0.02    0.00  1.0000
   3   5  -2   56129    2806                                                       56303    0.02    0.00  1.0000
   3   5  -1    2069     757                                                        1961   -0.06    0.00  1.0000
   3   5  -1    3957    1782                                                        3807   -0.06    0.00  1.0000
   3   5   0  162185    8591                                                      163812    0.10    0.00  1.0000
   3   5   0  155646    4089                                                      157240    0.10    0.00  1.0000
   3   5   1  125177    7268                                                      124213   -0.07    0.00  1.0000
   3   5   1  130700    3562                                                      129715   -0.07    0.00  1.0000
   3   5   2   11957    1107                                                       12090   -0.03    0.00  1.0000
   3   5   2    9762    2003                                                        9883   -0.03    0.00  1.0000
   3   5   3  177055    8064                                                      178920    0.11    0.00  1.0000
   3   5   3  170911    3713                                                      172744    0.11    0.00  1.0000
   3   5   4  390351   11679                                                      393271   -0.12    0.00  1.0000
   3   5   4  378322    5258                                                      381197   -0.12    0.00  1.0000
   3   5   5  189328    7660                                                      187808    0.09    0.00  1.0000
  -3  -5  -6  690286    9479                                                      693302   -0.09    0.00  1.0000
  -3  -5  -7  525535    9264                                                      522113    0.12    0.00  1.0000
  -3  -5  -7  517985    8568                                                      514588    0.12    0.00  1.0000
  -3  -5  -8  333951    7171                                                      331716   -0.10    0.00  1.0000
  -3  -5  -8  327272    7877                                                      325059   -0.10    0.00  1.0000
  -3  -5  -9    5853    1126                                                        5848    0.00    0.00  1.0000
  -3  -5  -9    4195     911                                                        4191    0.00    0.00  1.0000
  -3  -5  -9    5065    1121                                                        5060    0.00    0.00  1.0000
  -3  -5 -10  247902    6304                                                      250094    0.11    0.00  1.0000
  -3  -5 -10  229615    5881                                                      231724    0.11    0.00  1.0000
  -3  -5 -10  235449    7020                                                      237585    0.11    0.00  1.0000
  -3  -5 -11   14253    1413                                                       13577   -0.14    0.00  1.0000
  -3  -5 -11   15941    1727                                                       15226   -0.14    0.00  1.0000
  -3  -5 -12   16975    1298                                                       17492    0.10    0.00  1.0000
  -3  -5 -12   19383    1571                                                       19935    0.10    0.00  1.0000
  -3  -6   7     184     341                                                         245    0.10    0.00  1.0000
   3   6  -6      10     636                                                        -582   -0.16    0.00  1.0000
   3   6  -5     649     698                                                         545    0.11    0.00  1.0000
   3   6  -4   70610    3488                                                       70335   -0.03    0.00  1.0000
   3   6  -4   75409    2888                                                       75124   -0.03    0.00  1.0000
   3   6  -3   39211    2662                                                       39422    0.03    0.00  1.0000
   3   6  -3   46108    2313                                                       46337    0.03    0.00  1.0000
   3   6  -2       5     682                                                        -509   -0.12    0.00  1.0000
   3   6  -2       5     662                                                        -266   -0.12    0.00  1.0000
   3   6  -2     367     542                                                         461   -0.12    0.00  1.0000
   3   6  -1   27439    2128                                                       26140    0.20    0.00  1.0000
   3   6  -1   22767    1857                                                       21585    0.20    0.00  1.0000
   3   6  -1   21650    3648                                                       20498    0.20    0.00  1.0000
   3   6  -1   21129    1500                                                       19990    0.20    0.00  1.0000
   3   6   0  215000   11001                                                      219006   -0.21    0.00  1.0000
   3   6   0  210118    5606                                                      214078   -0.21    0.00  1.0000
   3   6   0  213744    5640                                                      217738   -0.21    0.00  1.0000
   3   6   1  302625    6466                                                      297874    0.22    0.00  1.0000
   3   6   1  308335   12540                                                      303539    0.22    0.00  1.0000
   3   6   2   26040    3785                                                       27825   -0.27    0.00  1.0000
   3   6   2   27425    2030                                                       29257   -0.27    0.00  1.0000
   3   6   3  627772   16823                                                      616926    0.34    0.00  1.0000
   3   6   3  612226    8307                                                      601516    0.34    0.00  1.0000
   3   6   4    5278     930                                                        6273   -0.33    0.00  1.0000
   3   6   4    3262    1668                                                        4053   -0.33    0.00  1.0000
   3   6   5    4445    1617                                                        4991    0.20    0.00  1.0000
  -3  -6  -6  294798    6319                                                      293657   -0.05    0.00  1.0000
  -3  -6  -7 1069072   12593                                                     1068180   -0.02    0.00  1.0000
  -3  -6  -8   10854    1613                                                       10656    0.05    0.00  1.0000
  -3  -6  -8    9358    1310                                                        9175    0.05    0.00  1.0000
  -3  -6  -9  104514    4110                                                      103189   -0.10    0.00  1.0000
  -3  -6  -9  109486    4803                                                      108129   -0.10    0.00  1.0000
  -3  -6 -10    4748     915                                                        4246    0.19    0.00  1.0000
  -3  -6 -10    6870    1323                                                        6263    0.19    0.00  1.0000
  -3  -6 -11    1861     797                                                        1503   -0.22    0.00  1.0000
  -3  -6 -11     872     451                                                         634   -0.22    0.00  1.0000
  -3  -6 -12     469     366                                                         348    0.15    0.00  1.0000
  -3  -6 -12       9     553                                                        -331    0.15    0.00  1.0000
  -3  -7   6     382     331                                                         480   -0.12    0.00  1.0000
   3   7  -5      13     472                                                         -73    0.18    0.00  1.0000
   3   7  -4   30749    2264                                                       31913   -0.16    0.00  1.0000
   3   7  -3   28914    2227                                                       28056    0.13    0.00  1.0000
   3   7  -2   28171    2310                                                       29300   -0.17    0.00  1.0000
   3   7  -1   78488    3812                                                       75426    0.27    0.00  1.0000
   3   7   0   25583    2303                                                       27917   -0.36    0.00  1.0000
   3   7   0   25482    4276                                                       27811   -0.36    0.00  1.0000
   3   7   1   84723    7393                                                       88998    0.36    0.00  1.0000
   3   7   1   88298    3946                                                       92661    0.36    0.00  1.0000
   3   7   1   89017    3920                                                       93398    0.36    0.00  1.0000
   3   7   1   84587    3065                                                       88858    0.36    0.00  1.0000
   3   7   2   52188    5430                                                       48984   -0.35    0.00  1.0000
   3   7   2   50151    2795                                                       47011   -0.35    0.00  1.0000
   3   7   2   44100    2118                                                       41159   -0.35    0.00  1.0000
   3   7   2   46982    2689                                                       43944   -0.35    0.00  1.0000
   3   7   3  655560    9619                                                      668397    0.39    0.00  1.0000
   3   7   3  668527   19565                                                      681490    0.39    0.00  1.0000
   3   7   3  660096    9950                                                      672977    0.39    0.00  1.0000
   3   7   3  639048    8398                                                      651723    0.39    0.00  1.0000
   3   7   4  237951    5341                                                      229794   -0.42    0.00  1.0000
   3   7   4  237224   11150                                                      229079   -0.42    0.00  1.0000
   3   7   4  234661    5675                                                      226561   -0.42    0.00  1.0000
   3   7   5  238960    5807                                                      245739    0.34    0.00  1.0000
   3   7   5  235627   11245                                                      242359    0.34    0.00  1.0000
   3   7   6   96091    3573                                                       93932   -0.17    0.00  1.0000
   3   7   6   98659    6914                                                       96471   -0.17    0.00  1.0000
  -3  -7  -6  103246    3884                                                      101008   -0.17    0.00  1.0000
  -3  -7  -7  359163    7293                                                      358560    0.03    0.00  1.0000
  -3  -7  -8    6824    1153                                                        6978    0.05    0.00  1.0000
  -3  -7  -9  151220    5631                                                      152696   -0.09    0.00  1.0000
  -3  -7  -9  151619    4805                                                      153097   -0.09    0.00  1.0000
  -3  -7 -10   19289    2048                                                       18328    0.17    0.00  1.0000
  -3  -7 -11   68144    3382                                                       70668   -0.24    0.00  1.0000
  -3  -7 -12  159158    4140                                                      155974    0.20    0.00  1.0000
   3   8  -4      14     511                                                        -667   -0.19    0.00  1.0000
   3   8  -3   13260    1484                                                       14338    0.23    0.00  1.0000
   3   8  -2   35105    2398                                                       33327   -0.24    0.00  1.0000
   3   8  -1   67685    3670                                                       70731    0.29    0.00  1.0000
   3   8  -1   68103    3458                                                       71158    0.29    0.00  1.0000
   3   8   0  114468    4594                                                      109521   -0.37    0.00  1.0000
   3   8   1   57232    3439                                                       61199    0.41    0.00  1.0000
   3   8   2  407508    8553                                                      397834   -0.38    0.00  1.0000
   3   8   3   42540    2913                                                       45500    0.35    0.00  1.0000
   3   8   4   12565    1658                                                       14249   -0.36    0.00  1.0000
   3   8   4   13432    1336                                                       15171   -0.36    0.00  1.0000
   3   8   5  276165    6615                                                      268605    0.36    0.00  1.0000
   3   8   6  549014    9353                                                      557468   -0.28    0.00  1.0000
  -3  -8  -6  547808    9087                                                      556253   -0.28    0.00  1.0000
   3   8   7   89804    3653                                                       91717    0.16    0.00  1.0000
  -3  -8  -7   89516    3679                                                       91426    0.16    0.00  1.0000
  -3  -8  -8    6074    1056                                                        6278   -0.06    0.00  1.0000
  -3  -8  -9   46592    3079                                                       46722    0.02    0.00  1.0000
  -3  -8 -10       1     747                                                          -3    0.05    0.00  1.0000
  -3  -8 -11     596     552                                                         477   -0.13    0.00  1.0000
  -3  -8 -12  109724    3178                                                      111793    0.15    0.00  1.0000
   3   9  -3   24907    1315                                                       26098    0.19    0.00  1.0000
   3   9  -2   26037    1628                                                       24360   -0.26    0.00  1.0000
   3   9  -1    6259    1142                                                        7269    0.31    0.00  1.0000
   3   9   0   26061    2217                                                       28381   -0.35    0.00  1.0000
   3   9   0   29137    2227                                                       31587   -0.35    0.00  1.0000
   3   9   1   10700    1351                                                        9161    0.38    0.00  1.0000
   3   9   2   83626    4021                                                       87887   -0.36    0.00  1.0000
   3   9   3    2113     818                                                        1620    0.28    0.00  1.0000
   3   9   4    1629     814                                                        1299   -0.22    0.00  1.0000
   3   9   5    4761    1083                                                        5309    0.19    0.00  1.0000
   3   9   6  295434    5504                                                      291417   -0.18    0.00  1.0000
   3   9   6  299275    6878                                                      295231   -0.18    0.00  1.0000
   3   9   7     296     486                                                         410    0.15    0.00  1.0000
   3   9   7       9     459                                                        -267    0.15    0.00  1.0000
   3   9   8  159518    4374                                                      157707   -0.11    0.00  1.0000
  -3  -9  -9   38185    2615                                                       38968    0.10    0.00  1.0000
  -3  -9 -10   46350    2640                                                       45551   -0.09    0.00  1.0000
  -3  -9 -11   54754    2469                                                       55291    0.06    0.00  1.0000
  -3  -9 -12   32311    1416                                                       32369   -0.01    0.00  1.0000
   3  10  -1   10739     809                                                        9818    0.23    0.00  1.0000
   3  10   0     239     414                                                         452   -0.29    0.00  1.0000
   3  10   1   19835    1490                                                       18036    0.33    0.00  1.0000
   3  10   2   14247    1433                                                       12789   -0.31    0.00  1.0000
   3  10   3  100954    3960                                                      103862    0.23    0.00  1.0000
   3  10   4  182481    5220                                                      180879   -0.09    0.00  1.0000
   3  10   5  176052    5079                                                      175764   -0.02    0.00  1.0000
   3  10   6   73492    3188                                                       72831    0.06    0.00  1.0000
   3  10   7   11571    1246                                                       11366   -0.05    0.00  1.0000
   3  10   8    1859     528                                                        1852    0.00    0.00  1.0000
  -3 -10  -9     501     572                                                         554    0.06    0.00  1.0000
  -3 -10 -10   18378    1453                                                       19059   -0.12    0.00  1.0000
  -3 -10 -11  154025    3114                                                      151529    0.16    0.00  1.0000
   3  11   2    8182     716                                                        7479   -0.20    0.00  1.0000
   3  11   3    1450     506                                                        1217    0.16    0.00  1.0000
   3  11   3    1749     482                                                        1492    0.16    0.00  1.0000
   3  11   4   20413    1465                                                       20743   -0.06    0.00  1.0000
   3  11   5  157608    3908                                                      158847   -0.08    0.00  1.0000
   3  11   6     895     544                                                        1133    0.19    0.00  1.0000
   3  11   7   43477    1891                                                       45358   -0.22    0.00  1.0000
  -3 -11  -8    2164     492                                                        1851    0.17    0.00  1.0000
   3  11   8    2901     472                                                        2536    0.17    0.00  1.0000
  -4   7   8     440     294                                                         428    0.01    0.00  1.0000
  -4   7   7   25844    1347                                                       25787   -0.01    0.00  1.0000
  -4   7   6   55616    2120                                                       56083    0.05    0.00  1.0000
  -4   7   5   88471    2757                                                       87774   -0.06    0.00  1.0000
  -4   7   4     285     399                                                         281    0.01    0.00  1.0000
  -4   7   3    4356     685                                                        4484    0.05    0.00  1.0000
  -4   7   2     385     347                                                         355   -0.04    0.00  1.0000
  -4   6   9   82639    2499                                                       80538   -0.18    0.00  1.0000
  -4   6   9   85687    2239                                                       83547   -0.18    0.00  1.0000
  -4   6   8  145317    3888                                                      146839    0.10    0.00  1.0000
  -4   6   8  152550    3423                                                      154109    0.10    0.00  1.0000
  -4   6   7   68740    2861                                                       68497   -0.02    0.00  1.0000
  -4   6   7   68015    2404                                                       67773   -0.02    0.00  1.0000
  -4   6   6    2496     776                                                        2544    0.02    0.00  1.0000
  -4   6   5  130371    4233                                                      131321   -0.07    0.00  1.0000
  -4   6   4   12641    1153                                                       12289    0.08    0.00  1.0000
  -4   6   4   14950    1488                                                       14567    0.08    0.00  1.0000
  -4   6   3   25235    1711                                                       25678   -0.07    0.00  1.0000
  -4   6   3   25138    1880                                                       25581   -0.07    0.00  1.0000
  -4   6   2    8220    1109                                                        7851    0.10    0.00  1.0000
  -4   6   2    7054    1041                                                        6713    0.10    0.00  1.0000
  -4   6   1   20784    1661                                                       21872   -0.19    0.00  1.0000
  -4   6   1   20455    1699                                                       21535   -0.19    0.00  1.0000
  -4   6   0    2673     644                                                        2203    0.24    0.00  1.0000
  -4   6  -1    5403     624                                                        4842   -0.20    0.00  1.0000
  -4   5  10   42271    1760                                                       44096    0.22    0.00  1.0000
  -4   5   9    7596     971                                                        8512   -0.25    0.00  1.0000
  -4   5   8  103962    3378                                                      101387    0.20    0.00  1.0000
  -4   5   7   76759    3062                                                       77736   -0.09    0.00  1.0000
  -4   5   6   75758    2991                                                       75693    0.01    0.00  1.0000
  -4   5   5   38427    2571                                                       38371   -0.01    0.00  1.0000
  -4   5   4    1409     580                                                        1326    0.06    0.00  1.0000
  -4   5   4     105     566                                                          83    0.06    0.00  1.0000
  -4   5   3    3975     930                                                        3721   -0.10    0.00  1.0000
  -4   5   3    3742     858                                                        3496   -0.10    0.00  1.0000
  -4   5   2    7218    1247                                                        7739    0.15    0.00  1.0000
  -4   5   2    6461    1137                                                        6954    0.15    0.00  1.0000
  -4   5   1   83575    3624                                                       81039   -0.22    0.00  1.0000
  -4   5   1   80536    3424                                                       78047   -0.22    0.00  1.0000
  -4   5   0  115479    4133                                                      119026    0.26    0.00  1.0000
  -4   5   0  121672    4392                                                      125313    0.26    0.00  1.0000
  -4   5  -1   45768    2466                                                       44326   -0.17    0.00  1.0000
  -4   5  -1   42263    2124                                                       40878   -0.17    0.00  1.0000
  -4   5  -1   46164    2600                                                       44716   -0.17    0.00  1.0000
  -4   5  -2   23930    1665                                                       23618   -0.05    0.00  1.0000
  -4   5  -2   23221    1530                                                       22913   -0.05    0.00  1.0000
  -4   5  -3    4470     633                                                        3749    0.28    0.00  1.0000
  -4   5  -4   13580     923                                                       15503   -0.40    0.00  1.0000
  -4   4  11   14336     965                                                       15036   -0.14    0.00  1.0000
  -4   4  10  123004    3366                                                      120354    0.19    0.00  1.0000
  -4   4   9   79482    3199                                                       82016   -0.22    0.00  1.0000
  -4   4   8    1299     557                                                        1016    0.21    0.00  1.0000
  -4   4   8    2195     784                                                        1823    0.21    0.00  1.0000
  -4   4   7    9445    1288                                                        8995   -0.12    0.00  1.0000
  -4   4   7   10150    1254                                                        9684   -0.12    0.00  1.0000
  -4   4   6  311309    6486                                                      311089   -0.01    0.00  1.0000
  -4   4   6  307886    6801                                                      307667   -0.01    0.00  1.0000
  -4   4   5   20950    1861                                                       21447    0.08    0.00  1.0000
  -4   4   5   18728    1579                                                       19198    0.08    0.00  1.0000
  -4   4   4   93584    3293                                                       92750   -0.07    0.00  1.0000
  -4   4   4   94800    3551                                                       93962   -0.07    0.00  1.0000
  -4   4   3   63031    3284                                                       63094    0.01    0.00  1.0000
  -4   4   3   62631    2723                                                       62695    0.01    0.00  1.0000
  -4   4   3   64604    2964                                                       64668    0.01    0.00  1.0000
  -4   4   2   86906    3616                                                       87357    0.04    0.00  1.0000
  -4   4   2   85551    3765                                                       85998    0.04    0.00  1.0000
  -4   4   1    9974    1362                                                        9730   -0.06    0.00  1.0000
  -4   4   1    9907    1373                                                        9664   -0.06    0.00  1.0000
  -4   4   0   34907    2351                                                       34328    0.08    0.00  1.0000
  -4   4   0   31991    2319                                                       31437    0.08    0.00  1.0000
  -4   4  -1   36538    2493                                                       36864   -0.04    0.00  1.0000
  -4   4  -1   36090    2402                                                       36414   -0.04    0.00  1.0000
  -4   4  -1   31867    2056                                                       32171   -0.04    0.00  1.0000
  -4   4  -2   66829    3092                                                       68024   -0.11    0.00  1.0000
  -4   4  -2   62820    2903                                                       63979   -0.11    0.00  1.0000
  -4   4  -2   70583    3455                                                       71811   -0.11    0.00  1.0000
  -4   4  -3   14788    1355                                                       13016    0.37    0.00  1.0000
  -4   4  -3   15816    1228                                                       13982    0.37    0.00  1.0000
  -4   4  -3   15601    1377                                                       13780    0.37    0.00  1.0000
  -4   4  -4    9431    1215                                                       11931   -0.60    0.00  1.0000
  -4   4  -4   16751    1270                                                       20035   -0.60    0.00  1.0000
  -4   4  -5     292     457                                                         933    0.67    0.00  1.0000
  -4   4  -5   67674    1689                                                       74854    0.67    0.00  1.0000
  -4   3  11   49981    1932                                                       50444   -0.05    0.00  1.0000
  -4   3  10   32947    1957                                                       33422    0.06    0.00  1.0000
  -4   3   9  212604    5404                                                      211046   -0.08    0.00  1.0000
  -4   3   9  194906    5001                                                      193415   -0.08    0.00  1.0000
  -4   3   8   97291    3932                                                       98418    0.09    0.00  1.0000
  -4   3   8   93380    3767                                                       94484    0.09    0.00  1.0000
  -4   3   7   54278    2907                                                       53953   -0.03    0.00  1.0000
  -4   3   7   54798    2911                                                       54471   -0.03    0.00  1.0000
  -4   3   6  191055    5208                                                      192581   -0.09    0.00  1.0000
  -4   3   6  203567    5425                                                      205142   -0.09    0.00  1.0000
  -4   3   5    1166     397                                                         907    0.20    0.00  1.0000
  -4   3   5     734     560                                                         532    0.20    0.00  1.0000
  -4   3   4   17824    3404                                                       19006   -0.22    0.00  1.0000
  -4   3   4   22920    1827                                                       24256   -0.22    0.00  1.0000
  -4   3   3   39677    2147                                                       38593    0.14    0.00  1.0000
  -4   3   3   35584    3941                                                       34557    0.14    0.00  1.0000
  -4   3   3   40451    2131                                                       39355    0.14    0.00  1.0000
  -4   3   2  124086    3978                                                      124829   -0.05    0.00  1.0000
  -4   3   2  128887    4335                                                      129644   -0.05    0.00  1.0000
  -4   3   1  135294    4253                                                      134800    0.03    0.00  1.0000
  -4   3   1  138939    4477                                                      138438    0.03    0.00  1.0000
  -4   3   0   15989    1597                                                       16248   -0.05    0.00  1.0000
  -4   3   0   14995    1552                                                       15246   -0.05    0.00  1.0000
  -4   3   0   10542    1136                                                       10753   -0.05    0.00  1.0000
  -4   3   0   17455    3051                                                       17725   -0.05    0.00  1.0000
  -4   3  -1   15884    1619                                                       15643    0.05    0.00  1.0000
  -4   3  -1   16897    1669                                                       16648    0.05    0.00  1.0000
  -4   3  -1   14879    1403                                                       14645    0.05    0.00  1.0000
  -4   3  -1   17917    3226                                                       17660    0.05    0.00  1.0000
  -4   3  -2   37112    2379                                                       36728   -0.05    0.00  1.0000
  -4   3  -2   34873    2169                                                       34500   -0.05    0.00  1.0000
  -4   3  -2   40747    2584                                                       40344   -0.05    0.00  1.0000
  -4   3  -2   36655    2242                                                       36272   -0.05    0.00  1.0000
  -4   3  -3   65874    3061                                                       67349    0.14    0.00  1.0000
  -4   3  -3   65434    3057                                                       66904    0.14    0.00  1.0000
  -4   3  -3   63711    3031                                                       65162    0.14    0.00  1.0000
  -4   3  -4  193028    4697                                                      187044   -0.34    0.00  1.0000
  -4   3  -4  197174    5141                                                      191126   -0.34    0.00  1.0000
  -4   3  -4  190491    4963                                                      184547   -0.34    0.00  1.0000
  -4   3  -5   48152    2616                                                       52987    0.54    0.00  1.0000
  -4   3  -5   46087    2402                                                       50819    0.54    0.00  1.0000
  -4   3  -6   36927    1795                                                       32597   -0.58    0.00  1.0000
  -4   3  -6   33182    1496                                                       29085   -0.58    0.00  1.0000
  -4   2  11   21460    1353                                                       21906    0.08    0.00  1.0000
  -4   2  10       5     518                                                        -127   -0.11    0.00  1.0000
  -4   2   9   41942    2330                                                       41039    0.11    0.00  1.0000
  -4   2   9   48062    2697                                                       47095    0.11    0.00  1.0000
  -4   2   8   36565    2350                                                       37253   -0.09    0.00  1.0000
  -4   2   8   41818    2653                                                       42554   -0.09    0.00  1.0000
  -4   2   7  444322    8398                                                      441680    0.10    0.00  1.0000
  -4   2   7  435652    7851                                                      433036    0.10    0.00  1.0000
  -4   2   6   28497    4795                                                       29722   -0.18    0.00  1.0000
  -4   2   6   23751    1905                                                       24870   -0.18    0.00  1.0000
  -4   2   6   24337    1952                                                       25470   -0.18    0.00  1.0000
  -4   2   5  236276    5335                                                      230773    0.28    0.00  1.0000
  -4   2   5  243138   12000                                                      237556    0.28    0.00  1.0000
  -4   2   5  247262    5475                                                      241632    0.28    0.00  1.0000
  -4   2   4  109567    7833                                                      113694   -0.31    0.00  1.0000
  -4   2   4  120652    3745                                                      124981   -0.31    0.00  1.0000
  -4   2   3   38680    4322                                                       37124    0.20    0.00  1.0000
  -4   2   2    6930    1862                                                        6841   -0.03    0.00  1.0000
  -4   2   1  279727   10435                                                      277800   -0.09    0.00  1.0000
  -4   2   0  192887    4559                                                      194958    0.12    0.00  1.0000
  -4   2   0  198479    8558                                                      200579    0.12    0.00  1.0000
  -4   2  -1  295781    6016                                                      293131   -0.12    0.00  1.0000
  -4   2  -1  308358   12376                                                      305652   -0.12    0.00  1.0000
  -4   2  -1  284950    5910                                                      282349   -0.12    0.00  1.0000
  -4   2  -1  297332    6287                                                      294675   -0.12    0.00  1.0000
  -4   2  -2   25000    2024                                                       26081    0.17    0.00  1.0000
  -4   2  -2   25854    1948                                                       26952    0.17    0.00  1.0000
  -4   2  -2   24822    1916                                                       25898    0.17    0.00  1.0000
  -4   2  -2   22028    3754                                                       23043    0.17    0.00  1.0000
  -4   2  -2   25032    1887                                                       26113    0.17    0.00  1.0000
  -4   2  -3    7392    1217                                                        6666   -0.22    0.00  1.0000
  -4   2  -3    4919     936                                                        4331   -0.22    0.00  1.0000
  -4   2  -3    5519     880                                                        4894   -0.22    0.00  1.0000
  -4   2  -3    5256     937                                                        4647   -0.22    0.00  1.0000
  -4   2  -3    7785    2749                                                        7040   -0.22    0.00  1.0000
  -4   2  -3    5268     978                                                        4658   -0.22    0.00  1.0000
  -4   2  -4   45890    2522                                                       44500    0.16    0.00  1.0000
  -4   2  -4   48876    2713                                                       47442    0.16    0.00  1.0000
  -4   2  -4   46410    2396                                                       45013    0.16    0.00  1.0000
  -4   2  -5   21504    1868                                                       21444    0.01    0.00  1.0000
  -4   2  -5   22828    1879                                                       22767    0.01    0.00  1.0000
  -4   2  -6   67676    3153                                                       69682   -0.19    0.00  1.0000
  -4   2  -6   63472    2955                                                       65415   -0.19    0.00  1.0000
  -4   2  -6   67033    2565                                                       69029   -0.19    0.00  1.0000
  -4   2  -7   57582    2339                                                       55289    0.24    0.00  1.0000
  -4   2  -8    1358     367                                                        1573   -0.14    0.00  1.0000
  -4   1  11  110265    2894                                                      108680    0.12    0.00  1.0000
  -4   1  10  241630    5457                                                      245452   -0.19    0.00  1.0000
  -4   1   9   51589    2803                                                       49344    0.25    0.00  1.0000
  -4   1   9   45925    2190                                                       43808    0.25    0.00  1.0000
  -4   1   8   30049    2090                                                       31825   -0.25    0.00  1.0000
  -4   1   8   32159    2443                                                       33996   -0.25    0.00  1.0000
  -4   1   7  198288    5755                                                      202273    0.22    0.00  1.0000
   4  -1  -7  197228    4950                                                      201202    0.22    0.00  1.0000
  -4   1   7  201629    5258                                                      205647    0.22    0.00  1.0000
  -4   1   6   23958    4183                                                       25351   -0.22    0.00  1.0000
  -4   1   6   21009    1888                                                       22315   -0.22    0.00  1.0000
  -4   1   6   18168    1678                                                       19384   -0.22    0.00  1.0000
  -4   1   5   15363    3345                                                       16703    0.26    0.00  1.0000
  -4   1   5   13925    1396                                                       15202    0.26    0.00  1.0000
  -4   1   5   14427    1438                                                       15726    0.26    0.00  1.0000
  -4   1   4  146930    8812                                                      142718   -0.28    0.00  1.0000
  -4   1   3  311375   12117                                                      315177    0.17    0.00  1.0000
  -4   1   2  303255   11333                                                      304366    0.05    0.00  1.0000
  -4   1   1     877     978                                                        1240   -0.28    0.00  1.0000
  -4   1   0    1406    1092                                                         843    0.42    0.00  1.0000
  -4   1  -1  227931    9791                                                      237071   -0.47    0.00  1.0000
  -4   1  -1  237167    9490                                                      246489   -0.47    0.00  1.0000
  -4   1  -2  202170    8290                                                      193425    0.49    0.00  1.0000
  -4   1  -2  198785    9507                                                      190114    0.49    0.00  1.0000
  -4   1  -3  362298    6658                                                      374654   -0.51    0.00  1.0000
  -4   1  -3  352618   13819                                                      364809   -0.51    0.00  1.0000
  -4   1  -3  379912    7303                                                      392562   -0.51    0.00  1.0000
  -4   1  -3  381415    7215                                                      394090   -0.51    0.00  1.0000
  -4   1  -4   66942    2694                                                       61948    0.49    0.00  1.0000
  -4   1  -4   68307    2860                                                       63261    0.49    0.00  1.0000
  -4   1  -4   68398    3140                                                       63349    0.49    0.00  1.0000
  -4   1  -4   68290    3047                                                       63245    0.49    0.00  1.0000
  -4   1  -4   62843    2548                                                       58007    0.49    0.00  1.0000
  -4   1  -5   29025    2224                                                       31770   -0.39    0.00  1.0000
  -4   1  -5   31152    2391                                                       33994   -0.39    0.00  1.0000
  -4   1  -5   30518    2295                                                       33332   -0.39    0.00  1.0000
  -4   1  -5   27853    2056                                                       30544   -0.39    0.00  1.0000
  -4   1  -6    8294    1277                                                        9157    0.23    0.00  1.0000
  -4   1  -6    8033    1237                                                        8883    0.23    0.00  1.0000
  -4   1  -6    8477    1165                                                        9349    0.23    0.00  1.0000
  -4   1  -7   86483    3528                                                       85445   -0.09    0.00  1.0000
  -4   1  -7   84093    3472                                                       83070   -0.09    0.00  1.0000
  -4   1  -7   85658    3200                                                       84625   -0.09    0.00  1.0000
  -4   1  -8   25118    1692                                                       25340    0.03    0.00  1.0000
  -4   1  -9   11013     833                                                       10814   -0.05    0.00  1.0000
  -4   0  11     177     326                                                         232    0.10    0.00  1.0000
  -4   0  10   50440    2411                                                       49084   -0.15    0.00  1.0000
  -4   0   9   34435    2417                                                       36284    0.24    0.00  1.0000
  -4   0   8  291292    6883                                                      284278   -0.33    0.00  1.0000
   4   0  -8  297214    6336                                                      290128   -0.33    0.00  1.0000
  -4   0   7     814     608                                                         477    0.33    0.00  1.0000
   4   0  -7      45     554                                                         -36    0.33    0.00  1.0000
  -4   0   7      45     526                                                         -73    0.33    0.00  1.0000
  -4   0   6  106811    3966                                                      103204   -0.28    0.00  1.0000
   4   0  -6  107245    3569                                                      103631   -0.28    0.00  1.0000
  -4   0   6  101696    7908                                                       98177   -0.28    0.00  1.0000
  -4   0   6  109383    3624                                                      105733   -0.28    0.00  1.0000
  -4   0   6  117021    8766                                                      113244   -0.28    0.00  1.0000
  -4   0   5   29107    1997                                                       30643    0.22    0.00  1.0000
  -4   0   5   28449    4324                                                       29968    0.22    0.00  1.0000
  -4   0   5   30717    1947                                                       32295    0.22    0.00  1.0000
  -4   0   4    2064    1176                                                        1745   -0.18    0.00  1.0000
  -4   0   3    2214    1388                                                        2398    0.10    0.00  1.0000
  -4   0   2  237149    9918                                                      235189    0.10    0.00  1.0000
  -4   0   1  182056    8428                                                      188434   -0.37    0.00  1.0000
  -4   0   0  506099   13273                                                      488977    0.60    0.00  1.0000
  -4   0  -1   10109    2222                                                       13254   -0.73    0.00  1.0000
  -4   0  -2   48877    4587                                                       55554    0.73    0.00  1.0000
  -4   0  -3  490119   13257                                                      472004   -0.65    0.00  1.0000
  -4   0  -4  201082    5375                                                      210856    0.54    0.00  1.0000
  -4   0  -4  198351    5058                                                      208059    0.54    0.00  1.0000
  -4   0  -5  180166    4800                                                      173170   -0.41    0.00  1.0000
  -4   0  -5  183398    5251                                                      176338   -0.41    0.00  1.0000
  -4   0  -5  179342    4779                                                      172362   -0.41    0.00  1.0000
  -4   0  -5  188510    4993                                                      181352   -0.41    0.00  1.0000
  -4   0  -6   59535    2888                                                       62518    0.30    0.00  1.0000
  -4   0  -6   60048    3118                                                       63043    0.30    0.00  1.0000
  -4   0  -6   59154    3267                                                       62127    0.30    0.00  1.0000
  -4   0  -6   58926    3075                                                       61894    0.30    0.00  1.0000
  -4   0  -7   16863    1793                                                       17943   -0.20    0.00  1.0000
  -4   0  -7   16016    1721                                                       17069   -0.20    0.00  1.0000
  -4   0  -7   17360    1780                                                       18455   -0.20    0.00  1.0000
  -4   0  -8   17612    1675                                                       16920    0.13    0.00  1.0000
  -4   0  -8   19111    1628                                                       18390    0.13    0.00  1.0000
  -4   0  -9   27224    1753                                                       27762   -0.08    0.00  1.0000
  -4   0 -10    1246     366                                                        1203    0.03    0.00  1.0000
  -4  -1  10     230     447                                                         171   -0.10    0.00  1.0000
  -4  -1   9    9007    1311                                                        9690    0.18    0.00  1.0000
   4   1  -8   68336    3306                                                       71574   -0.30    0.00  1.0000
  -4  -1   8   70106    3544                                                       73384   -0.30    0.00  1.0000
  -4  -1   7   47791    2964                                                       51438    0.41    0.00  1.0000
   4   1  -7   44945    2757                                                       48484    0.41    0.00  1.0000
   4   1  -6   35826    2382                                                       38910   -0.40    0.00  1.0000
  -4  -1   6   30604    4301                                                       33459   -0.40    0.00  1.0000
  -4  -1   6   38554    2216                                                       41751   -0.40    0.00  1.0000
  -4  -1   6   38901    2581                                                       42112   -0.40    0.00  1.0000
  -4  -1   5  222829    5293                                                      217354    0.29    0.00  1.0000
  -4  -1   5  216985   10350                                                      211583    0.29    0.00  1.0000
   4   1  -5  232824    5090                                                      227227    0.29    0.00  1.0000
  -4  -1   5  229633    4780                                                      224074    0.29    0.00  1.0000
  -4  -1   4  111501    7328                                                      113872   -0.18    0.00  1.0000
  -4  -1   3    4200    1815                                                        3994    0.08    0.00  1.0000
  -4  -1   2  858766   18526                                                      861218    0.07    0.00  1.0000
  -4  -1   1  621957   14886                                                      612088   -0.31    0.00  1.0000
  -4  -1   0  843936   17537                                                      866080    0.60    0.00  1.0000
  -4  -1  -1  427050   11932                                                      406740   -0.78    0.00  1.0000
  -4  -1  -2  604428   15193                                                      629403    0.79    0.00  1.0000
  -4  -1  -3  117020    6409                                                      108349   -0.64    0.00  1.0000
  -4  -1  -4   46961    4529                                                       50744    0.43    0.00  1.0000
  -4  -1  -5   82652    3127                                                       85401   -0.24    0.00  1.0000
  -4  -1  -5   79783    3391                                                       82483   -0.24    0.00  1.0000
  -4  -1  -5   83209    3231                                                       85967   -0.24    0.00  1.0000
  -4  -1  -5   88576    3679                                                       91420   -0.24    0.00  1.0000
  -4  -1  -6  302744    5969                                                      299902    0.13    0.00  1.0000
  -4  -1  -6  310351    6529                                                      307474    0.13    0.00  1.0000
  -4  -1  -6  327550    7225                                                      324594    0.13    0.00  1.0000
  -4  -1  -6  325020    6866                                                      322075    0.13    0.00  1.0000
  -4  -1  -7   65636    3425                                                       66652   -0.10    0.00  1.0000
  -4  -1  -7   72892    3463                                                       73963   -0.10    0.00  1.0000
  -4  -1  -8   46094    2771                                                       45286    0.09    0.00  1.0000
  -4  -1  -8   49349    2728                                                       48512    0.09    0.00  1.0000
  -4  -1  -9    3857     921                                                        4044   -0.07    0.00  1.0000
  -4  -1 -10   13755    1202                                                       13593    0.03    0.00  1.0000
  -4  -1 -11       0     235                                                        -253    0.01    0.00  1.0000
  -4  -2  10   18837    1270                                                       19480   -0.12    0.00  1.0000
  -4  -2   9   83063    3229                                                       81075    0.17    0.00  1.0000
  -4  -2   8   32254    2302                                                       30285   -0.28    0.00  1.0000
   4   2  -8   28514    2023                                                       26665   -0.28    0.00  1.0000
  -4  -2   7    9861    1330                                                        8282    0.41    0.00  1.0000
   4   2  -7    9385    1190                                                        7847    0.41    0.00  1.0000
  -4  -2   6    7937    1134                                                        6302   -0.48    0.00  1.0000
   4   2  -6    6963    1025                                                        5439   -0.48    0.00  1.0000
  -4  -2   5   90127    6580                                                       95250    0.42    0.00  1.0000
   4   2  -5   89649    3529                                                       94759    0.42    0.00  1.0000
  -4  -2   5   89361    3047                                                       94463    0.42    0.00  1.0000
  -4  -2   4  101846    6565                                                       98353   -0.27    0.00  1.0000
  -4  -2   3  807630   18085                                                      813014    0.15    0.00  1.0000
  -4  -2   2  648155   15694                                                      646763   -0.04    0.00  1.0000
  -4  -2   1 1085427   19436                                                     1080010   -0.13    0.00  1.0000
  -4  -2   0   48287    4352                                                       51824    0.39    0.00  1.0000
  -4  -2  -1  189039    8355                                                      200245   -0.63    0.00  1.0000
  -4  -2  -2  689535   15433                                                      666620    0.69    0.00  1.0000
  -4  -2  -3  103024    6529                                                      110083   -0.54    0.00  1.0000
  -4  -2  -3   96364    2643                                                      103195   -0.54    0.00  1.0000
  -4  -2  -4   86199    5817                                                       82974    0.28    0.00  1.0000
  -4  -2  -4   88788    2594                                                       85515    0.28    0.00  1.0000
  -4  -2  -5    4249     685                                                        4399   -0.06    0.00  1.0000
  -4  -2  -6   75957    2869                                                       75623   -0.03    0.00  1.0000
  -4  -2  -6   79143    3435                                                       78802   -0.03    0.00  1.0000
  -4  -2  -6   79794    3267                                                       79452   -0.03    0.00  1.0000
  -4  -2  -6   74089    3485                                                       73759   -0.03    0.00  1.0000
  -4  -2  -7   28883    2238                                                       28858    0.00    0.00  1.0000
  -4  -2  -7   29219    2144                                                       29194    0.00    0.00  1.0000
  -4  -2  -7   27754    2275                                                       27730    0.00    0.00  1.0000
  -4  -2  -8   70784    3554                                                       71600    0.08    0.00  1.0000
  -4  -2  -8   68976    3283                                                       69782    0.08    0.00  1.0000
  -4  -2  -8   66045    3562                                                       66835    0.08    0.00  1.0000
  -4  -2  -9   10006    1323                                                        9571   -0.11    0.00  1.0000
  -4  -2 -10   38861    2191                                                       39560    0.09    0.00  1.0000
  -4  -2 -11   52277    1994                                                       51846   -0.05    0.00  1.0000
  -4  -3   9   41312    2077                                                       43061    0.21    0.00  1.0000
  -4  -3   8    4901    1068                                                        5759   -0.29    0.00  1.0000
   4   3  -8    6374    1096                                                        7347   -0.29    0.00  1.0000
  -4  -3   7   82528    3841                                                       86939    0.38    0.00  1.0000
   4   3  -7   80402    3453                                                       84757    0.38    0.00  1.0000
   4   3  -6  175203    5200                                                      167837   -0.44    0.00  1.0000
   4   3  -6  163760    4828                                                      156641   -0.44    0.00  1.0000
   4   3  -5   48418    2842                                                       52316    0.43    0.00  1.0000
   4   3  -5   50968    2784                                                       54965    0.43    0.00  1.0000
   4   3  -4   14253    1149                                                       12692   -0.34    0.00  1.0000
   4   3  -4   12765    1260                                                       11290   -0.34    0.00  1.0000
  -4  -3   3  271070   10003                                                      266495    0.22    0.00  1.0000
  -4  -3   2  120965    6614                                                      123012   -0.15    0.00  1.0000
  -4  -3   1  254522    9267                                                      253006    0.07    0.00  1.0000
  -4  -3   0  164581    7472                                                      163423    0.07    0.00  1.0000
  -4  -3  -1  131142    6827                                                      135118   -0.27    0.00  1.0000
  -4  -3  -2   20302    2950                                                       22591    0.39    0.00  1.0000
  -4  -3  -3   80976    5504                                                       77383   -0.32    0.00  1.0000
  -4  -3  -4  599614   15806                                                      602814    0.10    0.00  1.0000
  -4  -3  -4  611291    7583                                                      614522    0.10    0.00  1.0000
  -4  -3  -5  492777    7237                                                      495516    0.10    0.00  1.0000
  -4  -3  -6   17552    1515                                                       16754   -0.15    0.00  1.0000
  -4  -3  -6   18313    1636                                                       17498   -0.15    0.00  1.0000
  -4  -3  -6   17910    1467                                                       17105   -0.15    0.00  1.0000
  -4  -3  -7   14039    1560                                                       14305    0.06    0.00  1.0000
  -4  -3  -7   13013    1403                                                       13270    0.06    0.00  1.0000
  -4  -3  -7   12323    1582                                                       12572    0.06    0.00  1.0000
  -4  -3  -8    1431     782                                                        1574    0.09    0.00  1.0000
  -4  -3  -8     306     654                                                         373    0.09    0.00  1.0000
  -4  -3  -8    1110     640                                                        1237    0.09    0.00  1.0000
  -4  -3  -9   13100    1516                                                       12288   -0.18    0.00  1.0000
  -4  -3  -9   12499    1591                                                       11706   -0.18    0.00  1.0000
  -4  -3 -10   16220    1520                                                       15371    0.17    0.00  1.0000
  -4  -3 -11  144340    3744                                                      145906   -0.10    0.00  1.0000
  -4  -4   9   10610     800                                                        9853    0.19    0.00  1.0000
  -4  -4   8   10878    1138                                                        9737   -0.28    0.00  1.0000
   4   4  -7   10989    1214                                                        9632    0.33    0.00  1.0000
  -4  -4   7   11829    1354                                                       10419    0.33    0.00  1.0000
   4   4  -6   99327    4129                                                      103671   -0.34    0.00  1.0000
   4   4  -6  100330    3863                                                      104696   -0.34    0.00  1.0000
   4   4  -5   73047    3384                                                       69728    0.31    0.00  1.0000
   4   4  -5   73044    3179                                                       69725    0.31    0.00  1.0000
   4   4  -4  196086    4941                                                      200672   -0.26    0.00  1.0000
   4   4  -4  209528    5311                                                      214268   -0.26    0.00  1.0000
   4   4  -3    7239     992                                                        6544    0.21    0.00  1.0000
   4   4  -3    8926    1109                                                        8152    0.21    0.00  1.0000
   4   4  -3    8130    1069                                                        7392    0.21    0.00  1.0000
   4   4  -2   18547    1455                                                       19646   -0.20    0.00  1.0000
  -4  -4   1   57608    4399                                                       59710    0.22    0.00  1.0000
  -4  -4   0  310131    9959                                                      305561   -0.21    0.00  1.0000
  -4  -4  -1  326889   10503                                                      329830    0.13    0.00  1.0000
  -4  -4  -2   34817    3633                                                       34560   -0.03    0.00  1.0000
   4   4   3  138657    6568                                                      138991    0.02    0.00  1.0000
  -4  -4  -3  135672    7273                                                      136002    0.02    0.00  1.0000
  -4  -4  -4    1203    1009                                                        1038   -0.12    0.00  1.0000
  -4  -4  -5  156824    4291                                                      152810    0.25    0.00  1.0000
  -4  -4  -6  235714    5628                                                      241450   -0.29    0.00  1.0000
  -4  -4  -6  229888    5890                                                      235553   -0.29    0.00  1.0000
  -4  -4  -7  427154    7875                                                      422224    0.19    0.00  1.0000
  -4  -4  -7  441727    7951                                                      436713    0.19    0.00  1.0000
  -4  -4  -7  429658    8528                                                      424713    0.19    0.00  1.0000
  -4  -4  -8  138782    4640                                                      138852    0.00    0.00  1.0000
  -4  -4  -8  135508    4699                                                      135577    0.00    0.00  1.0000
  -4  -4  -8  128369    4976                                                      128436    0.00    0.00  1.0000
  -4  -4  -9   98810    3938                                                      100601   -0.14    0.00  1.0000
  -4  -4  -9   98719    3998                                                      100509   -0.14    0.00  1.0000
  -4  -4  -9   94963    4324                                                       96719   -0.14    0.00  1.0000
  -4  -4 -10   33063    2424                                                       31813    0.17    0.00  1.0000
  -4  -4 -10   33235    2162                                                       31982    0.17    0.00  1.0000
  -4  -4 -11    7400     931                                                        7034   -0.11    0.00  1.0000
  -4  -4 -12    8602     728                                                        8688    0.02    0.00  1.0000
  -4  -5   8   23813    1314                                                       24911   -0.18    0.00  1.0000
  -4  -5   7   30242    1866                                                       28510    0.25    0.00  1.0000
   4   5  -7   26069    1527                                                       24463    0.25    0.00  1.0000
   4   5  -6     794     643                                                        1124   -0.27    0.00  1.0000
   4   5  -6    1169     674                                                        1563   -0.27    0.00  1.0000
   4   5  -5    1034     771                                                        1320    0.21    0.00  1.0000
   4   5  -5     110     541                                                         214    0.21    0.00  1.0000
   4   5  -4  176289    5311                                                      174058   -0.13    0.00  1.0000
   4   5  -4  166341    4764                                                      164174   -0.13    0.00  1.0000
   4   5  -3  102342    3913                                                      103822    0.11    0.00  1.0000
   4   5  -3  108546    4062                                                      110071    0.11    0.00  1.0000
   4   5  -3  106810    3772                                                      108322    0.11    0.00  1.0000
   4   5  -2  185750    4954                                                      182643   -0.18    0.00  1.0000
   4   5  -2  185723    4851                                                      182616   -0.18    0.00  1.0000
   4   5  -2  183917    4641                                                      180826   -0.18    0.00  1.0000
   4   5  -1   76588    3169                                                       79830    0.29    0.00  1.0000
   4   5  -1   75652    3592                                                       78875    0.29    0.00  1.0000
   4   5  -1   74867    2977                                                       78073    0.29    0.00  1.0000
   4   5   0    1287     754                                                        1872   -0.37    0.00  1.0000
   4   5   1  175352    8784                                                      169066    0.38    0.00  1.0000
  -4  -5  -1  185384    7408                                                      178919    0.38    0.00  1.0000
   4   5   2  320644   11731                                                      328308   -0.33    0.00  1.0000
  -4  -5  -2  341529   10937                                                      349437   -0.33    0.00  1.0000
   4   5   3  871239   18242                                                      859917    0.30    0.00  1.0000
  -4  -5  -3  909839   18460                                                      898268    0.30    0.00  1.0000
   4   5   4  327978   10700                                                      335431   -0.32    0.00  1.0000
  -4  -5  -5   15333    1482                                                       13535    0.37    0.00  1.0000
  -4  -5  -6   42698    2650                                                       46003   -0.39    0.00  1.0000
  -4  -5  -6   43759    2639                                                       47103   -0.39    0.00  1.0000
  -4  -5  -7   31609    2204                                                       29343    0.32    0.00  1.0000
  -4  -5  -7   31367    2292                                                       29111    0.32    0.00  1.0000
  -4  -5  -8   63364    3242                                                       65147   -0.18    0.00  1.0000
  -4  -5  -8   60110    3477                                                       61846   -0.18    0.00  1.0000
  -4  -5  -9   45846    2725                                                       45953    0.01    0.00  1.0000
  -4  -5  -9   45938    2551                                                       46046    0.01    0.00  1.0000
  -4  -5  -9   48468    3106                                                       48579    0.01    0.00  1.0000
  -4  -5 -10  243631    5527                                                      245268    0.08    0.00  1.0000
  -4  -5 -10  253108    6710                                                      254776    0.08    0.00  1.0000
  -4  -5 -11   43816    2099                                                       43176   -0.08    0.00  1.0000
  -4  -5 -11   50334    2695                                                       49649   -0.08    0.00  1.0000
  -4  -5 -12       0     262                                                         -68    0.01    0.00  1.0000
  -4  -6   7   50192    1870                                                       51260    0.12    0.00  1.0000
   4   6  -6   28119    1759                                                       26823   -0.19    0.00  1.0000
   4   6  -6   28562    1438                                                       27256   -0.19    0.00  1.0000
   4   6  -5   41064    2499                                                       42669    0.20    0.00  1.0000
   4   6  -5   37893    2124                                                       39435    0.20    0.00  1.0000
   4   6  -4    3772    1031                                                        4059   -0.11    0.00  1.0000
   4   6  -4    2730     786                                                        2974   -0.11    0.00  1.0000
   4   6  -3       1     749                                                        -562    0.05    0.00  1.0000
   4   6  -3     238     550                                                         210    0.05    0.00  1.0000
   4   6  -2   36838    2545                                                       37594   -0.10    0.00  1.0000
   4   6  -2   35369    2429                                                       36110   -0.10    0.00  1.0000
   4   6  -2   41054    2409                                                       41852   -0.10    0.00  1.0000
   4   6  -1  153379    9643                                                      149308    0.26    0.00  1.0000
   4   6  -1  135269    4983                                                      131447    0.26    0.00  1.0000
   4   6  -1  137837    4666                                                      133979    0.26    0.00  1.0000
   4   6  -1  142237    4155                                                      138317    0.26    0.00  1.0000
   4   6   0  146809    9561                                                      153398   -0.42    0.00  1.0000
   4   6   0  141935    4696                                                      148414   -0.42    0.00  1.0000
   4   6   0  144258    5030                                                      150790   -0.42    0.00  1.0000
   4   6   0  138492    4160                                                      144893   -0.42    0.00  1.0000
   4   6   1   39905    4547                                                       36108    0.48    0.00  1.0000
   4   6   1   38499    2247                                                       34772    0.48    0.00  1.0000
   4   6   1   37480    2248                                                       33803    0.48    0.00  1.0000
   4   6   1   39023    2023                                                       35270    0.48    0.00  1.0000
   4   6   2   86156    3423                                                       91537   -0.45    0.00  1.0000
   4   6   2   85179    3200                                                       90530   -0.45    0.00  1.0000
   4   6   3    7261    1134                                                        8678    0.40    0.00  1.0000
   4   6   3    5264    1881                                                        6480    0.40    0.00  1.0000
   4   6   4   66101    2545                                                       62265   -0.38    0.00  1.0000
   4   6   4   69298    5435                                                       65369   -0.38    0.00  1.0000
   4   6   5  127124    3538                                                      132615    0.38    0.00  1.0000
  -4  -6  -5  136451    3817                                                      142137    0.38    0.00  1.0000
  -4  -6  -6  216756    5807                                                      210075   -0.36    0.00  1.0000
  -4  -6  -6  219085    4844                                                      212368   -0.36    0.00  1.0000
  -4  -6  -6  225566    5805                                                      218749   -0.36    0.00  1.0000
  -4  -6  -7   21149    2096                                                       22929    0.30    0.00  1.0000
  -4  -6  -7   22328    1737                                                       24155    0.30    0.00  1.0000
  -4  -6  -7   23354    2055                                                       25222    0.30    0.00  1.0000
  -4  -6  -8   20568    1845                                                       19433   -0.20    0.00  1.0000
  -4  -6  -8   17622    1890                                                       16573   -0.20    0.00  1.0000
  -4  -6  -9   13752    1521                                                       13368    0.08    0.00  1.0000
  -4  -6  -9   13533    1718                                                       13152    0.08    0.00  1.0000
  -4  -6 -10  123622    4746                                                      123304    0.02    0.00  1.0000
  -4  -6 -10  119023    3457                                                      118711    0.02    0.00  1.0000
  -4  -6 -11   77683    3378                                                       78521   -0.07    0.00  1.0000
  -4  -6 -12   68216    2515                                                       67570    0.06    0.00  1.0000
  -4  -7   6    2465     462                                                        2644   -0.09    0.00  1.0000
   4   7  -5   35631    1876                                                       34442    0.16    0.00  1.0000
   4   7  -4    4865    1010                                                        5293   -0.15    0.00  1.0000
   4   7  -4    5213     804                                                        5655   -0.15    0.00  1.0000
   4   7  -3   19720    1827                                                       19307    0.07    0.00  1.0000
   4   7  -3   18459    1444                                                       18059    0.07    0.00  1.0000
   4   7  -2    2681     890                                                        2772   -0.04    0.00  1.0000
   4   7  -2    1220     600                                                        1282   -0.04    0.00  1.0000
   4   7  -1   22735    2073                                                       23661    0.15    0.00  1.0000
   4   7  -1   19054    1857                                                       19902    0.15    0.00  1.0000
   4   7  -1   19674    1686                                                       20536    0.15    0.00  1.0000
   4   7   0   92273    4154                                                       88093   -0.35    0.00  1.0000
   4   7   0   88000    3846                                                       83919   -0.35    0.00  1.0000
   4   7   0   93290    3398                                                       89087   -0.35    0.00  1.0000
   4   7   1  135949    9443                                                      143188    0.48    0.00  1.0000
   4   7   1  128904    4970                                                      135955    0.48    0.00  1.0000
   4   7   1  124994    4875                                                      131939    0.48    0.00  1.0000
   4   7   1  127723    4146                                                      134742    0.48    0.00  1.0000
   4   7   2  433190   15641                                                      420613   -0.48    0.00  1.0000
   4   7   2  409786    8055                                                      397556   -0.48    0.00  1.0000
   4   7   2  411784    8047                                                      399524   -0.48    0.00  1.0000
   4   7   2  419167    7206                                                      406796   -0.48    0.00  1.0000
   4   7   3  105934    7879                                                      111186    0.40    0.00  1.0000
   4   7   3  105592    4091                                                      110836    0.40    0.00  1.0000
   4   7   3  108471    4120                                                      113785    0.40    0.00  1.0000
   4   7   3  111444    3894                                                      116829    0.40    0.00  1.0000
   4   7   4    3297     935                                                        2572   -0.33    0.00  1.0000
   4   7   4    3058     689                                                        2361   -0.33    0.00  1.0000
   4   7   4    5817    1935                                                        4840   -0.33    0.00  1.0000
   4   7   5    3500    1421                                                        2816    0.30    0.00  1.0000
  -4  -7  -5    3182     568                                                        2532    0.30    0.00  1.0000
  -4  -7  -6   35366    1989                                                       37272   -0.25    0.00  1.0000
  -4  -7  -6   35798    2525                                                       37716   -0.25    0.00  1.0000
  -4  -7  -7   13027    1631                                                       12361    0.15    0.00  1.0000
  -4  -7  -7   12696    1503                                                       12038    0.15    0.00  1.0000
  -4  -7  -8  239485    6865                                                      240261   -0.04    0.00  1.0000
  -4  -7  -8  257654    6422                                                      258459   -0.04    0.00  1.0000
  -4  -7  -9  234447    5914                                                      235086   -0.03    0.00  1.0000
  -4  -7  -9  227243    6611                                                      227873   -0.03    0.00  1.0000
  -4  -7 -10   14351    1694                                                       13987    0.08    0.00  1.0000
  -4  -7 -11    5237     997                                                        4923   -0.11    0.00  1.0000
  -4  -7 -12   11825    1090                                                       12371    0.12    0.00  1.0000
   4   8  -4    8583     884                                                        8284   -0.08    0.00  1.0000
   4   8  -3   52718    2518                                                       53352    0.07    0.00  1.0000
   4   8  -2   71746    3245                                                       71307   -0.04    0.00  1.0000
   4   8  -1   37485    2465                                                       38086    0.08    0.00  1.0000
   4   8  -1   36113    1963                                                       36703    0.08    0.00  1.0000
   4   8   0    2347     887                                                        1948   -0.21    0.00  1.0000
   4   8   0    2539     657                                                        2124   -0.21    0.00  1.0000
   4   8   1    8225    1575                                                        9644    0.37    0.00  1.0000
   4   8   1    7903    1173                                                        9295    0.37    0.00  1.0000
   4   8   2   28271    2486                                                       31297   -0.44    0.00  1.0000
   4   8   2   26946    1970                                                       29902   -0.44    0.00  1.0000
   4   8   3   18355    1770                                                       16351    0.38    0.00  1.0000
   4   8   3   16558    1664                                                       14658    0.38    0.00  1.0000
   4   8   3   17601    1480                                                       15640    0.38    0.00  1.0000
   4   8   4   36529    2573                                                       38755   -0.29    0.00  1.0000
   4   8   4   38252    2446                                                       40529   -0.29    0.00  1.0000
   4   8   4   40247    2433                                                       42582   -0.29    0.00  1.0000
   4   8   5   83540    3526                                                       80967    0.22    0.00  1.0000
   4   8   5   83956    3428                                                       81377    0.22    0.00  1.0000
  -4  -8  -6   17719    1807                                                       18583   -0.16    0.00  1.0000
  -4  -8  -7   30771    2246                                                       30476    0.04    0.00  1.0000
  -4  -8  -8   58698    3372                                                       59650    0.10    0.00  1.0000
  -4  -8  -8   59701    3034                                                       60661    0.10    0.00  1.0000
  -4  -8  -9  191424    5775                                                      188396   -0.17    0.00  1.0000
  -4  -8 -10  136610    4661                                                      139002    0.16    0.00  1.0000
  -4  -8 -11   79749    3047                                                       78387   -0.12    0.00  1.0000
  -4  -8 -12   35404    1601                                                       36226    0.11    0.00  1.0000
   4   9  -3     328     292                                                         290   -0.05    0.00  1.0000
   4   9  -2    3954     720                                                        3869    0.03    0.00  1.0000
   4   9  -1   23567    1727                                                       23419    0.02    0.00  1.0000
   4   9   0   31434    2165                                                       32318   -0.12    0.00  1.0000
   4   9   1  116094    4529                                                      112755    0.25    0.00  1.0000
   4   9   2    3568    1144                                                        4393   -0.33    0.00  1.0000
   4   9   2    3370     665                                                        4173   -0.33    0.00  1.0000
   4   9   3   12816    1716                                                       14263    0.31    0.00  1.0000
   4   9   3   12224    1267                                                       13638    0.31    0.00  1.0000
   4   9   4   59789    3146                                                       57640   -0.22    0.00  1.0000
   4   9   4   60939    2628                                                       58769   -0.22    0.00  1.0000
   4   9   5   99016    3997                                                      100725    0.13    0.00  1.0000
   4   9   5  104517    3563                                                      106273    0.13    0.00  1.0000
  -4  -9  -5  108677    4029                                                      110468    0.13    0.00  1.0000
   4   9   6   26294    1958                                                       25796   -0.08    0.00  1.0000
   4   9   6   23910    1766                                                       23434   -0.08    0.00  1.0000
  -4  -9  -6   24862    1900                                                       24377   -0.08    0.00  1.0000
   4   9   7  179117    4747                                                      179208    0.01    0.00  1.0000
  -4  -9  -8   54456    3000                                                       55380    0.10    0.00  1.0000
  -4  -9  -9      12     570                                                         -43   -0.17    0.00  1.0000
  -4  -9 -10    9666    1148                                                        9045    0.16    0.00  1.0000
  -4  -9 -11   13814    1165                                                       14216   -0.08    0.00  1.0000
   4  10  -1     271     278                                                         216   -0.09    0.00  1.0000
   4  10   0    1428     497                                                        1396   -0.02    0.00  1.0000
   4  10   1   59626    2503                                                       60923    0.13    0.00  1.0000
   4  10   2   27367    2010                                                       26020   -0.21    0.00  1.0000
   4  10   3   32775    2296                                                       34325    0.21    0.00  1.0000
   4  10   4   27285    1980                                                       26354   -0.14    0.00  1.0000
   4  10   5     347     550                                                         378    0.04    0.00  1.0000
   4  10   6    2921     756                                                        2990    0.03    0.00  1.0000
   4  10   6    1011     434                                                        1052    0.03    0.00  1.0000
   4  10   7  113014    3332                                                      113884   -0.06    0.00  1.0000
   4  10   7  114950    3083                                                      115827   -0.06    0.00  1.0000
  -4 -10  -8   90443    3202                                                       89418    0.09    0.00  1.0000
   4  10   8  103684    2811                                                      102586    0.09    0.00  1.0000
   4  10   9   46899    1801                                                       47802   -0.10    0.00  1.0000
  -4 -10  -9   45011    2181                                                       45896   -0.10    0.00  1.0000
   4  10  10   24079    1084                                                       23516    0.09    0.00  1.0000
  -4 -10 -10   22570    1349                                                       22025    0.09    0.00  1.0000
   4  11   2      99     271                                                          70   -0.08    0.00  1.0000
   4  11   3    9676     856                                                        9251    0.11    0.00  1.0000
   4  11   4   40284    1989                                                       40939   -0.08    0.00  1.0000
   4  11   5   22778    1456                                                       22759    0.00    0.00  1.0000
   4  11   6  118103    3036                                                      116959    0.08    0.00  1.0000
   4  11   7    6422     689                                                        6847   -0.13    0.00  1.0000
  -5   6   7     105     295                                                         208    0.21    0.00  1.0000
  -5   6   6   10256     860                                                        9101   -0.29    0.00  1.0000
  -5   6   5   17277    1185                                                       15770    0.29    0.00  1.0000
  -5   6   4   28604    1626                                                       30320   -0.25    0.00  1.0000
  -5   6   3   13485    1064                                                       12492    0.22    0.00  1.0000
  -5   6   2    3410     576                                                        3010   -0.18    0.00  1.0000
  -5   5   9   60822    1788                                                       59711    0.11    0.00  1.0000
  -5   5   8   52195    2102                                                       53872   -0.18    0.00  1.0000
  -5   5   7    1752     637                                                        2295    0.30    0.00  1.0000
  -5   5   6    1280     574                                                         775   -0.40    0.00  1.0000
  -5   5   5   61693    2846                                                       65633    0.39    0.00  1.0000
  -5   5   4   43387    1842                                                       40783   -0.32    0.00  1.0000
  -5   5   4   44853    2317                                                       42205   -0.32    0.00  1.0000
  -5   5   3   54121    2374                                                       56673    0.27    0.00  1.0000
  -5   5   3   53806    2671                                                       56350    0.27    0.00  1.0000
  -5   5   2   55639    2413                                                       53233   -0.26    0.00  1.0000
  -5   5   2   53105    2540                                                       50756   -0.26    0.00  1.0000
  -5   5   1   28723    1884                                                       29981    0.18    0.00  1.0000
  -5   5   1   30097    1926                                                       31384    0.18    0.00  1.0000
  -5   5   0   29678    1804                                                       29539   -0.02    0.00  1.0000
  -5   5   0   30958    1853                                                       30816   -0.02    0.00  1.0000
  -5   5  -1     697     477                                                         598   -0.10    0.00  1.0000
  -5   4   9   11895     847                                                       12639    0.17    0.00  1.0000
  -5   4   8   60787    2059                                                       58291   -0.25    0.00  1.0000
  -5   4   7   15884    1561                                                       17797    0.37    0.00  1.0000
  -5   4   6  173810    4707                                                      166523   -0.44    0.00  1.0000
  -5   4   5   72448    3433                                                       77016    0.42    0.00  1.0000
  -5   4   5   69859    3132                                                       74346    0.42    0.00  1.0000
  -5   4   4   14267    1212                                                       12719   -0.33    0.00  1.0000
  -5   4   4   12556    1451                                                       11107   -0.33    0.00  1.0000
  -5   4   4   13596    1273                                                       12086   -0.33    0.00  1.0000
  -5   4   3    8325    1078                                                        7296    0.29    0.00  1.0000
  -5   4   3    9438    1268                                                        8340    0.29    0.00  1.0000
  -5   4   2   45793    2637                                                       48594   -0.32    0.00  1.0000
  -5   4   2   42871    2615                                                       45582   -0.32    0.00  1.0000
  -5   4   1    6330    1071                                                        5352    0.32    0.00  1.0000
  -5   4   1    5502    1006                                                        4593    0.32    0.00  1.0000
  -5   4   0   57646    2922                                                       59445   -0.19    0.00  1.0000
  -5   4   0   56987    2904                                                       58776   -0.19    0.00  1.0000
  -5   4  -1   69116    2988                                                       68917    0.02    0.00  1.0000
  -5   4  -1   71215    3081                                                       71013    0.02    0.00  1.0000
  -5   4  -2   39729    2102                                                       40197   -0.06    0.00  1.0000
  -5   4  -3      60     397                                                        -107    0.38    0.00  1.0000
  -5   3  10   88686    2089                                                       86976   -0.14    0.00  1.0000
  -5   3   9   57264    2209                                                       59437    0.22    0.00  1.0000
  -5   3   8     144     449                                                         355   -0.34    0.00  1.0000
  -5   3   8     354     604                                                         658   -0.34    0.00  1.0000
  -5   3   7    5046     908                                                        6462    0.47    0.00  1.0000
  -5   3   7    4852    1108                                                        6243    0.47    0.00  1.0000
  -5   3   6   74016    3395                                                       79835   -0.52    0.00  1.0000
  -5   3   5   62976    2896                                                       58372    0.47    0.00  1.0000
  -5   3   4  121922    3791                                                      126882   -0.35    0.00  1.0000
  -5   3   4  118658    4090                                                      123551   -0.35    0.00  1.0000
  -5   3   3  162386    4536                                                      157638    0.30    0.00  1.0000
  -5   3   3  151110    4818                                                      146531    0.30    0.00  1.0000
  -5   3   3  151150    4201                                                      146570    0.30    0.00  1.0000
  -5   3   2   25797    2059                                                       28127   -0.35    0.00  1.0000
  -5   3   2   22217    1982                                                       24383   -0.35    0.00  1.0000
  -5   3   1   29980    2112                                                       27072    0.43    0.00  1.0000
  -5   3   1   27995    1998                                                       25187    0.43    0.00  1.0000
  -5   3   0   22544    1891                                                       20295   -0.38    0.00  1.0000
  -5   3   0   23600    1851                                                       21298   -0.38    0.00  1.0000
  -5   3  -1   33370    2421                                                       35071    0.23    0.00  1.0000
  -5   3  -1   32536    2305                                                       34216    0.23    0.00  1.0000
  -5   3  -2   12253    1379                                                       11477   -0.18    0.00  1.0000
  -5   3  -2   12600    1410                                                       11812   -0.18    0.00  1.0000
  -5   3  -3     310     601                                                         667    0.41    0.00  1.0000
  -5   3  -3    3304     891                                                        4315    0.41    0.00  1.0000
  -5   3  -4   16519    1099                                                       12576   -0.82    0.00  1.0000
  -5   3  -4   20084    1256                                                       15708   -0.82    0.00  1.0000
  -5   3  -5   34575    1499                                                       42926    1.06    0.00  1.0000
  -5   2  10   40186    1686                                                       41508   -0.16    0.00  1.0000
  -5   2   9   97018    3060                                                       93581    0.28    0.00  1.0000
  -5   2   9   89033    2975                                                       85742    0.28    0.00  1.0000
  -5   2   8    8346    1166                                                        9968   -0.42    0.00  1.0000
  -5   2   8    9301    1297                                                       11009   -0.42    0.00  1.0000
  -5   2   7   84801    3173                                                       78271    0.57    0.00  1.0000
  -5   2   7   87137    3427                                                       80516    0.57    0.00  1.0000
  -5   2   6     832     636                                                        1747   -0.65    0.00  1.0000
  -5   2   6     453     735                                                        1172   -0.65    0.00  1.0000
  -5   2   5      41     700                                                         337    0.60    0.00  1.0000
  -5   2   4    4817     872                                                        3617   -0.46    0.00  1.0000
  -5   2   3   35753    4554                                                       38560    0.36    0.00  1.0000
  -5   2   3   45258    2460                                                       48409    0.36    0.00  1.0000
  -5   2   2    1836     676                                                        2556   -0.38    0.00  1.0000
  -5   2   2     211    1022                                                         495   -0.38    0.00  1.0000
  -5   2   2     792     587                                                        1286   -0.38    0.00  1.0000
  -5   2   2    1463     634                                                        2113   -0.38    0.00  1.0000
  -5   2   1  142607    4475                                                      149872    0.47    0.00  1.0000
  -5   2   1  144632    4588                                                      151948    0.47    0.00  1.0000
  -5   2   0   84982    3474                                                       79308   -0.49    0.00  1.0000
  -5   2   0   87632    3360                                                       81868   -0.49    0.00  1.0000
  -5   2   0   93074    3069                                                       87131   -0.49    0.00  1.0000
  -5   2  -1    3207     955                                                        4156    0.39    0.00  1.0000
  -5   2  -1    3409     984                                                        4386    0.39    0.00  1.0000
  -5   2  -1    3220     959                                                        4171    0.39    0.00  1.0000
  -5   2  -1    2299     808                                                        3113    0.39    0.00  1.0000
  -5   2  -2   80866    3800                                                       84128   -0.28    0.00  1.0000
  -5   2  -2   87102    3718                                                       90486   -0.28    0.00  1.0000
  -5   2  -2   86630    3615                                                       90005   -0.28    0.00  1.0000
  -5   2  -2   74692    3338                                                       77828   -0.28    0.00  1.0000
  -5   2  -3  231569    5652                                                      225116    0.34    0.00  1.0000
  -5   2  -3  218532    5560                                                      212265    0.34    0.00  1.0000
  -5   2  -4  226545    5229                                                      237261   -0.55    0.00  1.0000
  -5   2  -4  217314    5594                                                      227812   -0.55    0.00  1.0000
  -5   2  -5   94439    2829                                                       85629    0.73    0.00  1.0000
  -5   2  -5   93965    3154                                                       85177    0.73    0.00  1.0000
  -5   2  -6    9749    1073                                                       12536   -0.66    0.00  1.0000
  -5   2  -7     824     258                                                         468    0.35    0.00  1.0000
  -5   1  10    4488     673                                                        4906   -0.15    0.00  1.0000
  -5   1   9   19699    1592                                                       21396    0.29    0.00  1.0000
  -5   1   9   17869    1376                                                       19487    0.29    0.00  1.0000
  -5   1   8    3022     625                                                        2083   -0.46    0.00  1.0000
  -5   1   8    3003     758                                                        2067   -0.46    0.00  1.0000
  -5   1   7  186401    5278                                                      197346    0.62    0.00  1.0000
  -5   1   7  179652    5077                                                      190400    0.62    0.00  1.0000
  -5   1   6  134945    4090                                                      124524   -0.72    0.00  1.0000
  -5   1   6  133981    4204                                                      123598   -0.72    0.00  1.0000
  -5   1   5  122556    4290                                                      132907    0.72    0.00  1.0000
  -5   1   4  108139    7827                                                       99975   -0.63    0.00  1.0000
  -5   1   4  105030    3608                                                       96986   -0.63    0.00  1.0000
  -5   1   3    9648    1031                                                        7725    0.51    0.00  1.0000
  -5   1   3   14407    2803                                                       12034    0.51    0.00  1.0000
  -5   1   2    3985    1500                                                        2913   -0.46    0.00  1.0000
  -5   1   2     778     417                                                         351   -0.46    0.00  1.0000
  -5   1   1  267890    5484                                                      258266    0.47    0.00  1.0000
  -5   1   1  271631    5506                                                      261940    0.47    0.00  1.0000
  -5   1   1  262916    4715                                                      253383    0.47    0.00  1.0000
  -5   1   1  255584   11055                                                      246186    0.47    0.00  1.0000
  -5   1   0  282575    6200                                                      292823   -0.48    0.00  1.0000
  -5   1   0  272466    5678                                                      282531   -0.48    0.00  1.0000
  -5   1  -1  147948    4562                                                      141660    0.41    0.00  1.0000
  -5   1  -1  145760    7971                                                      139519    0.41    0.00  1.0000
  -5   1  -1  147143    4070                                                      140872    0.41    0.00  1.0000
  -5   1  -1  139149    4207                                                      133053    0.41    0.00  1.0000
  -5   1  -2  125861    4493                                                      130252   -0.31    0.00  1.0000
  -5   1  -2  128658    4090                                                      133097   -0.31    0.00  1.0000
  -5   1  -2  114941    4238                                                      119138   -0.31    0.00  1.0000
  -5   1  -3   75311    3426                                                       72489    0.26    0.00  1.0000
  -5   1  -3   73351    3084                                                       70566    0.26    0.00  1.0000
  -5   1  -3   74744    3085                                                       71933    0.26    0.00  1.0000
  -5   1  -3   69759    3269                                                       67045    0.26    0.00  1.0000
  -5   1  -4   10362    1441                                                       11641   -0.30    0.00  1.0000
  -5   1  -4    9320    1253                                                       10535   -0.30    0.00  1.0000
  -5   1  -4   10697    1504                                                       11996   -0.30    0.00  1.0000
  -5   1  -5   27658    2181                                                       30008    0.34    0.00  1.0000
  -5   1  -6   80884    3187                                                       77916   -0.26    0.00  1.0000
  -5   1  -7   22956    1532                                                       23372    0.07    0.00  1.0000
  -5   1  -8     548     323                                                         643    0.10    0.00  1.0000
  -5   0  10   90018    2511                                                       88363   -0.14    0.00  1.0000
  -5   0   9   17059    1497                                                       18571    0.28    0.00  1.0000
  -5   0   8   59083    2789                                                       54683   -0.46    0.00  1.0000
  -5   0   8   58405    2448                                                       54031   -0.46    0.00  1.0000
  -5   0   7    1338     646                                                         586    0.62    0.00  1.0000
   5   0  -7    1453     612                                                         663    0.62    0.00  1.0000
  -5   0   7     153     625                                                         -25    0.62    0.00  1.0000
  -5   0   6    6303    1195                                                        8780   -0.71    0.00  1.0000
   5   0  -6    3878     895                                                        5865   -0.71    0.00  1.0000
  -5   0   6    3881    1065                                                        5869   -0.71    0.00  1.0000
  -5   0   5   16104    1392                                                       12535    0.74    0.00  1.0000
  -5   0   4  160653   10240                                                      172469   -0.72    0.00  1.0000
  -5   0   4  164241    4711                                                      176186   -0.72    0.00  1.0000
  -5   0   3    7710     878                                                        5578    0.65    0.00  1.0000
  -5   0   3    7681    2071                                                        5553    0.65    0.00  1.0000
  -5   0   2  352609   13865                                                      366117   -0.56    0.00  1.0000
  -5   0   2  343943    6059                                                      357285   -0.56    0.00  1.0000
  -5   0   1   53825    5012                                                       49490    0.47    0.00  1.0000
  -5   0   0    8082    1988                                                        6671   -0.41    0.00  1.0000
  -5   0  -1   81808    3318                                                       85848    0.35    0.00  1.0000
  -5   0  -1   74338    3042                                                       78190    0.35    0.00  1.0000
  -5   0  -1   81658    6441                                                       85694    0.35    0.00  1.0000
  -5   0  -2  331565    6731                                                      325149   -0.28    0.00  1.0000
  -5   0  -2  327454   12250                                                      321078   -0.28    0.00  1.0000
  -5   0  -2  324702    6502                                                      318353   -0.28    0.00  1.0000
  -5   0  -3  194379    5471                                                      198490    0.23    0.00  1.0000
  -5   0  -3  184271    5280                                                      188275    0.23    0.00  1.0000
  -5   0  -3  177885    9019                                                      181819    0.23    0.00  1.0000
  -5   0  -4   85579    3609                                                       82924   -0.23    0.00  1.0000
  -5   0  -4   88262    3716                                                       85565   -0.23    0.00  1.0000
  -5   0  -5    2604     882                                                        3096    0.23    0.00  1.0000
  -5   0  -5    1438     714                                                        1809    0.23    0.00  1.0000
  -5   0  -6   14836    1579                                                       15653   -0.16    0.00  1.0000
  -5   0  -6   16755    1718                                                       17623   -0.16    0.00  1.0000
  -5   0  -7   16018    1547                                                       15850    0.03    0.00  1.0000
  -5   0  -8   26394    1631                                                       25952    0.07    0.00  1.0000
  -5   0  -9   34000    1406                                                       34413   -0.06    0.00  1.0000
  -5  -1  10   20773    1161                                                       21572   -0.14    0.00  1.0000
  -5  -1   9    2847     638                                                        2292    0.27    0.00  1.0000
  -5  -1   8   60924    3005                                                       65221   -0.43    0.00  1.0000
   5   1  -8   58476    2755                                                       62687   -0.43    0.00  1.0000
  -5  -1   7   30414    2061                                                       26609    0.56    0.00  1.0000
   5   1  -7   29287    1921                                                       25555    0.56    0.00  1.0000
  -5  -1   7   29118    1782                                                       25398    0.56    0.00  1.0000
  -5  -1   6   15957    1764                                                       19395   -0.64    0.00  1.0000
   5   1  -6   15278    1649                                                       18646   -0.64    0.00  1.0000
  -5  -1   6   15959    1670                                                       19397   -0.64    0.00  1.0000
  -5  -1   5   43194    2265                                                       37766    0.67    0.00  1.0000
   5   1  -5   42242    2250                                                       36876    0.67    0.00  1.0000
  -5  -1   5   41673    2232                                                       36345    0.67    0.00  1.0000
   5   1  -4   12376    1110                                                        9562   -0.67    0.00  1.0000
  -5  -1   4   10817    2296                                                        8198   -0.67    0.00  1.0000
  -5  -1   4   12813    1269                                                        9946   -0.67    0.00  1.0000
  -5  -1   3    1974     582                                                         977    0.66    0.00  1.0000
  -5  -1   3    5668    1827                                                        3858    0.66    0.00  1.0000
  -5  -1   2  604035   17270                                                      585053   -0.61    0.00  1.0000
  -5  -1   1  698981   18792                                                      716871    0.53    0.00  1.0000
  -5  -1   0  203303    9665                                                      195586   -0.43    0.00  1.0000
  -5  -1  -1  102812    7176                                                      107416    0.35    0.00  1.0000
  -5  -1  -2   34525    2177                                                       36881   -0.31    0.00  1.0000
  -5  -1  -2   35404    4296                                                       37789   -0.31    0.00  1.0000
  -5  -1  -3   65472    2902                                                       62498    0.29    0.00  1.0000
  -5  -1  -3   57599    5191                                                       54811    0.29    0.00  1.0000
  -5  -1  -3   60508    2745                                                       57650    0.29    0.00  1.0000
  -5  -1  -4  214614    5567                                                      220207   -0.30    0.00  1.0000
  -5  -1  -4  219365    5660                                                      225019   -0.30    0.00  1.0000
  -5  -1  -4  204421   10041                                                      209880   -0.30    0.00  1.0000
  -5  -1  -5  158263    4757                                                      153197    0.32    0.00  1.0000
  -5  -1  -5  151374    4878                                                      146420    0.32    0.00  1.0000
  -5  -1  -6    4600    1000                                                        5505   -0.32    0.00  1.0000
  -5  -1  -6    2963     950                                                        3697   -0.32    0.00  1.0000
  -5  -1  -7    1091     544                                                        1460    0.26    0.00  1.0000
  -5  -1  -7    1251     848                                                        1644    0.26    0.00  1.0000
  -5  -1  -8     437     559                                                         305   -0.17    0.00  1.0000
  -5  -1  -9    1818     579                                                        2038    0.13    0.00  1.0000
  -5  -1 -10   11095     742                                                       10535   -0.13    0.00  1.0000
  -5  -2   9    5469     747                                                        4723    0.26    0.00  1.0000
  -5  -2   8    7428    1030                                                        6183   -0.38    0.00  1.0000
   5   2  -8    5379     867                                                        4328   -0.38    0.00  1.0000
  -5  -2   7   32390    2336                                                       35764    0.46    0.00  1.0000
   5   2  -7   28120    2143                                                       31269    0.46    0.00  1.0000
  -5  -2   6   38951    2363                                                       35027   -0.51    0.00  1.0000
   5   2  -6   38706    2300                                                       34794   -0.51    0.00  1.0000
  -5  -2   6   38265    2024                                                       34376   -0.51    0.00  1.0000
  -5  -2   5  158073    4851                                                      166738    0.54    0.00  1.0000
   5   2  -5  155609    4810                                                      164207    0.54    0.00  1.0000
  -5  -2   5  154306    4503                                                      162869    0.54    0.00  1.0000
   5   2  -4   12021    1178                                                        9776   -0.54    0.00  1.0000
  -5  -2   4   12832    1268                                                       10508   -0.54    0.00  1.0000
  -5  -2   4   14787    2762                                                       12284   -0.54    0.00  1.0000
  -5  -2   3  172138    9590                                                      181045    0.53    0.00  1.0000
   5   2  -3  164673    4358                                                      173387    0.53    0.00  1.0000
  -5  -2   2    2250    1822                                                        3366   -0.53    0.00  1.0000
  -5  -2   1   95183    6568                                                       88758    0.53    0.00  1.0000
  -5  -2   0  108031    7349                                                      114931   -0.51    0.00  1.0000
  -5  -2  -1  688706   17752                                                      672470    0.49    0.00  1.0000
  -5  -2  -2  241868   10994                                                      251161   -0.47    0.00  1.0000
  -5  -2  -3  142067    4194                                                      135374    0.45    0.00  1.0000
  -5  -2  -3  135988    8002                                                      129442    0.45    0.00  1.0000
  -5  -2  -4    9656    1077                                                        8001   -0.44    0.00  1.0000
  -5  -2  -4    6863    1853                                                        5481   -0.44    0.00  1.0000
  -5  -2  -4    8113     947                                                        6603   -0.44    0.00  1.0000
  -5  -2  -5  174623    4998                                                      182275    0.45    0.00  1.0000
  -5  -2  -5  177200    5091                                                      184907    0.45    0.00  1.0000
  -5  -2  -6   79843    3213                                                       74559   -0.47    0.00  1.0000
  -5  -2  -6   75308    3396                                                       70179   -0.47    0.00  1.0000
  -5  -2  -7  121722    3960                                                      128310    0.46    0.00  1.0000
  -5  -2  -7  129542    4853                                                      136335    0.46    0.00  1.0000
  -5  -2  -8   97482    3750                                                       92619   -0.39    0.00  1.0000
  -5  -2  -9   21365    1700                                                       23102    0.29    0.00  1.0000
  -5  -2 -10     393     401                                                         244   -0.21    0.00  1.0000
  -5  -3   9   19223    1176                                                       20434    0.21    0.00  1.0000
  -5  -3   8   20357    1488                                                       18638   -0.31    0.00  1.0000
   5   3  -8   15998    1290                                                       14479   -0.31    0.00  1.0000
  -5  -3   7    1342     687                                                        1852    0.32    0.00  1.0000
   5   3  -7    1415     775                                                        1938    0.32    0.00  1.0000
  -5  -3   6    4196     835                                                        3447   -0.30    0.00  1.0000
   5   3  -6    4677     961                                                        3884   -0.30    0.00  1.0000
  -5  -3   5   25167    1937                                                       23200    0.31    0.00  1.0000
   5   3  -5   26271    1975                                                       24261    0.31    0.00  1.0000
  -5  -3   5   23773    1602                                                       21863    0.31    0.00  1.0000
   5   3  -4    7840    1247                                                        9137   -0.35    0.00  1.0000
  -5  -3   3  453884   14495                                                      443986    0.37    0.00  1.0000
   5   3  -3  441025    7229                                                      431269    0.37    0.00  1.0000
  -5  -3   2  427625   14585                                                      437338   -0.37    0.00  1.0000
   5   3  -2  423343    6885                                                      433007   -0.37    0.00  1.0000
  -5  -3   1   64585    5440                                                       60619    0.39    0.00  1.0000
  -5  -3   0   28885    3884                                                       32194   -0.47    0.00  1.0000
  -5  -3  -1  212045   10182                                                      222641    0.57    0.00  1.0000
  -5  -3  -2  145021    8042                                                      135626   -0.62    0.00  1.0000
  -5  -3  -3  394502   14348                                                      410431    0.63    0.00  1.0000
  -5  -3  -3  387228    5990                                                      403011    0.63    0.00  1.0000
  -5  -3  -4  185170    9500                                                      175064   -0.59    0.00  1.0000
  -5  -3  -4  185613    4058                                                      175495   -0.59    0.00  1.0000
  -5  -3  -5   11801    1207                                                        9435    0.57    0.00  1.0000
  -5  -3  -5   10171    1095                                                        7985    0.57    0.00  1.0000
  -5  -3  -5   10237    1048                                                        8042    0.57    0.00  1.0000
  -5  -3  -5    9745     901                                                        7608    0.57    0.00  1.0000
  -5  -3  -6     560     765                                                        1246   -0.58    0.00  1.0000
  -5  -3  -6    1219     711                                                        2165   -0.58    0.00  1.0000
  -5  -3  -6     964     703                                                        1821   -0.58    0.00  1.0000
  -5  -3  -7   19962    1449                                                       16850    0.57    0.00  1.0000
  -5  -3  -7   21516    1754                                                       18281    0.57    0.00  1.0000
  -5  -3  -7   20384    1773                                                       17238    0.57    0.00  1.0000
  -5  -3  -8   16326    1742                                                       18960   -0.49    0.00  1.0000
  -5  -3  -9   26037    1795                                                       23828    0.35    0.00  1.0000
  -5  -3 -10   64770    2543                                                       66884   -0.21    0.00  1.0000
  -5  -3 -11   23981    1090                                                       23219    0.12    0.00  1.0000
  -5  -4   8    2417     589                                                        2864   -0.22    0.00  1.0000
  -5  -4   7    2791     757                                                        2372    0.21    0.00  1.0000
   5   4  -7    2545     698                                                        2145    0.21    0.00  1.0000
  -5  -4   6   66526    3159                                                       67757   -0.12    0.00  1.0000
   5   4  -6   64347    3047                                                       65557   -0.12    0.00  1.0000
   5   4  -5   19794    1653                                                       19459    0.06    0.00  1.0000
   5   4  -5   17367    1681                                                       17053    0.06    0.00  1.0000
   5   4  -4   30826    2181                                                       31521   -0.10    0.00  1.0000
   5   4  -3   93731    3432                                                       96042    0.19    0.00  1.0000
   5   4  -3   88602    3532                                                       90849    0.19    0.00  1.0000
   5   4  -2  296993    6036                                                      291723   -0.24    0.00  1.0000
   5   4  -1  161282    4353                                                      165500    0.26    0.00  1.0000
  -5  -4   1  163391    8560                                                      167636    0.26    0.00  1.0000
  -5  -4   0  383409   12929                                                      375671   -0.31    0.00  1.0000
  -5  -4  -1    6316    2159                                                        7799    0.44    0.00  1.0000
  -5  -4  -2    1706    1362                                                        2825   -0.59    0.00  1.0000
  -5  -4  -3  179675    9109                                                      168255    0.68    0.00  1.0000
  -5  -4  -4  386158   14490                                                      403700   -0.69    0.00  1.0000
  -5  -4  -4  384338    6849                                                      401839   -0.69    0.00  1.0000
  -5  -4  -5   59621    2557                                                       53145    0.68    0.00  1.0000
  -5  -4  -6  230458    5786                                                      243737   -0.68    0.00  1.0000
  -5  -4  -6  240198    5721                                                      253751   -0.68    0.00  1.0000
  -5  -4  -6  233730    6141                                                      247102   -0.68    0.00  1.0000
  -5  -4  -7  143189    4202                                                      133210    0.67    0.00  1.0000
  -5  -4  -7  132243    3914                                                      122660    0.67    0.00  1.0000
  -5  -4  -7  132330    4213                                                      122744    0.67    0.00  1.0000
  -5  -4  -7  134427    4579                                                      124764    0.67    0.00  1.0000
  -5  -4  -8   47981    2623                                                       53195   -0.58    0.00  1.0000
  -5  -4  -8   48414    2802                                                       53651   -0.58    0.00  1.0000
  -5  -4  -8   48358    3049                                                       53592   -0.58    0.00  1.0000
  -5  -4  -9    1670     629                                                        1097    0.39    0.00  1.0000
  -5  -4  -9    1628     577                                                        1062    0.39    0.00  1.0000
  -5  -4 -10   29562    1733                                                       28374   -0.17    0.00  1.0000
  -5  -4 -11   11970     880                                                       12176    0.05    0.00  1.0000
  -5  -5   7   13277    1168                                                       13920    0.14    0.00  1.0000
   5   5  -7   11766    1039                                                       12372    0.14    0.00  1.0000
  -5  -5   6   43746    2372                                                       43295   -0.05    0.00  1.0000
   5   5  -6   39173    2143                                                       38746   -0.05    0.00  1.0000
   5   5  -5   27585    1940                                                       27109   -0.07    0.00  1.0000
   5   5  -5   27939    1986                                                       27459   -0.07    0.00  1.0000
   5   5  -4  198002    5259                                                      200081    0.12    0.00  1.0000
   5   5  -4  186066    5158                                                      188081    0.12    0.00  1.0000
   5   5  -3  155502    4739                                                      155047   -0.03    0.00  1.0000
   5   5  -3  172269    4888                                                      171790   -0.03    0.00  1.0000
   5   5  -2   17349    1664                                                       16755   -0.11    0.00  1.0000
   5   5  -2   19019    1664                                                       18397   -0.11    0.00  1.0000
   5   5  -1     402     708                                                         587    0.21    0.00  1.0000
   5   5  -1     790     612                                                        1042    0.21    0.00  1.0000
   5   5   0  262169    5719                                                      267307   -0.25    0.00  1.0000
  -5  -5  -1  273476   10686                                                      266968    0.31    0.00  1.0000
   5   5   1  261717    5506                                                      255352    0.31    0.00  1.0000
   5   5   2  494669   15379                                                      507186   -0.44    0.00  1.0000
   5   5   2  487494    7662                                                      499920   -0.44    0.00  1.0000
  -5  -5  -2  488031    7614                                                      500464   -0.44    0.00  1.0000
   5   5   3  186603    8556                                                      176526    0.59    0.00  1.0000
   5   5   3  184045    4564                                                      174039    0.59    0.00  1.0000
  -5  -5  -3  184125    9238                                                      174116    0.59    0.00  1.0000
  -5  -5  -3  192873    4555                                                      182626    0.59    0.00  1.0000
  -5  -5  -4   30792    3927                                                       26142   -0.69    0.00  1.0000
  -5  -5  -4   26326    1695                                                       22041   -0.69    0.00  1.0000
  -5  -5  -5     583     653                                                        1494    0.72    0.00  1.0000
  -5  -5  -5     705     641                                                        1685    0.72    0.00  1.0000
  -5  -5  -6   64703    2942                                                       57430   -0.73    0.00  1.0000
  -5  -5  -6   67587    3024                                                       60149   -0.73    0.00  1.0000
  -5  -5  -7   23681    1943                                                       28391    0.73    0.00  1.0000
  -5  -5  -7   22745    2206                                                       27365    0.73    0.00  1.0000
  -5  -5  -7   22913    2037                                                       27550    0.73    0.00  1.0000
  -5  -5  -8   13421    1436                                                       10562   -0.65    0.00  1.0000
  -5  -5  -8   13545    1318                                                       10672   -0.65    0.00  1.0000
  -5  -5  -9   51740    3045                                                       56026    0.46    0.00  1.0000
  -5  -5 -10    8600    1095                                                        7854   -0.20    0.00  1.0000
  -5  -5 -11   12749     976                                                       12800    0.01    0.00  1.0000
  -5  -6   6   28999    1625                                                       28460   -0.08    0.00  1.0000
   5   6  -6   24575    1339                                                       24080   -0.08    0.00  1.0000
   5   6  -5    2152     598                                                        2111   -0.02    0.00  1.0000
   5   6  -5    1535     622                                                        1501   -0.02    0.00  1.0000
   5   6  -4   57157    2730                                                       55913    0.13    0.00  1.0000
   5   6  -4   55741    2739                                                       54513    0.13    0.00  1.0000
   5   6  -3  104399    3854                                                      106230   -0.14    0.00  1.0000
   5   6  -3  113826    4059                                                      115738   -0.14    0.00  1.0000
   5   6  -3  109757    3929                                                      111635   -0.14    0.00  1.0000
   5   6  -2   13630    1588                                                       13509    0.03    0.00  1.0000
   5   6  -2   14069    1469                                                       13945    0.03    0.00  1.0000
   5   6  -2   13291    1467                                                       13170    0.03    0.00  1.0000
   5   6  -1   34539    2357                                                       33523    0.14    0.00  1.0000
   5   6  -1   35200    2250                                                       34174    0.14    0.00  1.0000
   5   6   0    1747     774                                                        1339   -0.26    0.00  1.0000
   5   6   0     660    1512                                                         420   -0.26    0.00  1.0000
   5   6   0    3512     769                                                        2922   -0.26    0.00  1.0000
   5   6   1    6764    1274                                                        7895    0.33    0.00  1.0000
   5   6   1    8116    1368                                                        9351    0.33    0.00  1.0000
   5   6   1    6010    2126                                                        7079    0.33    0.00  1.0000
   5   6   1    7108    1142                                                        8267    0.33    0.00  1.0000
   5   6   2  138082    8530                                                      132161   -0.40    0.00  1.0000
   5   6   2  137374    4200                                                      131468   -0.40    0.00  1.0000
   5   6   2  143266    4279                                                      137233   -0.40    0.00  1.0000
   5   6   3  211137   10345                                                      220592    0.51    0.00  1.0000
   5   6   3  203643    5139                                                      212930    0.51    0.00  1.0000
   5   6   3  218270    5554                                                      227882    0.51    0.00  1.0000
  -5  -6  -3  212322    5283                                                      221803    0.51    0.00  1.0000
   5   6   4    3600     696                                                        2273   -0.61    0.00  1.0000
  -5  -6  -4    4407     739                                                        2923   -0.61    0.00  1.0000
   5   6   5   97574    3250                                                      106178    0.67    0.00  1.0000
  -5  -6  -5   97081    4178                                                      105664    0.67    0.00  1.0000
  -5  -6  -5   99237    3753                                                      107913    0.67    0.00  1.0000
  -5  -6  -6   27021    1816                                                       22753   -0.67    0.00  1.0000
  -5  -6  -6   28192    2021                                                       23829   -0.67    0.00  1.0000
  -5  -6  -7    5323    1276                                                        7388    0.65    0.00  1.0000
  -5  -6  -7    4359    1137                                                        6244    0.65    0.00  1.0000
  -5  -6  -7    4188    1036                                                        6039    0.65    0.00  1.0000
  -5  -6  -8   10005    1389                                                       12506   -0.59    0.00  1.0000
  -5  -6  -8   10313    1619                                                       12850   -0.59    0.00  1.0000
  -5  -6  -8    9622    1422                                                       12077   -0.59    0.00  1.0000
  -5  -6  -9  173478    4469                                                      165864    0.46    0.00  1.0000
  -5  -6  -9  172260    5170                                                      164673    0.46    0.00  1.0000
  -5  -6 -10   79954    2818                                                       82940   -0.26    0.00  1.0000
  -5  -6 -10   82368    3450                                                       85399   -0.26    0.00  1.0000
  -5  -6 -11  134911    2782                                                      133992    0.06    0.00  1.0000
  -5  -6 -11  143920    3771                                                      142971    0.06    0.00  1.0000
  -5  -7   5   26809    1476                                                       26303    0.08    0.00  1.0000
   5   7  -5   23331    1139                                                       22859    0.08    0.00  1.0000
   5   7  -4   10533    1114                                                       10536    0.00    0.00  1.0000
   5   7  -4    9608    1051                                                        9611    0.00    0.00  1.0000
   5   7  -3   17069    1522                                                       16767   -0.06    0.00  1.0000
   5   7  -3   15097    1391                                                       14813   -0.06    0.00  1.0000
   5   7  -2   38181    2366                                                       38519    0.04    0.00  1.0000
   5   7  -2   36323    2289                                                       36653    0.04    0.00  1.0000
   5   7  -1  154703    5110                                                      155524    0.05    0.00  1.0000
   5   7  -1  165524    4799                                                      166373    0.05    0.00  1.0000
   5   7  -1  159135    4706                                                      159968    0.05    0.00  1.0000
   5   7   0   68247    3484                                                       66329   -0.18    0.00  1.0000
   5   7   0   72028    3049                                                       70057   -0.18    0.00  1.0000
   5   7   0   73614    3206                                                       71621   -0.18    0.00  1.0000
   5   7   1   45568    2951                                                       48203    0.30    0.00  1.0000
   5   7   1   43325    2982                                                       45895    0.30    0.00  1.0000
   5   7   1   50791    2817                                                       53571    0.30    0.00  1.0000
   5   7   2      62     760                                                        -491   -0.39    0.00  1.0000
   5   7   2     785     757                                                         406   -0.39    0.00  1.0000
   5   7   2      62     550                                                         -79   -0.39    0.00  1.0000
   5   7   3   55701    2812                                                       51392    0.46    0.00  1.0000
   5   7   3   57082    2817                                                       52719    0.46    0.00  1.0000
   5   7   3   58868    2877                                                       54436    0.46    0.00  1.0000
   5   7   4    1898     848                                                        2929   -0.53    0.00  1.0000
   5   7   4    1930     945                                                        2969   -0.53    0.00  1.0000
  -5  -7  -5  115323    3754                                                      107873    0.56    0.00  1.0000
  -5  -7  -6  108954    3899                                                      116073   -0.53    0.00  1.0000
  -5  -7  -6  108657    4414                                                      115766   -0.53    0.00  1.0000
  -5  -7  -7   96231    3425                                                       90615    0.46    0.00  1.0000
  -5  -7  -7   96317    3830                                                       90699    0.46    0.00  1.0000
  -5  -7  -7   97318    3920                                                       91670    0.46    0.00  1.0000
  -5  -7  -8  105155    3631                                                      110148   -0.38    0.00  1.0000
  -5  -7  -8  112125    4201                                                      117279   -0.38    0.00  1.0000
  -5  -7  -8  100259    4220                                                      105136   -0.38    0.00  1.0000
  -5  -7  -9     122     534                                                         297    0.31    0.00  1.0000
  -5  -7  -9       5     394                                                          70    0.31    0.00  1.0000
  -5  -7 -10    1227     674                                                         931   -0.23    0.00  1.0000
  -5  -7 -10    2057     440                                                        1667   -0.23    0.00  1.0000
  -5  -7 -11  161957    3914                                                      163971    0.12    0.00  1.0000
   5   8  -4   22409    1103                                                       21899   -0.09    0.00  1.0000
   5   8  -3    1290     528                                                        1376    0.06    0.00  1.0000
   5   8  -3    1072     441                                                        1151    0.06    0.00  1.0000
   5   8  -2    6011     942                                                        5847   -0.05    0.00  1.0000
   5   8  -2    5007     820                                                        4857   -0.05    0.00  1.0000
   5   8  -1    3788     828                                                        3629    0.06    0.00  1.0000
   5   8  -1    3211     795                                                        3065    0.06    0.00  1.0000
   5   8   0   52441    2694                                                       53322   -0.10    0.00  1.0000
   5   8   0   50105    2632                                                       50967   -0.10    0.00  1.0000
   5   8   1  239717    6287                                                      236728    0.15    0.00  1.0000
   5   8   1  247798    5714                                                      244759    0.15    0.00  1.0000
   5   8   2  234378    6575                                                      238846   -0.23    0.00  1.0000
   5   8   2  217524    6194                                                      221829   -0.23    0.00  1.0000
   5   8   2  237002    5782                                                      241494   -0.23    0.00  1.0000
   5   8   3    9697    1411                                                        8543    0.30    0.00  1.0000
   5   8   3    8705    1273                                                        7613    0.30    0.00  1.0000
   5   8   3    9706    1232                                                        8551    0.30    0.00  1.0000
   5   8   4   22964    2045                                                       25148   -0.35    0.00  1.0000
   5   8   4   23710    2013                                                       25929   -0.35    0.00  1.0000
   5   8   4   28607    2174                                                       31040   -0.35    0.00  1.0000
   5   8   5    1626     615                                                        1084    0.37    0.00  1.0000
  -5  -8  -6    3136     942                                                        3957   -0.34    0.00  1.0000
   5   8   6    2703     929                                                        3468   -0.34    0.00  1.0000
  -5  -8  -7    2902     871                                                        3522    0.27    0.00  1.0000
  -5  -8  -7    3841     950                                                        4549    0.27    0.00  1.0000
  -5  -8  -8  146042    4641                                                      143298   -0.18    0.00  1.0000
  -5  -8  -9   92230    3589                                                       93600    0.11    0.00  1.0000
  -5  -8 -10  173378    4391                                                      171822   -0.09    0.00  1.0000
  -5  -8 -11    4486     697                                                        4758    0.10    0.00  1.0000
   5   9  -2   35647    1561                                                       36329   -0.09    0.00  1.0000
   5   9  -1   21673    1424                                                       21033    0.11    0.00  1.0000
   5   9   0   21935    1623                                                       22529   -0.10    0.00  1.0000
   5   9   0   19773    1325                                                       20337   -0.10    0.00  1.0000
   5   9   1   10767    1208                                                       10482    0.07    0.00  1.0000
   5   9   1   10681    1083                                                       10397    0.07    0.00  1.0000
   5   9   2     977     555                                                        1049   -0.06    0.00  1.0000
   5   9   3    6401    1117                                                        6157    0.08    0.00  1.0000
   5   9   3    7151    1000                                                        6894    0.08    0.00  1.0000
   5   9   4   44143    2569                                                       43236   -0.11    0.00  1.0000
   5   9   4   45176    2412                                                       44258   -0.11    0.00  1.0000
   5   9   5   67695    3080                                                       69065    0.13    0.00  1.0000
   5   9   5   70818    3127                                                       72219    0.13    0.00  1.0000
   5   9   6   34102    2136                                                       33084   -0.14    0.00  1.0000
   5   9   7    4454     980                                                        4793    0.12    0.00  1.0000
   5   9   8   53060    2521                                                       53777   -0.08    0.00  1.0000
  -5  -9  -8   50085    2450                                                       50781   -0.08    0.00  1.0000
   5   9   9   34887    1880                                                       34768    0.02    0.00  1.0000
  -5  -9  -9   33494    1870                                                       33378    0.02    0.00  1.0000
   5   9  10  171701    3651                                                      171464    0.01    0.00  1.0000
  -5  -9 -10  158099    3572                                                      157872    0.01    0.00  1.0000
   5   9  11   52376    1626                                                       52270    0.01    0.00  1.0000
   5  10   0   34132    1401                                                       33374   -0.10    0.00  1.0000
   5  10   1    8806     884                                                        9146    0.09    0.00  1.0000
   5  10   2   14245    1168                                                       14472   -0.05    0.00  1.0000
   5  10   3    6281     708                                                        6247    0.01    0.00  1.0000
   5  10   4    8047    1091                                                        8030    0.00    0.00  1.0000
   5  10   4    8047     865                                                        8031    0.00    0.00  1.0000
   5  10   5    6821     910                                                        6844   -0.01    0.00  1.0000
   5  10   5    6401     843                                                        6422   -0.01    0.00  1.0000
   5  10   6   46591    2085                                                       46590    0.00    0.00  1.0000
   5  10   7  187445    4032                                                      187156    0.02    0.00  1.0000
   5  10   8   80475    2549                                                       80793   -0.03    0.00  1.0000
   5  10   9   47883    1772                                                       47787    0.01    0.00  1.0000
   5  10  10   26618    1100                                                       26775    0.02    0.00  1.0000
  -6   5   5   31192    1349                                                       32185    0.14    0.00  1.0000
  -6   5   4   32184    1414                                                       30989   -0.17    0.00  1.0000
  -6   5   3   21297     959                                                       22193    0.15    0.00  1.0000
  -6   5   3   25652    1298                                                       26635    0.15    0.00  1.0000
  -6   5   2   14026     854                                                       13331   -0.15    0.00  1.0000
  -6   5   2   15124     925                                                       14402   -0.15    0.00  1.0000
  -6   5   1   26324    1130                                                       25252    0.17    0.00  1.0000
  -6   4   7   14268     985                                                       14498    0.05    0.00  1.0000
  -6   4   6    9358     897                                                        9074   -0.07    0.00  1.0000
  -6   4   5      38     358                                                           9    0.16    0.00  1.0000
  -6   4   4    8979    1047                                                        9793   -0.21    0.00  1.0000
  -6   4   3   55247    2110                                                       53517    0.18    0.00  1.0000
  -6   4   3   52268    2246                                                       50586    0.18    0.00  1.0000
  -6   4   2  195209    4248                                                      198258   -0.17    0.00  1.0000
  -6   4   2  184845    4230                                                      187813   -0.17    0.00  1.0000
  -6   4   1   11542    1095                                                       10429    0.26    0.00  1.0000
  -6   4   1   13216    1092                                                       12023    0.26    0.00  1.0000
  -6   4   0   21298    1475                                                       23717   -0.40    0.00  1.0000
  -6   4  -1      66     404                                                        -377    0.40    0.00  1.0000
  -6   4  -2    3703     448                                                        3225   -0.20    0.00  1.0000
  -6   3   8    5054     567                                                        4602   -0.16    0.00  1.0000
  -6   3   7   12484    1063                                                       12014    0.11    0.00  1.0000
  -6   3   7   12157    1185                                                       11694    0.11    0.00  1.0000
  -6   3   6   88342    3097                                                       89530   -0.10    0.00  1.0000
  -6   3   6   91689    3195                                                       92900   -0.10    0.00  1.0000
  -6   3   5   87849    3127                                                       85825    0.17    0.00  1.0000
  -6   3   5   89784    3160                                                       87737    0.17    0.00  1.0000
  -6   3   4   61682    2399                                                       64005   -0.23    0.00  1.0000
  -6   3   4   58714    2707                                                       60981   -0.23    0.00  1.0000
  -6   3   4   56240    2542                                                       58459   -0.23    0.00  1.0000
  -6   3   3   20642    1558                                                       19473    0.21    0.00  1.0000
  -6   3   3   17981    1496                                                       16891    0.21    0.00  1.0000
  -6   3   2   84906    3294                                                       82723   -0.19    0.00  1.0000
  -6   3   2   78737    3071                                                       76636   -0.19    0.00  1.0000
  -6   3   1   15924    1630                                                       17760    0.35    0.00  1.0000
  -6   3   1   13640    1392                                                       15342    0.35    0.00  1.0000
  -6   3   0   84050    3213                                                       76145   -0.70    0.00  1.0000
  -6   3   0   82711    2909                                                       74871   -0.70    0.00  1.0000
  -6   3  -1    9920    1387                                                       14045    0.94    0.00  1.0000
  -6   3  -2      20     452                                                         425   -0.80    0.00  1.0000
  -6   3  -3   15968    1132                                                       17622    0.32    0.00  1.0000
  -6   2   8   23347    1558                                                       24269   -0.15    0.00  1.0000
  -6   2   7       5     630                                                        -256    0.11    0.00  1.0000
  -6   2   6   38839    2231                                                       38034   -0.10    0.00  1.0000
  -6   2   5   73328    3097                                                       75278    0.18    0.00  1.0000
  -6   2   5   78619    3278                                                       80638    0.18    0.00  1.0000
  -6   2   4  122428    3510                                                      119039   -0.24    0.00  1.0000
  -6   2   4  124482    4006                                                      121064   -0.24    0.00  1.0000
  -6   2   4  126692    3979                                                      123244   -0.24    0.00  1.0000
  -6   2   3  213837    5177                                                      217201    0.18    0.00  1.0000
  -6   2   3  204193    5205                                                      207480    0.18    0.00  1.0000
  -6   2   3  207309    4998                                                      210621    0.18    0.00  1.0000
  -6   2   2    4886    1085                                                        5083   -0.07    0.00  1.0000
  -6   2   2    3109     690                                                        3267   -0.07    0.00  1.0000
  -6   2   1    1439     658                                                        1704    0.17    0.00  1.0000
  -6   2   1     571     489                                                         742    0.17    0.00  1.0000
  -6   2   0   30071    2305                                                       34375   -0.60    0.00  1.0000
  -6   2   0   27734    2031                                                       31874   -0.60    0.00  1.0000
  -6   2  -1   35539    2112                                                       27612    1.11    0.00  1.0000
  -6   2  -1   31634    1719                                                       24184    1.11    0.00  1.0000
  -6   2  -2    3212    1152                                                        6730   -1.26    0.00  1.0000
  -6   2  -2  157866    4264                                                      178658   -1.26    0.00  1.0000
  -6   2  -3  288970    5316                                                      270779    0.86    0.00  1.0000
  -6   2  -3  293800    4869                                                      275455    0.86    0.00  1.0000
  -6   2  -4      15     443                                                        -448   -0.19    0.00  1.0000
  -6   2  -4   76015    2439                                                       78139   -0.19    0.00  1.0000
  -6   2  -5   99413    2282                                                      102470   -0.24    0.00  1.0000
  -6   1   8   57666    2321                                                       57161   -0.05    0.00  1.0000
  -6   1   7  159321    4372                                                      159999    0.04    0.00  1.0000
  -6   1   6  129015    4130                                                      128479   -0.04    0.00  1.0000
  -6   1   5   26816    2019                                                       27581    0.12    0.00  1.0000
  -6   1   4    3483     926                                                        3973   -0.20    0.00  1.0000
  -6   1   3  256660    5672                                                      254306    0.12    0.00  1.0000
  -6   1   3  261653    5882                                                      259276    0.12    0.00  1.0000
  -6   1   2   47343    2384                                                       46078    0.15    0.00  1.0000
  -6   1   2   46317    2366                                                       45066    0.15    0.00  1.0000
  -6   1   1  145581    4479                                                      150342   -0.31    0.00  1.0000
  -6   1   1  150530    4249                                                      155370   -0.31    0.00  1.0000
  -6   1   0   31253    2210                                                       30762    0.07    0.00  1.0000
  -6   1   0   31675    1917                                                       31182    0.07    0.00  1.0000
  -6   1  -1     621     579                                                        1240    0.51    0.00  1.0000
  -6   1  -1     106     442                                                        -607    0.51    0.00  1.0000
  -6   1  -2   13685    1852                                                       18759   -0.99    0.00  1.0000
  -6   1  -2   15757    1790                                                       21173   -0.99    0.00  1.0000
  -6   1  -2   16875    1612                                                       22465   -0.99    0.00  1.0000
  -6   1  -2   12411    1590                                                       17262   -0.99    0.00  1.0000
  -6   1  -3  259573    6617                                                      279947    0.98    0.00  1.0000
  -6   1  -3  257364    6093                                                      277653    0.98    0.00  1.0000
  -6   1  -4    3288     663                                                        2204   -0.52    0.00  1.0000
  -6   1  -4    4107     784                                                        2884   -0.52    0.00  1.0000
  -6   1  -5   34290    1889                                                       34711    0.06    0.00  1.0000
  -6   1  -6    8343     812                                                        8549    0.06    0.00  1.0000
  -6   1  -7   29090     956                                                       29896    0.12    0.00  1.0000
  -6   0   8    2988     541                                                        2867    0.06    0.00  1.0000
  -6   0   8    2179     595                                                        2076    0.06    0.00  1.0000
  -6   0   7   39563    2183                                                       40008   -0.06    0.00  1.0000
  -6   0   6   92407    3573                                                       91634    0.06    0.00  1.0000
  -6   0   5  147294    4560                                                      147556   -0.02    0.00  1.0000
  -6   0   4  232680    5742                                                      233996   -0.07    0.00  1.0000
  -6   0   3    9547    1298                                                        9671    0.03    0.00  1.0000
  -6   0   2    2241     800                                                        2752    0.25    0.00  1.0000
  -6   0   1  118627    3787                                                      109833   -0.65    0.00  1.0000
  -6   0   1  118042    3539                                                      109270   -0.65    0.00  1.0000
  -6   0   0   71236    3452                                                       79926    0.79    0.00  1.0000
  -6   0   0  196866    4440                                                      211146    0.79    0.00  1.0000
  -6   0  -1   15174    1521                                                       12953   -0.47    0.00  1.0000
  -6   0  -1   22978    1603                                                       20225   -0.47    0.00  1.0000
  -6   0  -2  382516    7898                                                      380057   -0.10    0.00  1.0000
  -6   0  -2  360911    6939                                                      358523   -0.10    0.00  1.0000
  -6   0  -3   33794    2266                                                       30390    0.47    0.00  1.0000
  -6   0  -3   30741    2033                                                       27499    0.47    0.00  1.0000
  -6   0  -4   13516    1465                                                       11484   -0.45    0.00  1.0000
  -6   0  -4   14694    1293                                                       12572   -0.45    0.00  1.0000
  -6   0  -4   14121    1404                                                       12042   -0.45    0.00  1.0000
  -6   0  -5   12399    1367                                                       11343    0.24    0.00  1.0000
  -6   0  -5   12402    1131                                                       11345    0.24    0.00  1.0000
  -6   0  -5   12918    1330                                                       11839    0.24    0.00  1.0000
  -6   0  -6   20086    1568                                                       20972   -0.15    0.00  1.0000
  -6   0  -7    1859     477                                                        1454    0.25    0.00  1.0000
  -6   0  -8   54097    1486                                                       57124   -0.32    0.00  1.0000
  -6  -1   8   77480    2393                                                       76007    0.13    0.00  1.0000
  -6  -1   8   68402    2098                                                       67018    0.13    0.00  1.0000
  -6  -1   7   25511    1634                                                       26446   -0.14    0.00  1.0000
  -6  -1   7   25610    1708                                                       26547   -0.14    0.00  1.0000
   6   1  -6    6030     961                                                        6485    0.14    0.00  1.0000
  -6  -1   6    4309    1025                                                        4695    0.14    0.00  1.0000
  -6  -1   5   32802    2196                                                       31860   -0.13    0.00  1.0000
  -6  -1   4  141572    4536                                                      142946    0.09    0.00  1.0000
  -6  -1   3    3931     950                                                        4134   -0.08    0.00  1.0000
  -6  -1   2   39347    5212                                                       41174    0.23    0.00  1.0000
  -6  -1   2   37232    2310                                                       39010    0.23    0.00  1.0000
  -6  -1   1   16267    1337                                                       13476   -0.57    0.00  1.0000
  -6  -1   1   18771    3168                                                       15763   -0.57    0.00  1.0000
  -6  -1   1   16495    1357                                                       13683   -0.57    0.00  1.0000
  -6  -1   0    7471     944                                                        4632    0.91    0.00  1.0000
  -6  -1   0    5570     640                                                        3165    0.91    0.00  1.0000
  -6  -1  -1     129     609                                                         943   -0.96    0.00  1.0000
  -6  -1  -1    1247     958                                                        2989   -0.96    0.00  1.0000
  -6  -1  -2  899125   11711                                                      875098    0.64    0.00  1.0000
  -6  -1  -2  834077   10100                                                      810942    0.64    0.00  1.0000
  -6  -1  -3   33229    2401                                                       34457   -0.17    0.00  1.0000
  -6  -1  -3   31420    2212                                                       32614   -0.17    0.00  1.0000
  -6  -1  -4  102539    4081                                                      104367   -0.14    0.00  1.0000
  -6  -1  -4   98587    3842                                                      100379   -0.14    0.00  1.0000
  -6  -1  -5    8873    1220                                                        8032    0.23    0.00  1.0000
  -6  -1  -5    7923     899                                                        7129    0.23    0.00  1.0000
  -6  -1  -5    7231    1102                                                        6474    0.23    0.00  1.0000
  -6  -1  -6    7182    1019                                                        6342   -0.25    0.00  1.0000
  -6  -1  -6    8066    1059                                                        7174   -0.25    0.00  1.0000
  -6  -1  -7    2770     715                                                        2122    0.33    0.00  1.0000
  -6  -1  -8  107441    2820                                                      102758   -0.36    0.00  1.0000
  -6  -2   8   12054     976                                                       12762    0.16    0.00  1.0000
  -6  -2   7   44936    2071                                                       43285   -0.20    0.00  1.0000
   6   2  -7   40942    2046                                                       39367   -0.20    0.00  1.0000
  -6  -2   7   41162    1805                                                       39583   -0.20    0.00  1.0000
  -6  -2   6   45538    2283                                                       47179    0.19    0.00  1.0000
   6   2  -6   46692    2444                                                       48355    0.19    0.00  1.0000
  -6  -2   6   43891    2339                                                       45503    0.19    0.00  1.0000
   6   2  -5   28154    1930                                                       26957   -0.18    0.00  1.0000
  -6  -2   5   25831    1890                                                       24685   -0.18    0.00  1.0000
   6   2  -4  157323    4374                                                      154432    0.18    0.00  1.0000
  -6  -2   4  151742    4559                                                      148903    0.18    0.00  1.0000
   6   2  -3  181591    4663                                                      184838   -0.19    0.00  1.0000
  -6  -2   3  180917    5114                                                      184158   -0.19    0.00  1.0000
  -6  -2   2  481225   16827                                                      475016    0.22    0.00  1.0000
  -6  -2   1  291734    6170                                                      299421   -0.35    0.00  1.0000
  -6  -2   1  312378   13825                                                      320330   -0.35    0.00  1.0000
  -6  -2   0   64154    2872                                                       58455    0.57    0.00  1.0000
  -6  -2   0   61257    5762                                                       55691    0.57    0.00  1.0000
  -6  -2  -1  510411   17442                                                      531895   -0.74    0.00  1.0000
  -6  -2  -1  498314    8813                                                      519545   -0.74    0.00  1.0000
  -6  -2  -2   74821    3574                                                       82434    0.68    0.00  1.0000
  -6  -2  -2   77753    7048                                                       85510    0.68    0.00  1.0000
  -6  -2  -2   62053    2715                                                       69003    0.68    0.00  1.0000
  -6  -2  -2   73203    2932                                                       80735    0.68    0.00  1.0000
  -6  -2  -3   31328    2355                                                       34011   -0.37    0.00  1.0000
  -6  -2  -3   28198    1983                                                       30746   -0.37    0.00  1.0000
  -6  -2  -3   31147    4450                                                       33822   -0.37    0.00  1.0000
  -6  -2  -3   29978    1994                                                       32604   -0.37    0.00  1.0000
  -6  -2  -4   33057    2353                                                       33125    0.01    0.00  1.0000
  -6  -2  -4   34386    2172                                                       34455    0.01    0.00  1.0000
  -6  -2  -5   95139    3945                                                       97903    0.22    0.00  1.0000
  -6  -2  -5   97114    3765                                                       99906    0.22    0.00  1.0000
  -6  -2  -6   27400    1932                                                       25383   -0.31    0.00  1.0000
  -6  -2  -6   29569    1994                                                       27471   -0.31    0.00  1.0000
  -6  -2  -7  200785    4787                                                      206976    0.34    0.00  1.0000
  -6  -2  -7  220382    5472                                                      226865    0.34    0.00  1.0000
  -6  -2  -8      23     467                                                         136   -0.34    0.00  1.0000
  -6  -2  -9    1955     418                                                        1522    0.26    0.00  1.0000
  -6  -2  -9    1100     353                                                         783    0.26    0.00  1.0000
  -6  -3   8    1897     352                                                        1721    0.10    0.00  1.0000
  -6  -3   7   55797    2271                                                       57294   -0.16    0.00  1.0000
   6   3  -7   50154    2258                                                       51574   -0.16    0.00  1.0000
  -6  -3   6   81814    2978                                                       79688    0.19    0.00  1.0000
   6   3  -6   80842    3083                                                       78728    0.19    0.00  1.0000
  -6  -3   6   80785    2686                                                       78672    0.19    0.00  1.0000
   6   3  -5  144896    4455                                                      148000   -0.20    0.00  1.0000
  -6  -3   5  138315    4079                                                      141348   -0.20    0.00  1.0000
   6   3  -4   10666    1317                                                        9743    0.23    0.00  1.0000
  -6  -3   4   12099    1357                                                       11114    0.23    0.00  1.0000
   6   3  -3  121435    4077                                                      125176   -0.27    0.00  1.0000
   6   3  -2   89477    3257                                                       85970    0.29    0.00  1.0000
  -6  -3   1      40    1727                                                       -3157   -0.32    0.00  1.0000
   6   3  -1    1792     634                                                        2370   -0.32    0.00  1.0000
  -6  -3   0    5437    2274                                                        6541    0.36    0.00  1.0000
  -6  -3  -1 1008424   23749                                                      992185   -0.40    0.00  1.0000
  -6  -3  -1  959339   10307                                                      943502   -0.40    0.00  1.0000
  -6  -3  -2      58    1549                                                       -2159    0.38    0.00  1.0000
  -6  -3  -2      58     485                                                        -212    0.38    0.00  1.0000
  -6  -3  -3   32212    2240                                                       30744   -0.21    0.00  1.0000
  -6  -3  -3   31958    4455                                                       30495   -0.21    0.00  1.0000
  -6  -3  -3   35159    2079                                                       33624   -0.21    0.00  1.0000
  -6  -3  -4    1267     645                                                        1369   -0.07    0.00  1.0000
  -6  -3  -4    1095     664                                                        1191   -0.07    0.00  1.0000
  -6  -3  -5   37056    2378                                                       34765    0.30    0.00  1.0000
  -6  -3  -5   33527    2005                                                       31350    0.30    0.00  1.0000
  -6  -3  -6      59     552                                                        -403   -0.38    0.00  1.0000
  -6  -3  -6      59     600                                                         -87   -0.38    0.00  1.0000
  -6  -3  -7  289747    5820                                                      282372    0.34    0.00  1.0000
  -6  -3  -7  307793    6472                                                      300190    0.34    0.00  1.0000
  -6  -3  -8   55832    2620                                                       58422   -0.27    0.00  1.0000
  -6  -3  -9   23018    1355                                                       21825    0.20    0.00  1.0000
  -6  -3 -10     834     304                                                         978   -0.12    0.00  1.0000
  -6  -4   7    9727     863                                                        9852   -0.03    0.00  1.0000
   6   4  -7    8206     894                                                        8321   -0.03    0.00  1.0000
  -6  -4   6    1860     573                                                        1680    0.11    0.00  1.0000
   6   4  -6    2265     720                                                        2067    0.11    0.00  1.0000
  -6  -4   5   46868    2264                                                       45103   -0.20    0.00  1.0000
   6   4  -5   47580    2514                                                       45802   -0.20    0.00  1.0000
  -6  -4   5   43625    2005                                                       41922   -0.20    0.00  1.0000
   6   4  -4   21821    1930                                                       23622    0.30    0.00  1.0000
  -6  -4   4   24827    1873                                                       26747    0.30    0.00  1.0000
   6   4  -3   84882    3168                                                       80725   -0.36    0.00  1.0000
   6   4  -3   78410    3292                                                       74416   -0.36    0.00  1.0000
   6   4  -2   79167    3405                                                       83617    0.39    0.00  1.0000
   6   4  -1   16915    1509                                                       14914   -0.40    0.00  1.0000
  -6  -4   1   18557    3124                                                       16458   -0.40    0.00  1.0000
  -6  -4   0  187622   10401                                                      194494    0.39    0.00  1.0000
   6   4   0  176397    4823                                                      183062    0.39    0.00  1.0000
  -6  -4  -1  321777   13557                                                      330326   -0.37    0.00  1.0000
   6   4   1  311618    6189                                                      320032   -0.37    0.00  1.0000
  -6  -4  -1  303234    6298                                                      311535   -0.37    0.00  1.0000
  -6  -4  -2   12897    2742                                                       11538    0.31    0.00  1.0000
   6   4   2   13153    1250                                                       11780    0.31    0.00  1.0000
  -6  -4  -2   12829    1299                                                       11474    0.31    0.00  1.0000
   6   4   3  232856    5172                                                      235824   -0.15    0.00  1.0000
  -6  -4  -3  238517    5638                                                      241521   -0.15    0.00  1.0000
  -6  -4  -4  199114    5232                                                      200439   -0.07    0.00  1.0000
  -6  -4  -5    3330     794                                                        2714    0.28    0.00  1.0000
  -6  -4  -5    3755     752                                                        3099    0.28    0.00  1.0000
  -6  -4  -6   88992    3756                                                       93343   -0.36    0.00  1.0000
  -6  -4  -7   69691    3034                                                       72876    0.30    0.00  1.0000
  -6  -4  -8   19325    1438                                                       18347   -0.18    0.00  1.0000
  -6  -4  -9   50853    2069                                                       51669    0.09    0.00  1.0000
  -6  -4 -10   93971    2497                                                       93285   -0.06    0.00  1.0000
  -6  -5   6   39745    1745                                                       39849    0.01    0.00  1.0000
   6   5  -6   34433    1803                                                       34529    0.01    0.00  1.0000
  -6  -5   5      11     496                                                        -316   -0.17    0.00  1.0000
   6   5  -5      11     591                                                        -547   -0.17    0.00  1.0000
  -6  -5   4    3842     834                                                        4780    0.36    0.00  1.0000
  -6  -5   4    3338     700                                                        4216    0.36    0.00  1.0000
   6   5  -4    3619     947                                                        4531    0.36    0.00  1.0000
   6   5  -3      29     676                                                         230   -0.49    0.00  1.0000
   6   5  -3       2     622                                                         125   -0.49    0.00  1.0000
   6   5  -2   33176    2081                                                       29551    0.51    0.00  1.0000
   6   5  -2   35311    2232                                                       31568    0.51    0.00  1.0000
   6   5  -1   46667    2693                                                       50776   -0.46    0.00  1.0000
   6   5  -1   43304    2629                                                       47266   -0.46    0.00  1.0000
   6   5   0  455106    7848                                                      443773    0.42    0.00  1.0000
  -6  -5  -1   40134    4443                                                       36906   -0.41    0.00  1.0000
   6   5   1   41692    2366                                                       38402   -0.41    0.00  1.0000
   6   5   2    4326     855                                                        3363    0.39    0.00  1.0000
  -6  -5  -2    4279     851                                                        3322    0.39    0.00  1.0000
  -6  -5  -3    5203    2132                                                        4385   -0.29    0.00  1.0000
   6   5   3    4575     787                                                        3811   -0.29    0.00  1.0000
  -6  -5  -3    3195     768                                                        2562   -0.29    0.00  1.0000
   6   5   4   74112    3219                                                       75472    0.12    0.00  1.0000
  -6  -5  -4   78238    3368                                                       79635    0.12    0.00  1.0000
  -6  -5  -4   77752    3197                                                       79145    0.12    0.00  1.0000
   6   5   5   57325    2828                                                       57867    0.06    0.00  1.0000
  -6  -5  -5   56865    2919                                                       57405    0.06    0.00  1.0000
  -6  -5  -5   58082    2706                                                       58627    0.06    0.00  1.0000
  -6  -5  -6  833538   11202                                                      827842   -0.16    0.00  1.0000
  -6  -5  -6  816053   10910                                                      810417   -0.16    0.00  1.0000
  -6  -5  -6  801246    9795                                                      795661   -0.16    0.00  1.0000
  -6  -5  -7  152345    4487                                                      154577    0.14    0.00  1.0000
  -6  -5  -7  153459    4724                                                      155699    0.14    0.00  1.0000
  -6  -5  -8   22415    1780                                                       22023   -0.07    0.00  1.0000
  -6  -5  -9    4243     764                                                        4230    0.01    0.00  1.0000
  -6  -5 -10   62469    2157                                                       62424    0.00    0.00  1.0000
   6   6  -6   14791     890                                                       14764    0.01    0.00  1.0000
  -6  -6   5    6866     794                                                        7320   -0.13    0.00  1.0000
   6   6  -5    6848     900                                                        7300   -0.13    0.00  1.0000
  -6  -6   4   41465    1933                                                       38733    0.34    0.00  1.0000
   6   6  -4   39056    2090                                                       36406    0.34    0.00  1.0000
   6   6  -3   61140    2961                                                       66552   -0.53    0.00  1.0000
   6   6  -2   11049    1252                                                        8634    0.61    0.00  1.0000
   6   6  -2    9763    1216                                                        7503    0.61    0.00  1.0000
   6   6  -1    8324    1393                                                       10410   -0.54    0.00  1.0000
   6   6  -1    8314    1302                                                       10398   -0.54    0.00  1.0000
   6   6   0  406033    7912                                                      416648    0.41    0.00  1.0000
   6   6   0  387198    7631                                                      397565    0.41    0.00  1.0000
   6   6   1   76124    3366                                                       72428   -0.34    0.00  1.0000
   6   6   1   80212    3395                                                       76417   -0.34    0.00  1.0000
   6   6   2  261037    6121                                                      267939    0.33    0.00  1.0000
   6   6   2  259207    6330                                                      266085    0.33    0.00  1.0000
   6   6   3  157608    4734                                                      152332   -0.33    0.00  1.0000
  -6  -6  -3  158577    4731                                                      153285   -0.33    0.00  1.0000
   6   6   4    1462     707                                                        1911    0.27    0.00  1.0000
  -6  -6  -4    2710     854                                                        3310    0.27    0.00  1.0000
   6   6   5   67042    3104                                                       65339   -0.16    0.00  1.0000
  -6  -6  -5   67965    3127                                                       66251   -0.16    0.00  1.0000
  -6  -6  -5   72346    3176                                                       70577   -0.16    0.00  1.0000
   6   6   6   64426    3043                                                       63654    0.08    0.00  1.0000
  -6  -6  -6   66207    3098                                                       65425    0.08    0.00  1.0000
  -6  -6  -6   63899    2971                                                       63131    0.08    0.00  1.0000
  -6  -6  -7    1476     560                                                        1548   -0.05    0.00  1.0000
  -6  -6  -7    1866     644                                                        1947   -0.05    0.00  1.0000
  -6  -6  -7    3458     871                                                        3568   -0.05    0.00  1.0000
  -6  -6  -8   19657    1612                                                       19364    0.05    0.00  1.0000
  -6  -6  -8   22584    1726                                                       22271    0.05    0.00  1.0000
  -6  -6  -9   83832    2934                                                       84385   -0.05    0.00  1.0000
  -6  -6  -9   86043    3066                                                       86603   -0.05    0.00  1.0000
  -6  -6 -10     263     318                                                         251    0.02    0.00  1.0000
  -6  -7   4    1201     447                                                        1611    0.27    0.00  1.0000
   6   7  -4     306     426                                                         527    0.27    0.00  1.0000
   6   7  -3   26187    1640                                                       23349   -0.45    0.00  1.0000
   6   7  -2   36821    2342                                                       41292    0.56    0.00  1.0000
   6   7  -1  155979    4447                                                      147386   -0.55    0.00  1.0000
   6   7   0   38080    2457                                                       34774    0.43    0.00  1.0000
   6   7   0   37769    2300                                                       34477    0.43    0.00  1.0000
   6   7   1      38     727                                                        -536   -0.31    0.00  1.0000
   6   7   1     102     576                                                         264   -0.31    0.00  1.0000
   6   7   2    8932    1234                                                        8000    0.25    0.00  1.0000
   6   7   2   10211    1291                                                        9214    0.25    0.00  1.0000
   6   7   3   44906    2651                                                       47112   -0.26    0.00  1.0000
   6   7   3   46169    2769                                                       48405   -0.26    0.00  1.0000
   6   7   4   33028    2056                                                       31205    0.25    0.00  1.0000
   6   7   4   30014    2191                                                       28277    0.25    0.00  1.0000
   6   7   5  375710    7537                                                      380910   -0.21    0.00  1.0000
  -6  -7  -5  381846    7465                                                      387088   -0.21    0.00  1.0000
  -6  -7  -5  376332    7615                                                      381536   -0.21    0.00  1.0000
  -6  -7  -6    6942    1027                                                        6429    0.16    0.00  1.0000
   6   7   6    4969    1090                                                        4536    0.16    0.00  1.0000
  -6  -7  -6    7036    1086                                                        6520    0.16    0.00  1.0000
   6   7   7    8824    1223                                                        8344   -0.13    0.00  1.0000
  -6  -7  -7    9475    1195                                                        8977   -0.13    0.00  1.0000
   6   7   8   57571    2764                                                       58742    0.12    0.00  1.0000
  -6  -7  -8   59281    2657                                                       60469    0.12    0.00  1.0000
   6   7   9  154524    3901                                                      153045   -0.09    0.00  1.0000
  -6  -7  -9  161485    3791                                                      159973   -0.09    0.00  1.0000
  -6  -7  -9  156440    3860                                                      154952   -0.09    0.00  1.0000
   6   7  10   27860    1388                                                       28138    0.04    0.00  1.0000
  -6  -7 -10   27591    1305                                                       27867    0.04    0.00  1.0000
   6   8  -3     501     373                                                         812   -0.30    0.00  1.0000
   6   8  -2    5205     686                                                        4102    0.40    0.00  1.0000
   6   8  -1  182599    4534                                                      189880   -0.42    0.00  1.0000
   6   8   0   21023    1612                                                       18949    0.37    0.00  1.0000
   6   8   1   91214    3529                                                       94837   -0.30    0.00  1.0000
   6   8   2   64715    2964                                                       62076    0.26    0.00  1.0000
   6   8   3    1128     833                                                        1506   -0.26    0.00  1.0000
   6   8   3     521     751                                                         787   -0.26    0.00  1.0000
   6   8   4     577     639                                                         360    0.25    0.00  1.0000
   6   8   5  186710    5120                                                      183145   -0.21    0.00  1.0000
   6   8   6   51666    2775                                                       53018    0.15    0.00  1.0000
   6   8   7   50726    2633                                                       49683   -0.12    0.00  1.0000
   6   8   8   44897    2364                                                       45932    0.12    0.00  1.0000
   6   8   9    7723     958                                                        8164   -0.12    0.00  1.0000
   6   8  10   13564     961                                                       13147    0.09    0.00  1.0000
   6   9  -1   29576    1308                                                       27935   -0.24    0.00  1.0000
   6   9   0    1745     567                                                        2076    0.19    0.00  1.0000
   6   9   1    4481     768                                                        4077   -0.15    0.00  1.0000
   6   9   2    5922     956                                                        6507    0.18    0.00  1.0000
   6   9   3    3520     789                                                        2943   -0.25    0.00  1.0000
   6   9   4   97407    3535                                                      101062    0.29    0.00  1.0000
   6   9   5     989     600                                                        1337   -0.25    0.00  1.0000
   6   9   6    9556    1096                                                        8870    0.18    0.00  1.0000
   6   9   7   54619    2486                                                       55722   -0.12    0.00  1.0000
   6   9   8  135652    3570                                                      134131    0.10    0.00  1.0000
   6   9   9   43029    1845                                                       43991   -0.11    0.00  1.0000
   6   9  10   25794    1134                                                       25108    0.11    0.00  1.0000
   6  10   2    3942     549                                                        3959   -0.01    0.00  1.0000
   6  10   3   13361    1042                                                       13787   -0.09    0.00  1.0000
   6  10   4  146465    3387                                                      143538    0.19    0.00  1.0000
   6  10   5   30965    1671                                                       32534   -0.22    0.00  1.0000
   6  10   6   19274    1283                                                       18303    0.18    0.00  1.0000
   6  10   7    7162     834                                                        7571   -0.12    0.00  1.0000
   6  10   8   10757     886                                                       11128    0.09    0.00  1.0000
   6  10   9   12751     778                                                       12385   -0.08    0.00  1.0000
  -7   3   3   43883    1512                                                       43630   -0.03    0.00  1.0000
  -7   3   3   38488    1414                                                       38251   -0.03    0.00  1.0000
  -7   3   2   19953    1166                                                       19945    0.00    0.00  1.0000
  -7   3   2   17698     974                                                       17690    0.00    0.00  1.0000
  -7   3   1   65722    2145                                                       65956    0.02    0.00  1.0000
  -7   3   0   27647    1355                                                       27475   -0.03    0.00  1.0000
  -7   3  -1    2924     465                                                        2960    0.02    0.00  1.0000
  -7   2   6   26417    1447                                                       26211   -0.03    0.00  1.0000
  -7   2   5   77276    2519                                                       77250    0.00    0.00  1.0000
  -7   2   4   72956    2438                                                       73252    0.03    0.00  1.0000
  -7   2   3   15193    1198                                                       15167   -0.01    0.00  1.0000
  -7   2   2    1864     658                                                        1788   -0.04    0.00  1.0000
  -7   2   1   84986    3022                                                       84172    0.07    0.00  1.0000
  -7   2   0   72479    2799                                                       73116   -0.06    0.00  1.0000
  -7   2  -1    5940     857                                                        5753    0.06    0.00  1.0000
  -7   2  -2    7899     836                                                        7479   -0.12    0.00  1.0000
  -7   2  -3   32434    1219                                                       33960    0.21    0.00  1.0000
  -7   1   7     112     412                                                         121    0.02    0.00  1.0000
  -7   1   6       0     493                                                        -108   -0.03    0.00  1.0000
  -7   1   5   34552    1924                                                       34540    0.00    0.00  1.0000
  -7   1   4   58833    2536                                                       58600    0.02    0.00  1.0000
  -7   1   3   12913    1225                                                       12969   -0.01    0.00  1.0000
  -7   1   3   10907    1128                                                       10958   -0.01    0.00  1.0000
  -7   1   2   65693    2864                                                       65638    0.01    0.00  1.0000
  -7   1   2   63549    2384                                                       63495    0.01    0.00  1.0000
  -7   1   1     591     665                                                         668   -0.08    0.00  1.0000
  -7   1   0   22800    1843                                                       24065    0.21    0.00  1.0000
  -7   1  -1  110162    3658                                                      106739   -0.26    0.00  1.0000
  -7   1  -2  171566    4333                                                      173483    0.11    0.00  1.0000
  -7   1  -3   17270    1275                                                       18254    0.18    0.00  1.0000
  -7   1  -4   46314    1445                                                       42509   -0.45    0.00  1.0000
  -7   0   7   46796    1902                                                       47139   -0.04    0.00  1.0000
  -7   0   6  107209    3292                                                      106969    0.02    0.00  1.0000
  -7   0   5   30220    1954                                                       30397   -0.03    0.00  1.0000
  -7   0   4    8513    1186                                                        8679    0.04    0.00  1.0000
  -7   0   3   20225    1658                                                       20031   -0.03    0.00  1.0000
  -7   0   2  312838    5995                                                      313893    0.05    0.00  1.0000
  -7   0   1  152972    4188                                                      149682   -0.21    0.00  1.0000
  -7   0   1  151679    3849                                                      148403   -0.21    0.00  1.0000
  -7   0   0   23761    1947                                                       27195    0.54    0.00  1.0000
  -7   0  -1     264     541                                                        -164   -0.81    0.00  1.0000
  -7   0  -2   23039    1752                                                       18652    0.76    0.00  1.0000
  -7   0  -2   26906    1704                                                       22147    0.76    0.00  1.0000
  -7   0  -3   42705    2370                                                       39908   -0.34    0.00  1.0000
  -7   0  -3   41386    2084                                                       38633   -0.34    0.00  1.0000
  -7   0  -4    3552     704                                                        3989   -0.18    0.00  1.0000
  -7   0  -4   84058    2689                                                       86135   -0.18    0.00  1.0000
  -7   0  -5  103570    2367                                                       97436    0.48    0.00  1.0000
  -7   0  -6  111761    2004                                                      118091   -0.46    0.00  1.0000
  -7  -1   7    1902     552                                                        1655   -0.15    0.00  1.0000
  -7  -1   6   67919    2611                                                       69344    0.14    0.00  1.0000
  -7  -1   5  109983    3611                                                      108721   -0.10    0.00  1.0000
  -7  -1   4   15704    1565                                                       16091    0.08    0.00  1.0000
  -7  -1   3   50717    2699                                                       50187   -0.06    0.00  1.0000
  -7  -1   2   46751    2513                                                       46333    0.05    0.00  1.0000
  -7  -1   1   72699    3021                                                       74521   -0.17    0.00  1.0000
  -7  -1   1   70873    2983                                                       72672   -0.17    0.00  1.0000
  -7  -1   0   98968    3660                                                       92505    0.52    0.00  1.0000
  -7  -1   0   95676    3060                                                       89323    0.52    0.00  1.0000
  -7  -1  -1   82417    3823                                                       93994   -0.97    0.00  1.0000
  -7  -1  -2     338     700                                                        1763    1.17    0.00  1.0000
  -7  -1  -2  133514    3712                                                      151311    1.17    0.00  1.0000
  -7  -1  -3   63684    3364                                                       73245   -0.91    0.00  1.0000
  -7  -1  -3   84847    2883                                                       95831   -0.91    0.00  1.0000
  -7  -1  -4    9928    1191                                                        8630    0.34    0.00  1.0000
  -7  -1  -4   10033    1041                                                        8729    0.34    0.00  1.0000
  -7  -1  -4    9798    1052                                                        8509    0.34    0.00  1.0000
  -7  -1  -5     475     580                                                         346    0.16    0.00  1.0000
  -7  -1  -5    1658     469                                                        1407    0.16    0.00  1.0000
  -7  -1  -5     443     385                                                         319    0.16    0.00  1.0000
  -7  -1  -6   28349    1335                                                       26172   -0.33    0.00  1.0000
  -7  -1  -7   52163    1385                                                       54449    0.25    0.00  1.0000
  -7  -2   7   19600     997                                                       18338   -0.23    0.00  1.0000
  -7  -2   6     200     497                                                         383    0.27    0.00  1.0000
  -7  -2   5   38645    2205                                                       40230   -0.20    0.00  1.0000
  -7  -2   4   29774    2036                                                       29055    0.10    0.00  1.0000
  -7  -2   3  371832    7249                                                      373150   -0.05    0.00  1.0000
  -7  -2   2  108635    3868                                                      108159    0.04    0.00  1.0000
  -7  -2   1   14289    1408                                                       14612   -0.07    0.00  1.0000
  -7  -2   1   12462    1415                                                       12764   -0.07    0.00  1.0000
  -7  -2   0    7696    1148                                                        8558    0.24    0.00  1.0000
  -7  -2   0    7422    1133                                                        8269    0.24    0.00  1.0000
  -7  -2  -1  107886    3963                                                      100476   -0.57    0.00  1.0000
  -7  -2  -1  108161    3268                                                      100741   -0.57    0.00  1.0000
  -7  -2  -2   15354    1433                                                       11305    0.88    0.00  1.0000
  -7  -2  -3   91369    3597                                                       81020   -0.88    0.00  1.0000
  -7  -2  -3   99595    2763                                                       88776   -0.88    0.00  1.0000
  -7  -2  -4   68686    3362                                                       74373    0.53    0.00  1.0000
  -7  -2  -4   62662    2560                                                       68099    0.53    0.00  1.0000
  -7  -2  -5   54029    2686                                                       53214   -0.09    0.00  1.0000
  -7  -2  -5   54048    2165                                                       53233   -0.09    0.00  1.0000
  -7  -2  -5   48014    2222                                                       47245   -0.09    0.00  1.0000
  -7  -2  -5   50722    2185                                                       49932   -0.09    0.00  1.0000
  -7  -2  -6     616     502                                                         777   -0.15    0.00  1.0000
  -7  -2  -6     312     417                                                         428   -0.15    0.00  1.0000
  -7  -2  -6     841     429                                                        1026   -0.15    0.00  1.0000
  -7  -2  -7   21124    1133                                                       20300    0.14    0.00  1.0000
  -7  -2  -7   21333    1118                                                       20504    0.14    0.00  1.0000
   7   3  -6   61368    2085                                                       58554    0.29    0.00  1.0000
  -7  -3   6   61981    2017                                                       59153    0.29    0.00  1.0000
   7   3  -5    1538     600                                                        1966   -0.25    0.00  1.0000
  -7  -3   5    1345     585                                                        1747   -0.25    0.00  1.0000
  -7  -3   4    7065    1106                                                        6646    0.13    0.00  1.0000
   7   3  -4    6449     926                                                        6050    0.13    0.00  1.0000
   7   3  -3  145329    3997                                                      145030   -0.02    0.00  1.0000
  -7  -3   3  155993    4631                                                      155684   -0.02    0.00  1.0000
  -7  -3   2   92496    3645                                                       92455    0.00    0.00  1.0000
  -7  -3   1   56361    2691                                                       56182   -0.02    0.00  1.0000
  -7  -3   0   68405    3250                                                       68959    0.05    0.00  1.0000
  -7  -3  -1    7206    1176                                                        7659   -0.13    0.00  1.0000
  -7  -3  -2  165922    5323                                                      170217    0.26    0.00  1.0000
  -7  -3  -2  156791    4336                                                      160967    0.26    0.00  1.0000
  -7  -3  -3     711     648                                                         393   -0.34    0.00  1.0000
  -7  -3  -3     209     463                                                          58   -0.34    0.00  1.0000
  -7  -3  -4   22730    1827                                                       21199    0.26    0.00  1.0000
  -7  -3  -4   20326    1542                                                       18880    0.26    0.00  1.0000
  -7  -3  -5  140679    4544                                                      141491   -0.05    0.00  1.0000
  -7  -3  -5  134667    3987                                                      135461   -0.05    0.00  1.0000
  -7  -3  -6  145615    4183                                                      147099   -0.10    0.00  1.0000
  -7  -3  -6  135112    3605                                                      136542   -0.10    0.00  1.0000
  -7  -3  -6  142500    4064                                                      143968   -0.10    0.00  1.0000
  -7  -3  -7   68061    2401                                                       67118    0.09    0.00  1.0000
  -7  -3  -7   67391    2505                                                       66452    0.09    0.00  1.0000
  -7  -3  -8    7567     592                                                        7562    0.00    0.00  1.0000
  -7  -3  -8    8791     784                                                        8786    0.00    0.00  1.0000
   7   4  -6   42509    1699                                                       43439    0.11    0.00  1.0000
   7   4  -5   16264    1290                                                       15487   -0.15    0.00  1.0000
  -7  -4   5   14082    1067                                                       13360   -0.15    0.00  1.0000
   7   4  -4  143838    4038                                                      145365    0.10    0.00  1.0000
  -7  -4   4  142360    3950                                                      143879    0.10    0.00  1.0000
  -7  -4   3    6590    1105                                                        6561   -0.01    0.00  1.0000
   7   4  -3    5288     896                                                        5262   -0.01    0.00  1.0000
   7   4  -2     195     520                                                         210   -0.03    0.00  1.0000
  -7  -4   1    5739     983                                                        5769   -0.01    0.00  1.0000
   7   4  -1    5471     931                                                        5500   -0.01    0.00  1.0000
  -7  -4   0   75077    3404                                                       74612    0.04    0.00  1.0000
   7   4   0   74693    2952                                                       74229    0.04    0.00  1.0000
  -7  -4  -1   27464    2185                                                       27340   -0.02    0.00  1.0000
  -7  -4  -2  195025    5812                                                      195540   -0.03    0.00  1.0000
  -7  -4  -3   98684    4099                                                       98070    0.05    0.00  1.0000
  -7  -4  -3   96082    3611                                                       95477    0.05    0.00  1.0000
  -7  -4  -4   35571    2482                                                       35944   -0.05    0.00  1.0000
  -7  -4  -4   34803    2215                                                       35173   -0.05    0.00  1.0000
  -7  -4  -5   18501    1726                                                       18883    0.07    0.00  1.0000
  -7  -4  -5   18358    1612                                                       18738    0.07    0.00  1.0000
  -7  -4  -6  116645    3844                                                      115285   -0.10    0.00  1.0000
  -7  -4  -6  119661    3861                                                      118284   -0.10    0.00  1.0000
  -7  -4  -7   81667    2839                                                       82691    0.09    0.00  1.0000
  -7  -4  -7   79196    3001                                                       80204    0.09    0.00  1.0000
  -7  -4  -8   56730    2183                                                       56462   -0.03    0.00  1.0000
  -7  -4  -9   15912     920                                                       15735   -0.03    0.00  1.0000
   7   5  -6    1080     360                                                        1229   -0.11    0.00  1.0000
   7   5  -5     842     508                                                         771    0.06    0.00  1.0000
   7   5  -4  146867    3877                                                      147094   -0.01    0.00  1.0000
  -7  -5   4  151995    3509                                                      152226   -0.01    0.00  1.0000
   7   5  -3   82485    3184                                                       82599   -0.01    0.00  1.0000
  -7  -5   3   84052    3061                                                       84167   -0.01    0.00  1.0000
   7   5  -2   35208    2187                                                       34995    0.03    0.00  1.0000
   7   5  -1   17003    1600                                                       17341   -0.06    0.00  1.0000
   7   5  -1   15970    1505                                                       16297   -0.06    0.00  1.0000
   7   5   0   47129    2561                                                       47993    0.10    0.00  1.0000
   7   5   1   61698    2878                                                       62544   -0.08    0.00  1.0000
   7   5   2   78843    3198                                                       78987    0.01    0.00  1.0000
   7   5   3  122968    3845                                                      123859    0.06    0.00  1.0000
  -7  -5  -3  124224    4233                                                      125119    0.06    0.00  1.0000
  -7  -5  -4  227740    6136                                                      226062   -0.09    0.00  1.0000
   7   5   4  215716    4862                                                      214083   -0.09    0.00  1.0000
  -7  -5  -4  221138    5500                                                      219484   -0.09    0.00  1.0000
  -7  -5  -5  181196    5269                                                      182330    0.07    0.00  1.0000
  -7  -5  -5  182964    4992                                                      184104    0.07    0.00  1.0000
  -7  -5  -6   46688    2508                                                       46291   -0.05    0.00  1.0000
  -7  -5  -6   48716    2515                                                       48310   -0.05    0.00  1.0000
  -7  -5  -7   11531    1137                                                       11755    0.05    0.00  1.0000
  -7  -5  -7    8853    1121                                                        9049    0.05    0.00  1.0000
  -7  -5  -8   22776    1478                                                       23181   -0.07    0.00  1.0000
  -7  -5  -9   41967    1632                                                       41442    0.06    0.00  1.0000
   7   6  -5   33970    1331                                                       32590    0.19    0.00  1.0000
   7   6  -4       7     459                                                        -381   -0.13    0.00  1.0000
  -7  -6   3       0     523                                                        -694    0.03    0.00  1.0000
   7   6  -3      16     490                                                          11    0.03    0.00  1.0000
   7   6  -2     376     645                                                         437    0.08    0.00  1.0000
   7   6  -1   49073    2573                                                       47823   -0.14    0.00  1.0000
   7   6   0      10     713                                                        -237    0.16    0.00  1.0000
   7   6   1  327555    6822                                                      324703   -0.12    0.00  1.0000
   7   6   1  334979    6727                                                      332095   -0.12    0.00  1.0000
   7   6   2   95626    3666                                                       96334    0.06    0.00  1.0000
   7   6   2   92230    3597                                                       92925    0.06    0.00  1.0000
   7   6   3   12338    1408                                                       12404    0.01    0.00  1.0000
   7   6   4   44821    2463                                                       45258   -0.05    0.00  1.0000
  -7  -6  -4   46603    2633                                                       47049   -0.05    0.00  1.0000
  -7  -6  -5  201965    5652                                                      201273    0.04    0.00  1.0000
   7   6   5  195928    4833                                                      195246    0.04    0.00  1.0000
  -7  -6  -5  203534    5281                                                      202839    0.04    0.00  1.0000
  -7  -6  -6   74578    3193                                                       74637   -0.01    0.00  1.0000
   7   6   6   71154    2845                                                       71212   -0.01    0.00  1.0000
  -7  -6  -6   74219    3100                                                       74278   -0.01    0.00  1.0000
  -7  -6  -7   32850    1864                                                       32851    0.00    0.00  1.0000
   7   6   7   34463    1801                                                       34464    0.00    0.00  1.0000
  -7  -6  -7   30833    1948                                                       30834    0.00    0.00  1.0000
  -7  -6  -8      71     387                                                          59   -0.04    0.00  1.0000
  -7  -6  -9    3499     563                                                        3717    0.09    0.00  1.0000
   7   7  -4    8761     668                                                        8305   -0.12    0.00  1.0000
   7   7  -3       1     411                                                        -467    0.06    0.00  1.0000
  -7  -7   2       0     414                                                        -224    0.03    0.00  1.0000
   7   7  -2     202     513                                                         222    0.03    0.00  1.0000
   7   7  -1   21850    1684                                                       22445   -0.10    0.00  1.0000
   7   7   0   48099    2556                                                       49077    0.11    0.00  1.0000
   7   7   1   87752    3444                                                       88562   -0.07    0.00  1.0000
   7   7   2  112878    3902                                                      112914    0.00    0.00  1.0000
   7   7   3  110856    3860                                                      109898    0.07    0.00  1.0000
   7   7   4   44335    2465                                                       45319   -0.12    0.00  1.0000
   7   7   5    7714    1105                                                        8138    0.12    0.00  1.0000
  -7  -7  -6   10373    1244                                                       10040   -0.08    0.00  1.0000
   7   7   6   11462    1210                                                       11111   -0.08    0.00  1.0000
  -7  -7  -7   95518    3098                                                       95911    0.03    0.00  1.0000
   7   7   7   95905    3200                                                       96300    0.03    0.00  1.0000
  -7  -7  -7  100247    3307                                                      100650    0.03    0.00  1.0000
   7   7   8   82425    2482                                                       82355   -0.01    0.00  1.0000
  -7  -7  -8   85594    2704                                                       85523   -0.01    0.00  1.0000
  -7  -7  -9   48103    1707                                                       48299    0.02    0.00  1.0000
   7   8  -2   26992    1345                                                       27103   -0.02    0.00  1.0000
   7   8  -1    2363     595                                                        2428    0.03    0.00  1.0000
   7   8   0   88376    3006                                                       89194   -0.07    0.00  1.0000
   7   8   1     103     527                                                         151    0.11    0.00  1.0000
   7   8   2    7905    1127                                                        7429   -0.14    0.00  1.0000
   7   8   3   60923    2809                                                       62468    0.15    0.00  1.0000
   7   8   4  190081    4724                                                      187088   -0.17    0.00  1.0000
   7   8   5   69556    2878                                                       71498    0.18    0.00  1.0000
   7   8   6   55784    2430                                                       54214   -0.17    0.00  1.0000
  -7  -8  -7    1226     437                                                        1076    0.11    0.00  1.0000
   7   8   7    1948     597                                                        1757    0.11    0.00  1.0000
   7   8   8   22813    1339                                                       22998   -0.03    0.00  1.0000
   7   8   9   63220    1672                                                       63497   -0.03    0.00  1.0000
   7   9   0  157101    3050                                                      154225   -0.18    0.00  1.0000
   7   9   1  137234    3280                                                      141068    0.26    0.00  1.0000
   7   9   2   61924    2324                                                       59252   -0.27    0.00  1.0000
   7   9   3    2071     626                                                        2506    0.23    0.00  1.0000
   7   9   4   41130    2052                                                       42507   -0.17    0.00  1.0000
   7   9   5    9692    1042                                                        9177    0.13    0.00  1.0000
   7   9   6   38323    1903                                                       39284   -0.12    0.00  1.0000
  -7  -9  -7   14091     995                                                       13608    0.10    0.00  1.0000
   7   9   7   19050    1234                                                       18487    0.10    0.00  1.0000
   7   9   8   12209     881                                                       12430   -0.05    0.00  1.0000
   7  10   3   38600    1412                                                       36759    0.24    0.00  1.0000
   7  10   4    6053     694                                                        6578   -0.16    0.00  1.0000
   7  10   5    4207     594                                                        3987    0.09    0.00  1.0000
   7  10   6   34068    1385                                                       33764   -0.04    0.00  1.0000
   7  10   7   64120    1733                                                       64413    0.03    0.00  1.0000
  -8   1   2     300     340                                                         392    0.12    0.00  1.0000
  -8   1   1   43779    1710                                                       42261   -0.18    0.00  1.0000
  -8   1   0    5687     699                                                        6215    0.17    0.00  1.0000
  -8   1  -1   17505    1006                                                       17323   -0.03    0.00  1.0000
  -8   0   5   16250    1009                                                       16215   -0.01    0.00  1.0000
  -8   0   4   33004    1488                                                       32939   -0.01    0.00  1.0000
  -8   0   3   27271    1293                                                       27239    0.00    0.00  1.0000
  -8   0   3   28274    1396                                                       28241    0.00    0.00  1.0000
  -8   0   2   77454    2505                                                       78189    0.07    0.00  1.0000
  -8   0   1      10     507                                                        -271   -0.15    0.00  1.0000
  -8   0   0    1181     563                                                        1481    0.20    0.00  1.0000
  -8   0  -1    4222     770                                                        4606   -0.14    0.00  1.0000
  -8   0  -2   63382    2154                                                       63656   -0.03    0.00  1.0000
  -8   0  -3   38370    1325                                                       36830    0.20    0.00  1.0000
  -8  -1   5   20701    1257                                                       21238    0.09    0.00  1.0000
  -8  -1   4    4345     711                                                        3987   -0.14    0.00  1.0000
  -8  -1   3     355     470                                                         281    0.10    0.00  1.0000
  -8  -1   2  120328    3177                                                      120346    0.00    0.00  1.0000
  -8  -1   1   20985    1281                                                       21577   -0.10    0.00  1.0000
  -8  -1   0   30929    1661                                                       29820    0.16    0.00  1.0000
  -8  -1  -1   30434    1816                                                       31581   -0.16    0.00  1.0000
  -8  -1  -2     689     499                                                         814    0.11    0.00  1.0000
  -8  -1  -2     799     499                                                         933    0.11    0.00  1.0000
  -8  -1  -3     968     454                                                         937   -0.02    0.00  1.0000
  -8  -1  -3    1800     535                                                        1757   -0.02    0.00  1.0000
  -8  -1  -4   36491    1309                                                       36089   -0.05    0.00  1.0000
  -8  -2   5   11624     921                                                       11068    0.13    0.00  1.0000
  -8  -2   4     607     515                                                         841   -0.22    0.00  1.0000
  -8  -2   3    8329     984                                                        7627    0.20    0.00  1.0000
  -8  -2   2   22326    1553                                                       22053   -0.05    0.00  1.0000
  -8  -2   1    1412     605                                                        1244   -0.12    0.00  1.0000
  -8  -2   0   41230    2092                                                       42613    0.17    0.00  1.0000
  -8  -2   0   39832    1888                                                       41191    0.17    0.00  1.0000
  -8  -2  -1  202715    4792                                                      200419   -0.13    0.00  1.0000
  -8  -2  -2   97282    3405                                                       98396    0.09    0.00  1.0000
  -8  -2  -3   67794    2752                                                       66846   -0.09    0.00  1.0000
  -8  -2  -4    4137     678                                                        3909    0.09    0.00  1.0000
  -8  -2  -4    3461     565                                                        3253    0.09    0.00  1.0000
  -8  -2  -5    6750     789                                                        6931   -0.05    0.00  1.0000
  -8  -3   5   13585     943                                                       13903    0.07    0.00  1.0000
  -8  -3   4   81290    2578                                                       79431   -0.16    0.00  1.0000
  -8  -3   3  324195    5700                                                      328841    0.20    0.00  1.0000
  -8  -3   2   76186    2894                                                       75160   -0.09    0.00  1.0000
  -8  -3   1   44809    2227                                                       43897   -0.11    0.00  1.0000
  -8  -3   0   18493    1504                                                       19765    0.23    0.00  1.0000
  -8  -3   0   18522    1495                                                       19795    0.23    0.00  1.0000
  -8  -3  -1    6891    1057                                                        7515   -0.18    0.00  1.0000
  -8  -3  -1    7201     918                                                        7838   -0.18    0.00  1.0000
  -8  -3  -2     874     562                                                         801    0.06    0.00  1.0000
  -8  -3  -3   66358    2908                                                       66419   -0.01    0.00  1.0000
  -8  -3  -4   18468    1483                                                       18328    0.03    0.00  1.0000
  -8  -3  -5   28246    1648                                                       28477   -0.03    0.00  1.0000
  -8  -3  -6   19782    1161                                                       19809    0.00    0.00  1.0000
  -8  -4   4   16887    1126                                                       16851   -0.01    0.00  1.0000
  -8  -4   3    4180     744                                                        3999    0.07    0.00  1.0000
  -8  -4   2     144     624                                                         112   -0.07    0.00  1.0000
  -8  -4   1   33142    1997                                                       33444   -0.04    0.00  1.0000
  -8  -4   0  131077    3716                                                      128421    0.18    0.00  1.0000
  -8  -4   0  133686    3825                                                      131004    0.18    0.00  1.0000
  -8  -4  -1   17261    1601                                                       18440   -0.22    0.00  1.0000
  -8  -4  -1   15855    1395                                                       16986   -0.22    0.00  1.0000
  -8  -4  -2    7996    1083                                                        7572    0.12    0.00  1.0000
  -8  -4  -2    8757     950                                                        8313    0.12    0.00  1.0000
  -8  -4  -3   35515    2171                                                       35587    0.01    0.00  1.0000
  -8  -4  -4   12715    1312                                                       12416   -0.07    0.00  1.0000
  -8  -4  -5   28423    1791                                                       28879    0.07    0.00  1.0000
  -8  -4  -5   26642    1524                                                       27084    0.07    0.00  1.0000
  -8  -4  -6  117319    3027                                                      116243   -0.08    0.00  1.0000
  -8  -4  -6  114056    2872                                                      112995   -0.08    0.00  1.0000
  -8  -5   4   58167    1609                                                       57063    0.11    0.00  1.0000
  -8  -5   3    4152     701                                                        4417   -0.10    0.00  1.0000
   8   5  -3    2002     469                                                        2187   -0.10    0.00  1.0000
  -8  -5   2    3702     714                                                        3563    0.06    0.00  1.0000
   8   5  -2    3610     622                                                        3473    0.06    0.00  1.0000
  -8  -5   1     641     550                                                         684   -0.04    0.00  1.0000
   8   5  -1     666     499                                                         709   -0.04    0.00  1.0000
  -8  -5   0   29099    1788                                                       29641    0.08    0.00  1.0000
   8   5   0   27481    1561                                                       28008    0.08    0.00  1.0000
  -8  -5  -1   25858    1843                                                       25080   -0.12    0.00  1.0000
  -8  -5  -2  142129    4445                                                      143652    0.10    0.00  1.0000
  -8  -5  -3   32849    2155                                                       32721   -0.02    0.00  1.0000
  -8  -5  -4    5647     964                                                        5474   -0.06    0.00  1.0000
  -8  -5  -5     858     480                                                         764    0.08    0.00  1.0000
  -8  -5  -6  100714    2976                                                      101701   -0.08    0.00  1.0000
  -8  -5  -6   94616    2876                                                       95573   -0.08    0.00  1.0000
  -8  -5  -7   22343    1098                                                       21899    0.07    0.00  1.0000
  -8  -5  -7   22906    1217                                                       22457    0.07    0.00  1.0000
   8   6  -3    9216     733                                                        8605   -0.16    0.00  1.0000
  -8  -6   3   10388     716                                                        9738   -0.16    0.00  1.0000
   8   6  -2   20450    1270                                                       21334    0.15    0.00  1.0000
  -8  -6   2   18989    1241                                                       19841    0.15    0.00  1.0000
   8   6  -1   30581    1626                                                       29814   -0.11    0.00  1.0000
  -8  -6   1   31041    1710                                                       30268   -0.11    0.00  1.0000
  -8  -6   0     821     458                                                         751    0.06    0.00  1.0000
   8   6   0     568     505                                                         510    0.06    0.00  1.0000
  -8  -6  -1    1291     608                                                        1332   -0.03    0.00  1.0000
   8   6   1    1377     508                                                        1419   -0.03    0.00  1.0000
  -8  -6  -2   42812    2446                                                       42820    0.00    0.00  1.0000
   8   6   2   39815    1905                                                       39823    0.00    0.00  1.0000
  -8  -6  -3   25743    1959                                                       25530    0.03    0.00  1.0000
   8   6   3   25589    1492                                                       25378    0.03    0.00  1.0000
  -8  -6  -4   88088    3388                                                       88757   -0.06    0.00  1.0000
  -8  -6  -5  289382    5668                                                      288342    0.05    0.00  1.0000
  -8  -6  -6   49588    2114                                                       49695   -0.01    0.00  1.0000
  -8  -6  -7    9327     767                                                        9423   -0.02    0.00  1.0000
   8   7  -2    1487     374                                                        1300    0.12    0.00  1.0000
   8   7  -1   31523    1545                                                       32328   -0.11    0.00  1.0000
  -8  -7   1   32579    1497                                                       33398   -0.11    0.00  1.0000
  -8  -7   0   34376    1544                                                       33793    0.08    0.00  1.0000
   8   7   0   43073    1877                                                       42421    0.08    0.00  1.0000
  -8  -7  -1   89924    3046                                                       90240   -0.03    0.00  1.0000
   8   7   1   96527    2920                                                       96855   -0.03    0.00  1.0000
  -8  -7  -2   30494    2041                                                       30724   -0.03    0.00  1.0000
   8   7   2   28724    1634                                                       28948   -0.03    0.00  1.0000
  -8  -7  -3    3384     800                                                        3207    0.08    0.00  1.0000
   8   7   3    4014     719                                                        3821    0.08    0.00  1.0000
  -8  -7  -4    3003     797                                                        2818   -0.08    0.00  1.0000
   8   7   4    2046     556                                                        1895   -0.08    0.00  1.0000
  -8  -7  -5   86204    3028                                                       86831    0.05    0.00  1.0000
   8   7   5   83800    2487                                                       84418    0.05    0.00  1.0000
  -8  -7  -6    3003     576                                                        3012    0.00    0.00  1.0000
  -8  -7  -7    6423     630                                                        6230   -0.06    0.00  1.0000
   8   8   0    7016     735                                                        7157    0.04    0.00  1.0000
  -8  -8   0    7711     682                                                        7858    0.04    0.00  1.0000
  -8  -8  -1   19905    1191                                                       19788   -0.02    0.00  1.0000
   8   8   1   27884    1437                                                       27745   -0.02    0.00  1.0000
  -8  -8  -2   20269    1462                                                       20194   -0.01    0.00  1.0000
   8   8   2   23007    1335                                                       22927   -0.01    0.00  1.0000
  -8  -8  -3   40541    2112                                                       40922    0.05    0.00  1.0000
   8   8   3   38978    1749                                                       39351    0.05    0.00  1.0000
  -8  -8  -4   79165    2823                                                       78510   -0.06    0.00  1.0000
   8   8   4   82275    2454                                                       81607   -0.06    0.00  1.0000
  -8  -8  -5     776     392                                                         733    0.04    0.00  1.0000
   8   8   5     773     423                                                         730    0.04    0.00  1.0000
  -8  -8  -6    6762     751                                                        6779   -0.01    0.00  1.0000
   8   8   6    6753     678                                                        6771   -0.01    0.00  1.0000
   8   9   2    1669     379                                                        1635   -0.02    0.00  1.0000
  -8  -9  -3    9643     842                                                        9532    0.03    0.00  1.0000
   8   9   3   11021     803                                                       10902    0.03    0.00  1.0000
  -8  -9  -4   88780    2478                                                       88955   -0.01    0.00  1.0000
   8   9   4  100981    2311                                                      101168   -0.01    0.00  1.0000
  -8  -9  -5   15113     986                                                       15181   -0.01    0.00  1.0000
   8   9   5   16690     931                                                       16761   -0.01    0.00  1.0000
  -9  -2   1    7678     642                                                        7608   -0.02    0.00  1.0000
  -9  -2   0  124467    2641                                                      124884    0.03    0.00  1.0000
  -9  -2  -1   49930    1681                                                       50002    0.01    0.00  1.0000
  -9  -2  -2    2217     407                                                        2165   -0.03    0.00  1.0000
  -9  -3   2   14116     820                                                       13796   -0.07    0.00  1.0000
  -9  -3   1   16819     898                                                       16838    0.00    0.00  1.0000
  -9  -3  -1   91842    2148                                                       92926   -0.09    0.00  1.0000
  -9  -3  -2   61065    1879                                                       60975    0.01    0.00  1.0000
  -9  -3  -3   40184    1475                                                       39658    0.07    0.00  1.0000
  -9  -3  -3   40209    1327                                                       39682    0.07    0.00  1.0000
  -9  -4   2   23767    1101                                                       24256   -0.08    0.00  1.0000
  -9  -4   1  114313    2499                                                      113266    0.08    0.00  1.0000
  -9  -4   0   18271    1021                                                       18303   -0.01    0.00  1.0000
  -9  -4  -1    2200     405                                                        2093   -0.06    0.00  1.0000
  -9  -4  -2   23558    1275                                                       23746    0.03    0.00  1.0000
  -9  -4  -3   82945    2338                                                       83706    0.07    0.00  1.0000
  -9  -4  -4   44754    1561                                                       43707   -0.12    0.00  1.0000
  -9  -5   1   62270    1827                                                       62836    0.06    0.00  1.0000
  -9  -5   0   64210    1925                                                       63489   -0.07    0.00  1.0000
  -9  -5  -1   24053    1161                                                       24432    0.06    0.00  1.0000
  -9  -5  -1   28572    1268                                                       28985    0.06    0.00  1.0000
  -9  -5  -2    4911     637                                                        4737   -0.06    0.00  1.0000
  -9  -5  -3   21041    1228                                                       20481    0.10    0.00  1.0000
  -9  -5  -4  101276    2515                                                      102806   -0.12    0.00  1.0000
  -9  -6   0   47997    1557                                                       48056   -0.01    0.00  1.0000
  -9  -6  -1   85114    2137                                                       84338    0.07    0.00  1.0000
  -9  -6  -2   85775    2331                                                       87291   -0.13    0.00  1.0000
  -9  -6  -2   89913    2139                                                       91465   -0.13    0.00  1.0000
  -9  -6  -3   28435    1385                                                       27314    0.17    0.00  1.0000
  -9  -6  -4    4310     551                                                        3907   -0.16    0.00  1.0000
  -9  -7  -3   45291    1607                                                       46535    0.14    0.00  1.0000
  -9  -7  -4    1334     298                                                        1085   -0.18    0.00  1.0000
   0   0   0      13       0                                                           0   -0.18    0.00  1.0000

;
_shelx_hkl_checksum              33782
loop_
_space_group_symop_operation_xyz
'x, y, z'
'-x, -y, -z'
loop_
_atom_site_label
_atom_site_type_symbol
_atom_site_fract_x
_atom_site_fract_y
_atom_site_fract_z
_atom_site_U_iso_or_equiv
_atom_site_adp_type
_atom_site_occupancy
_atom_site_site_symmetry_order
_atom_site_calc_flag
_atom_site_refinement_flags_posn
_atom_site_refinement_flags_adp
Cu1 Cu 0.15748(4) 0.31934(4) 0.08074(3) 0.02553(12) Uani 1 1 d . .
F2 F -0.77431(17) 0.46277(18) 0.38450(13) 0.0326(3) Uani 1 1 d . .
F1 F -0.14128(17) 0.44462(18) 0.41404(13) 0.0332(3) Uani 1 1 d . .
C8 C 0.1024(3) 0.1585(3) -0.2223(2) 0.0345(5) Uani 1 1 d . .
H8 H 0.0457 0.2159 -0.3142 0.041 Uiso 1 1 calc R U
N3 N 0.1824(2) 0.1749(2) -0.01897(18) 0.0251(4) Uani 1 1 d . .
N1 N -0.0961(3) 0.3841(2) 0.14940(18) 0.0277(4) Uani 1 1 d . .
C6 C -0.6328(3) 0.4798(3) 0.4399(2) 0.0229(4) Uani 1 1 d . .
N2 N -0.6479(3) 0.3576(2) 0.15004(18) 0.0289(4) Uani 1 1 d . .
C1 C -0.2364(3) 0.3961(3) 0.2048(2) 0.0233(4) Uani 1 1 d . .
C3 C -0.4106(3) 0.4101(3) 0.2661(2) 0.0227(4) Uani 1 1 d . .
C7 C 0.1020(3) 0.2502(3) -0.1488(2) 0.0282(4) Uani 1 1 d . .
H7 H 0.0423 0.3718 -0.1920 0.034 Uiso 1 1 calc R U
C2 C -0.5425(3) 0.3818(3) 0.2034(2) 0.0239(4) Uani 1 1 d . .
C9 C 0.1872(4) -0.0187(3) -0.1587(3) 0.0389(5) Uani 1 1 d . .
H9 H 0.1888 -0.0852 -0.2061 0.047 Uiso 1 1 calc R U
C4 C -0.4541(3) 0.4512(2) 0.38481(19) 0.0212(4) Uani 1 1 d . .
C5 C -0.3222(3) 0.4720(3) 0.4535(2) 0.0228(4) Uani 1 1 d . .
C10 C 0.2693(3) -0.0973(3) -0.0257(3) 0.0370(5) Uani 1 1 d . .
H10 H 0.3281 -0.2188 0.0193 0.044 Uiso 1 1 calc R U
C11 C 0.2659(3) 0.0021(3) 0.0427(2) 0.0295(4) Uani 1 1 d . .
C12 C 0.3523(4) -0.0772(3) 0.1873(3) 0.0399(5) Uani 1 1 d . .
H12A H 0.4275 -0.0148 0.1949 0.060 Uiso 1 1 calc R U
H12B H 0.4373 -0.1974 0.2121 0.060 Uiso 1 1 calc R U
H12C H 0.2488 -0.0716 0.2494 0.060 Uiso 1 1 calc R U
loop_
_atom_site_aniso_label
_atom_site_aniso_U_11
_atom_site_aniso_U_22
_atom_site_aniso_U_33
_atom_site_aniso_U_23
_atom_site_aniso_U_13
_atom_site_aniso_U_12
Cu1 0.02296(18) 0.03443(19) 0.02834(18) -0.01995(14) 0.00300(12) -0.01275(13)
F2 0.0223(6) 0.0585(8) 0.0365(7) -0.0333(6) 0.0058(5) -0.0206(6)
F1 0.0206(6) 0.0600(8) 0.0359(7) -0.0330(6) 0.0094(5) -0.0196(6)
C8 0.0377(12) 0.0396(12) 0.0372(12) -0.0248(10) 0.0012(9) -0.0156(10)
N3 0.0219(8) 0.0285(9) 0.0310(9) -0.0173(7) 0.0034(7) -0.0106(7)
N1 0.0251(9) 0.0404(10) 0.0328(9) -0.0267(8) 0.0078(7) -0.0163(7)
C6 0.0213(9) 0.0288(10) 0.0249(9) -0.0144(8) -0.0009(7) -0.0117(8)
N2 0.0233(9) 0.0428(10) 0.0315(9) -0.0252(8) 0.0048(7) -0.0132(8)
C1 0.0271(11) 0.0252(10) 0.0250(9) -0.0157(8) -0.0007(8) -0.0112(8)
C3 0.0212(9) 0.0274(10) 0.0247(9) -0.0152(8) 0.0013(7) -0.0096(8)
C7 0.0289(11) 0.0286(10) 0.0332(11) -0.0183(9) 0.0015(8) -0.0109(8)
C2 0.0224(10) 0.0286(10) 0.0240(10) -0.0154(8) 0.0036(8) -0.0084(8)
C9 0.0405(13) 0.0389(13) 0.0532(15) -0.0329(11) 0.0070(11) -0.0168(10)
C4 0.0222(10) 0.0226(9) 0.0217(9) -0.0112(7) -0.0001(7) -0.0090(7)
C5 0.0184(9) 0.0292(10) 0.0245(9) -0.0141(8) 0.0029(7) -0.0099(8)
C10 0.0358(12) 0.0281(11) 0.0514(14) -0.0214(10) 0.0091(10) -0.0122(9)
C11 0.0256(11) 0.0302(11) 0.0357(11) -0.0155(9) 0.0064(8) -0.0127(8)
C12 0.0378(13) 0.0354(12) 0.0386(13) -0.0092(10) -0.0006(10) -0.0124(10)
loop_
_atom_type_symbol
_atom_type_description
_atom_type_scat_dispersion_real
_atom_type_scat_dispersion_imag
_atom_type_scat_source
C C 0.0181 0.0091 'International Tables Vol C Tables 4.2.6.8 and 6.1.1.4'
N N 0.0311 0.0180 'International Tables Vol C Tables 4.2.6.8 and 6.1.1.4'
F F 0.0727 0.0534 'International Tables Vol C Tables 4.2.6.8 and 6.1.1.4'
Cu Cu -1.9646 0.5888 'International Tables Vol C Tables 4.2.6.8 and 6.1.1.4'
H H 0.0000 0.0000 'International Tables Vol C Tables 4.2.6.8 and 6.1.1.4'
loop_
_geom_angle_atom_site_label_1
_geom_angle_atom_site_label_2
_geom_angle_atom_site_label_3
_geom_angle
_geom_angle_site_symmetry_1
_geom_angle_site_symmetry_3
N2 Cu1 N1 116.74(7) 1_655 .
N2 Cu1 N3 129.90(7) 1_655 .
N1 Cu1 N3 111.76(7) . .
C7 C8 C9 118.4(2) . .
C7 N3 C11 118.52(18) . .
C7 N3 Cu1 119.35(14) . .
C11 N3 Cu1 121.96(15) . .
C1 N1 Cu1 169.29(18) . .
F2 C6 C5 116.80(17) . 2_466
F2 C6 C4 118.94(17) . .
C5 C6 C4 124.25(18) 2_466 .
C2 N2 Cu1 172.64(17) . 1_455
N1 C1 C3 176.9(2) . .
C2 C3 C1 114.25(17) . .
C2 C3 C4 122.35(18) . .
C1 C3 C4 123.40(17) . .
N3 C7 C8 123.0(2) . .
N2 C2 C3 178.6(2) . .
C10 C9 C8 119.2(2) . .
C6 C4 C5 112.35(18) . .
C6 C4 C3 124.01(17) . .
C5 C4 C3 123.61(18) . .
F1 C5 C6 117.33(17) . 2_466
F1 C5 C4 119.29(17) . .
C6 C5 C4 123.38(18) 2_466 .
C9 C10 C11 119.8(2) . .
N3 C11 C10 121.1(2) . .
N3 C11 C12 117.11(19) . .
C10 C11 C12 121.8(2) . .
loop_
_geom_bond_atom_site_label_1
_geom_bond_atom_site_label_2
_geom_bond_distance
_geom_bond_site_symmetry_2
Cu1 N2 1.9055(17) 1_655
Cu1 N1 1.9449(18) .
Cu1 N3 1.9936(17) .
F2 C6 1.353(2) .
F1 C5 1.347(2) .
C8 C7 1.384(3) .
C8 C9 1.384(4) .
N3 C7 1.347(3) .
N3 C11 1.349(3) .
N1 C1 1.154(3) .
C6 C5 1.372(3) 2_466
C6 C4 1.393(3) .
N2 C2 1.154(3) .
N2 Cu1 1.9055(17) 1_455
C1 C3 1.398(3) .
C3 C2 1.404(3) .
C3 C4 1.459(3) .
C9 C10 1.377(4) .
C4 C5 1.400(3) .
C5 C6 1.372(3) 2_466
C10 C11 1.396(3) .
C11 C12 1.495(3) .
loop_
_geom_torsion_atom_site_label_1
_geom_torsion_atom_site_label_2
_geom_torsion_atom_site_label_3
_geom_torsion_atom_site_label_4
_geom_torsion
C1 C3 C4 C5 -3.4(3)
C2 C3 C4 C6 -5.4(3)
loop_
_platon_squeeze_void_nr
_platon_squeeze_void_average_x
_platon_squeeze_void_average_y
_platon_squeeze_void_average_z
_platon_squeeze_void_volume
_platon_squeeze_void_count_electrons
_platon_squeeze_void_content
1 -0.048 0.000 0.500 107 25 ' '
