#------------------------------------------------------------------------------
#$Date: 2019-12-02 13:46:09 +0200 (Mon, 02 Dec 2019) $
#$Revision: 244843 $
#$URL: file:///home/coder/svn-repositories/cod/cif/4/51/38/4513836.cif $
#------------------------------------------------------------------------------
#
# This file is available in the Crystallography Open Database (COD),
# http://www.crystallography.net/
#
# All data on this site have been placed in the public domain by the
# contributors.
#
data_4513836
loop_
_publ_author_name
'Sobczak, Szymon'
'Katrusiak, Andrzej'
_publ_section_title
;
 Singularities in Molecular Conformation
;
_journal_coden_ASTM              CGDEFU
_journal_issue                   11
_journal_name_full               'Crystal Growth & Design'
_journal_page_first              5530
_journal_page_last               5534
_journal_paper_doi               10.1021/acs.cgd.5b01156
_journal_volume                  15
_journal_year                    2015
_chemical_formula_moiety         'C6 H12 O'
_chemical_formula_sum            'C6 H12 O'
_chemical_formula_weight         100.16
_chemical_melting_point          220.65
_chemical_name_common            pinacolone
_chemical_name_systematic        3,3-Dimethyl-2-butanone
_space_group_crystal_system      monoclinic
_space_group_IT_number           11
_space_group_name_Hall           '-P 2yb'
_space_group_name_H-M_alt        'P 1 21/m 1'
_symmetry_space_group_name_Hall  '-P 2yb'
_symmetry_space_group_name_H-M   'P 1 21/m 1'
_atom_sites_solution_hydrogens   difmap
_atom_sites_solution_primary     direct
_atom_sites_solution_secondary   difmap
_audit_block_doi                 10.5517/cc13lkfp
_audit_update_record
;
2015-10-05 deposited with the CCDC.
2016-03-01 downloaded from the CCDC.
;
_cell_angle_alpha                90
_cell_angle_beta                 108.25(2)
_cell_angle_gamma                90
_cell_formula_units_Z            2
_cell_length_a                   5.7643(11)
_cell_length_b                   8.7576(19)
_cell_length_c                   7.0178(14)
_cell_measurement_reflns_used    1931
_cell_measurement_temperature    200
_cell_measurement_theta_max      28.3300
_cell_measurement_theta_min      3.7730
_cell_volume                     336.45(12)
_computing_cell_refinement
;
CrysAlisPro, Agilent Technologies,
Version 1.171.37.31 (release 14-01-2014 CrysAlis171 .NET)
(compiled Jan 14 2014,18:38:05)
;
_computing_data_collection
;
CrysAlisPro, Agilent Technologies,
Version 1.171.37.31 (release 14-01-2014 CrysAlis171 .NET)
(compiled Jan 14 2014,18:38:05)
;
_computing_data_reduction
;
CrysAlisPro, Agilent Technologies,
Version 1.171.37.31 (release 14-01-2014 CrysAlis171 .NET)
(compiled Jan 14 2014,18:38:05)
;
_computing_molecular_graphics    'Olex2 (Dolomanov et al., 2009)'
_computing_publication_material  'Olex2 (Dolomanov et al., 2009)'
_computing_structure_refinement  'ShelXL (Sheldrick, 2008)'
_computing_structure_solution    'ShelXS (Sheldrick, 2008)'
_diffrn_ambient_temperature      200
_diffrn_detector                 'CCD plate'
_diffrn_detector_area_resol_mean 16.1544
_diffrn_detector_type            Eos
_diffrn_measured_fraction_theta_full 0.989
_diffrn_measured_fraction_theta_max 0.920
_diffrn_measurement_device       'four-circle diffractometer'
_diffrn_measurement_device_type  'Xcalibur, Eos'
_diffrn_measurement_method       '\w scans'
_diffrn_orient_matrix_UB_11      -0.0875463000
_diffrn_orient_matrix_UB_12      0.0363073000
_diffrn_orient_matrix_UB_13      -0.0815724000
_diffrn_orient_matrix_UB_21      0.0916108000
_diffrn_orient_matrix_UB_22      0.0501448000
_diffrn_orient_matrix_UB_23      -0.0112917000
_diffrn_orient_matrix_UB_31      0.0267850000
_diffrn_orient_matrix_UB_32      -0.0522357000
_diffrn_orient_matrix_UB_33      -0.0674010000
_diffrn_radiation_monochromator  graphite
_diffrn_radiation_probe          x-ray
_diffrn_radiation_type           MoK\a
_diffrn_radiation_wavelength     0.71073
_diffrn_reflns_av_R_equivalents  0.0325
_diffrn_reflns_av_unetI/netI     0.0187
_diffrn_reflns_Laue_measured_fraction_full 0.989
_diffrn_reflns_Laue_measured_fraction_max 0.920
_diffrn_reflns_limit_h_max       7
_diffrn_reflns_limit_h_min       -7
_diffrn_reflns_limit_k_max       11
_diffrn_reflns_limit_k_min       -11
_diffrn_reflns_limit_l_max       9
_diffrn_reflns_limit_l_min       -9
_diffrn_reflns_number            6276
_diffrn_reflns_point_group_measured_fraction_full 0.989
_diffrn_reflns_point_group_measured_fraction_max 0.920
_diffrn_reflns_theta_full        25.242
_diffrn_reflns_theta_max         29.016
_diffrn_reflns_theta_min         3.056
_diffrn_source                   'Enhance (Mo) X-ray Source'
_exptl_absorpt_coefficient_mu    0.065
_exptl_absorpt_correction_T_max  1.00000
_exptl_absorpt_correction_T_min  0.55315
_exptl_absorpt_correction_type   multi-scan
_exptl_absorpt_process_details
;
CrysAlisPro, Agilent Technologies,
Version 1.171.37.31 (release 14-01-2014 CrysAlis171 .NET)
(compiled Jan 14 2014,18:38:05)
Empirical absorption correction using spherical harmonics,
 implemented in SCALE3 ABSPACK scaling algorithm.
;
_exptl_crystal_colour            'clear whiteish colourless'
_exptl_crystal_colour_lustre     clear
_exptl_crystal_colour_modifier   whiteish
_exptl_crystal_colour_primary    colourless
_exptl_crystal_density_diffrn    0.989
_exptl_crystal_density_method    'not measured'
_exptl_crystal_description       cylinder
_exptl_crystal_F_000             112
_exptl_crystal_preparation
'The low temperature experiment was performed using OxfordCryo system.'
_exptl_crystal_size_max          0.99
_exptl_crystal_size_mid          0.49
_exptl_crystal_size_min          0.49
_refine_diff_density_max         0.398
_refine_diff_density_min         -0.173
_refine_diff_density_rms         0.056
_refine_ls_extinction_coef       .
_refine_ls_extinction_method     none
_refine_ls_goodness_of_fit_ref   1.064
_refine_ls_hydrogen_treatment    refall
_refine_ls_matrix_type           full
_refine_ls_number_parameters     70
_refine_ls_number_reflns         874
_refine_ls_number_restraints     0
_refine_ls_restrained_S_all      1.064
_refine_ls_R_factor_all          0.0786
_refine_ls_R_factor_gt           0.0646
_refine_ls_shift/su_max          0.000
_refine_ls_shift/su_mean         0.000
_refine_ls_structure_factor_coef Fsqd
_refine_ls_weighting_details
'w=1/[\s^2^(Fo^2^)+(0.1067P)^2^+0.0673P] where P=(Fo^2^+2Fc^2^)/3'
_refine_ls_weighting_scheme      calc
_refine_ls_wR_factor_gt          0.1768
_refine_ls_wR_factor_ref         0.1896
_reflns_Friedel_coverage         0.000
_reflns_Friedel_fraction_full    .
_reflns_Friedel_fraction_max     .
_reflns_number_gt                708
_reflns_number_total             874
_reflns_threshold_expression     'I > 2\s(I)'
_cod_data_source_file            1030727-1030734.cif
_cod_data_source_block           pin_lt200
_cod_depositor_comments
;
 Updated bibliographic information.

 Antanas Vaitkus,
 2019-12-02
;
_cod_original_cell_volume        336.45(13)
_cod_database_code               4513836
_shelxl_version_number           2013-4
_chemical_oxdiff_formula         C6H12O1
_shelx_space_group_comment
;
The symmetry employed for this shelxl refinement is uniquely defined
by the following loop, which should always be used as a source of
symmetry information in preference to the above space-group names.
They are only intended as comments.
;
_reflns_odcompleteness_completeness 92.57
_reflns_odcompleteness_iscentric 1
_reflns_odcompleteness_theta     28.95
_shelx_res_file
;
TITL lt200 in P21/m #11
REM reset to P21/m #11
CELL 0.71073 5.764307 8.757614 7.017755 90 108.2491 90
ZERR 2 0.001101 0.001938 0.001422 0 0.0221 0
LATT 1
SYMM -X,0.5+Y,-Z
SFAC C H O
UNIT 12 24 2

L.S. 90
PLAN  10
TEMP -73.15
BOND
MORE -1
CONF
fmap 2 53
acta
OMIT -1 3 5
OMIT -2 0 6
OMIT -2 6 6
OMIT -1 5 5
OMIT -1 2 5
OMIT 5 1 2
REM <olex2.extras>
REM <HklSrc "%.\\lt200.hkl">
REM </olex2.extras>

WGHT    0.106700    0.067300
FVAR      33.97026
C3    1    0.600324    0.250000    0.278787    10.50000    0.03425    0.03521 =
         0.03729    0.00000    0.01082    0.00000
C2    1    0.580770    0.250000    0.490014    10.50000    0.04284    0.04239 =
         0.04358    0.00000    0.01780    0.00000
C4    1    0.346189    0.250000    0.122597    10.50000    0.04293    0.07363 =
         0.05067    0.00000    0.00419    0.00000
H4A   2    0.265984    0.341702    0.143056    11.00000    0.06307
C1    1    0.810737    0.250000    0.664708    10.50000    0.06049    0.11242 =
         0.03912    0.00000    0.01190    0.00000
O4    3    0.385683    0.250000    0.519543    10.50000    0.05271    0.11567 =
         0.06609    0.00000    0.03468    0.00000
C5    1    0.742236    0.392818    0.252215    11.00000    0.05876    0.03799 =
         0.05482    0.00405    0.02328   -0.00337
H5A   2    0.913036    0.390516    0.346912    11.00000    0.05864
H5B   2    0.741244    0.393071    0.110714    11.00000    0.07083
H5C   2    0.663725    0.486967    0.282580    11.00000    0.06238
H4B   2    0.367898    0.250000   -0.013672    10.50000    0.08049
H1A   2    0.802764    0.372130    0.678056    10.50000    0.05791
H1B   2    0.804642    0.200825    0.785366    10.50000    0.09822
H1C   2    0.947128    0.250000    0.633105    10.50000    0.09245
HKLF 4

REM  lt200 in P21/m #11
REM R1 =  0.0646 for     708 Fo > 4sig(Fo)  and  0.0786 for all     874 data
REM     70 parameters refined using      0 restraints

END

WGHT      0.1067      0.0673

REM Highest difference peak  0.398,  deepest hole -0.173,  1-sigma level  0.056
Q1    1   0.5956  0.2500  0.3853  10.50000  0.05    0.40
Q2    1   0.4751  0.2500  0.2267  10.50000  0.05    0.30
Q3    1   0.7104  0.2500  0.5624  10.50000  0.05    0.28
Q4    1   0.0824  0.2500 -0.0422  10.50000  0.05    0.27
Q5    1   0.1899  0.2500  0.0941  10.50000  0.05    0.25
Q6    1   1.1164  0.2500  0.8218  10.50000  0.05    0.22
Q7    1   0.8868  0.2500  0.7760  10.50000  0.05    0.22
Q8    1   0.3290  0.2500  0.0138  10.50000  0.05    0.20
Q9    1   0.3059  0.2500  0.2121  10.50000  0.05    0.20
Q10   1   0.6624  0.2500  0.7874  10.50000  0.05    0.19
;
_shelx_res_checksum              18054
_shelx_hkl_file
;
   0   0  -1 565858. 3291.87  12
   0   0   1 563022. 3228.79  12
   0   0   2 168332. 1739.43  14
   0   0   2 155242. 1369.30   4
   0   0   2 168179. 2860.83   5
   0   0   2 175741. 2620.48  10
   0   0  -2 167476. 2013.75  14
   0   0  -2 186073. 2503.07  11
   0   0  -2 175002. 2629.81  10
   0   0   2 162534. 2458.98  12
   0   0  -2 177158. 2638.85  12
   0   0   2 183535. 2124.59   8
   0   0  -2 163763. 2840.74   5
   0   0   2 171521. 1808.45   9
   0   0  -3 37942.7 1433.74  11
   0   0   3 37001.3 1434.34  12
   0   0   3 38007.9 1217.73   8
   0   0   3 34993.6 1615.98   5
   0   0  -3 37414.8 1249.60  14
   0   0   3 40124.3 1525.92  10
   0   0   3 31235.6 725.880   4
   0   0   3 35640.3 996.804   9
   0   0  -3 35156.2 1480.27  10
   0   0   4 137644. 3575.04   5
   0   0  -4 129403. 3264.78  10
   0   0  -4 132995. 2765.06  14
   0   0   4 131954. 3094.11  12
   0   0   4 130001. 2125.82   9
   0   0  -4 141031. 3329.34  11
   0   0   4 144271. 2739.15   8
   0   0   5 126121. 2245.61   9
   0   0  -5 125387. 3130.96  14
   0   0  -5 120768. 3619.52  10
   0   0   5 129938. 3872.54   5
   0   0   5 121713. 3382.91  12
   0   0   6 1326.29 428.591  12
   0   0  -6 1706.44 417.063  14
   0   0  -6 1905.46 506.266  10
   0   0   6 1805.76 597.948   5
   0   0  -6 2108.54 661.005  11
   0   0  -7 208.279 384.493  14
   0   0  -7 607.850 556.972  11
   0   0   7 1364.68 630.187   5
   0   0  -7 821.360 543.442  10
   0   0   7 105.171 254.111  12
   0   0   8 13530.9 1699.72   5
   0   0   8 10816.2 1394.76  12
   0   0  -8 11921.8 1543.23  10
   0   0  -8 13209.9 1834.34  11
   0   1  -1 510570. 3457.24  12
   0  -1   1 503075. 3505.66  12
   0  -1  -1 505401. 3742.68  10
   0  -1   1 495757. 3571.16   8
   0   1   1 517283. 3802.87  11
   0   1   1 517545. 2420.22   4
   0  -1  -1 535407. 3951.26  11
   0  -1   1 503513. 3421.02   5
   0  -1  -1 506385. 3626.12   5
   0  -1  -1 522975. 3162.76   1
   0   1  -1 504025. 3524.90   8
   0   1   1 503975. 3674.03  10
   0   1   1 519111. 3406.60   5
   0  -1   1 507547. 2508.95  10
   0   1   1 508557. 2996.09   1
   0   1   1 510197. 3864.75  12
   0   1   1 520456. 3415.01  14
   0   1  -1 515217. 3556.00   5
   0  -1  -2 289942. 3633.80  11
   0   1  -2 269622. 2905.82  10
   0  -1   2 286435. 2935.17   4
   0   1   2 283039. 3130.59   9
   0   1   2 261202. 3198.88  11
   0   1   2 273653. 3477.01  12
   0   1   2 287739. 3607.46  10
   0  -1   2 274142. 3630.37   5
   0  -1  -2 281854. 3653.27  12
   0   1  -2 281208. 3346.68  12
   0  -1  -2 270210. 3773.82   5
   0  -1   2 293999. 3326.76   8
   0   1  -2 285018. 1936.45   2
   0  -1   2 273898. 3269.35  12
   0   1  -2 271565. 3156.43   8
   0   1  -2 259128. 3746.34   5
   0  -1  -2 274122. 3679.72  10
   0   1   2 282524. 2311.29   1
   0   1   2 260634. 3528.58   5
   0   1   2 281092. 2926.73  14
   0  -1   2 281702. 2972.57  10
   0  -1  -2 280749. 3156.52  14
   0   1  -3 65241.6 1794.78   8
   0   1  -3 76830.9 1959.45  11
   0  -1  -3 68060.8 1864.51  14
   0   1  -3 65297.8 1830.06  10
   0   1   3 69363.8 1619.38  14
   0   1   3 70790.0 1353.83   8
   0   1  -3 63195.9 960.304   2
   0  -1   3 67579.8 2178.83   5
   0  -1   3 69760.2 1887.77  10
   0  -1   3 73305.1 1967.74   8
   0   1   3 65487.0 1995.11  12
   0  -1  -3 71884.9 2208.81  11
   0  -1  -3 67362.6 2200.77  10
   0  -1   3 67631.8 1942.56  12
   0  -1   3 68156.3 1578.31   4
   0   1   3 68372.8 2148.01   5
   0   1  -3 69650.5 1525.86  14
   0   1   3 62788.8 1657.94   9
   0   1   3 63933.4 1112.48   1
   0  -1  -4 2094.35 425.472  14
   0  -1   4 1381.86 313.080   4
   0  -1   4 3516.62 1459.16   5
   0  -1  -4 1976.74 545.157  10
   0  -1   4 1170.00 150.850   1
   0   1   4 1427.74 319.162   9
   0   1  -4 1784.36 445.260  10
   0   1   4 1783.98 289.493   8
   0   1  -4 2052.11 452.207  14
   0   1  -4 2125.65 853.415  11
   0   1  -5 14489.2 1025.71  14
   0   1   5 15314.6 1252.24  12
   0   1   5 15301.4 1325.67   5
   0   1  -5 16775.2 1309.43  11
   0  -1   5 13976.6 1330.35   5
   0  -1   5 14484.9 813.080   4
   0  -1  -5 15679.2 1354.46  10
   0  -1  -5 14198.1 1113.05  14
   0   1   5 14685.0 876.247   8
   0  -1  -5 16245.8 1401.13  11
   0   1  -5 16485.2 1263.67  10
   0  -1   5 13476.6 1160.49  12
   0   1  -6 15709.1 1538.65  11
   0   1   6 12628.7 1394.41   5
   0  -1  -6 13190.0 1190.02  14
   0   1   6 12771.4 1247.05  12
   0   1  -6 13163.4 1106.52  14
   0  -1  -6 14190.9 1490.12  11
   0  -1  -6 12718.7 1353.52  10
   0   1  -6 13573.4 1314.04  10
   0  -1   6 12568.6 1413.52   5
   0  -1   6 12443.0 1245.16  12
   0   1   7 17059.5 1557.84  12
   0   1  -7 16465.9 1420.01  14
   0   1  -7 18651.3 1662.76  10
   0   1  -7 18948.3 1914.55  11
   0  -1   7 17771.3 1637.99  12
   0   1   7 19003.4 1864.59   5
   0  -1   7 17576.9 1772.73   5
   0  -1  -7 19751.2 1868.14  10
   0  -1  -7 18255.6 1520.02  14
   0  -1  -7 20626.1 2016.55  11
   0  -1  -8 4967.39 1027.34  10
   0  -1   8 4707.95 922.375  12
   0   1   8 3492.73 789.034  12
   0  -1  -8 4931.98 1175.41  11
   0   1   8 6571.20 1273.21   5
   0   1  -8 4494.17 1131.60  11
   0   1  -8 5022.10 1030.15  10
   0  -1   8 7029.83 1389.73   5
   0   2   1 380974. 4031.85  11
   0   2   1 353894. 3897.72   9
   0   2   1 367640. 3520.74  10
   0  -2  -1 384762. 3734.71   1
   0  -2   1 368965. 2795.71   5
   0   2   1 372390. 3586.34   1
   0  -2   1 368318. 3852.48   8
   0   2  -1 370081. 3760.47  12
   0  -2  -1 370443. 3317.17   4
   0  -2  -1 375589. 2840.70   8
   0  -2   1 366128. 2785.54  13
   0   2  -1 372854. 2953.96   5
   0  -2   1 381029. 3984.89   4
   0  -2  -1 383676. 3098.48   5
   0   2   1 374162. 2812.36   5
   0   2  -1 369075. 3755.61   8
   0   2  -1 386226. 2985.26   9
   0  -2  -1 370181. 3698.31  10
   0   2   1 374016. 2650.11   8
   0   2   2 133066. 2432.09  14
   0  -2   2 133036. 1808.66  10
   0   2  -2 132010. 2535.96   5
   0   2  -2 136351. 2524.74  12
   0  -2   2 140284. 2592.21   4
   0  -2  -2 132234. 1767.46   4
   0   2  -2 131344. 2541.11   8
   0   2   2 136901. 2658.06  10
   0  -2   2 129772. 2414.95   5
   0  -2  -2 136259. 2917.66  11
   0   2   2 129630. 2661.69  11
   0  -2   2 132677. 2583.02  12
   0   2   2 136371. 2187.79   1
   0   2   2 131910. 2548.24   9
   0   2   2 130011. 2740.21  12
   0  -2  -2 126237. 2609.56   5
   0  -2  -2 129243. 2763.62  10
   0   2   2 134429. 2424.71   5
   0   2   2 130265. 1413.84   8
   0  -2   2 135307. 2674.32   8
   0   2   3 57012.8 2004.19  12
   0   2  -3 58224.1 1238.75   2
   0  -2   3 60467.9 1971.24  12
   0  -2   3 59722.6 2004.34   5
   0   2   3 59464.2 1760.66  14
   0  -2   3 58744.4 1818.58   4
   0  -2  -3 55784.0 2140.82  10
   0   2  -3 60961.4 1640.09  10
   0   2  -3 59289.3 1910.94   8
   0   2   3 60776.8 2013.97   5
   0  -2  -3 56491.0 2124.62  11
   0  -2   3 60210.6 1604.76  10
   0  -2   3 60091.8 1505.12   1
   0   2   4 11989.4 568.656   8
   0   2   4 25906.4 1771.50  12
   0  -2  -4 12392.6 1158.85  10
   0  -2   4 13082.9 699.351   1
   0   2  -4 13028.6 928.779  10
   0   2   4 13279.5 1495.66   5
   0   2  -4 12221.8 806.019  14
   0  -2   4 25043.6 1607.45  12
   0   2  -4 12554.5 1225.52   8
   0  -2   4 13256.0 1151.18   5
   0  -2  -4 17665.1 1528.41  11
   0   2  -4 12202.4 611.160   2
   0  -2   4 11796.8 1126.36   4
   0  -2  -4 13082.9 1018.08  14
   0  -2  -5 70952.8 3002.06  11
   0   2   5 71578.1 1555.07   8
   0  -2  -5 69000.8 3081.40  10
   0   2   5 64529.4 2695.28  12
   0   2  -5 72920.8 2523.18  10
   0  -2   5 66912.2 1467.87   1
   0  -2   5 74255.7 2248.33   4
   0  -2   5 75345.5 2744.02  12
   0   2   5 73616.8 2916.52   5
   0  -2   5 68619.7 2937.30   5
   0  -2  -5 73917.8 2702.83  14
   0   2  -5 70205.9 2146.48  14
   0   2  -5 76325.6 2755.23  11
   0   2  -6 20052.1 1638.24  11
   0  -2   6 19849.8 1609.97  12
   0  -2   6 16750.5 1640.57   5
   0   2  -6 20713.4 1525.19  10
   0  -2  -6 20827.8 1838.81  10
   0   2   6 19051.5 1675.37   5
   0   2   6 17861.5 1523.07  12
   0   2  -6 19524.0 1334.34  14
   0  -2  -6 20227.4 1560.73  14
   0  -2  -6 22780.6 1911.25  11
   0  -2  -7 880.929 557.280  10
   0   2   7 382.742 391.676   5
   0  -2   7 1037.09 543.615  12
   0  -2  -7 334.014 447.614  11
   0  -2   7 1093.94 564.733   5
   0   2   7 500.652 446.331  12
   0   2  -7 323.442 320.353  11
   0   2  -7 247.833 274.518  14
   0   2   8 1608.60 608.433  12
   0   2  -8 2257.04 773.023  11
   0  -2   8 1029.64 463.102  12
   0  -2  -8 2659.71 807.335  10
   0  -2   8 3227.87 895.055   5
   0  -2  -8 1483.72 761.927  11
   0   2   8 3696.54 936.507   5
   0  -3   0-0.14085 147.247   1
   0  -3   0 347.992 179.179   3
   0  -3   0 272.133 178.761   4
   0   3   0 530.973 148.965  10
   0   3   0 191.611 179.409   8
   0  -3   0 365.113 218.848   8
   0   3   0 385.697 220.462   9
   0  -3   0 402.688 153.966  10
   0  -3  -1 131648. 2478.01  10
   0   3   1 138110. 2815.30  11
   0  -3   1 131649. 2216.77  13
   0  -3   1 132537. 2814.06   4
   0  -3   1 131360. 2688.81   8
   0  -3   1 128112. 1560.24   5
   0   3   1 131147. 2677.14   3
   0  -3   1 136797. 2675.67   1
   0   3   1 134929. 2300.82  10
   0   3   1 132157. 1798.71   6
   0   3   1 133581. 2741.72   9
   0  -3   1 131966. 1771.41   6
   0  -3  -1 138374. 2734.21   1
   0  -3  -1 131068. 2192.12   8
   0   3  -1 130026. 2333.75   9
   0   3  -1 124873. 2584.47   8
   0   3   1 132428. 1612.83   5
   0   3  -1 131725. 1956.46  13
   0  -3   1 134869. 1192.78  10
   0  -3  -1 132742. 2505.50   4
   0   3   1 133264. 2046.71   8
   0  -3   2 74168.6 1773.31   5
   0  -3  -2 74938.6 1770.56   4
   0  -3   2 75981.2 2068.71   1
   0  -3   2 75885.0 1629.05  13
   0   3   2 73778.5 1333.20   8
   0   3  -2 72745.4 1434.49   9
   0   3   2 73652.7 1774.42   5
   0  -3  -2 80670.9 2161.20   1
   0   3  -2 75403.8 2207.56   8
   0  -3  -2 68817.6 1982.70   5
   0   3   2 73475.5 1226.69   7
   0  -3  -2 75077.5 2454.01  11
   0  -3  -2 73320.0 2285.42  10
   0  -3   2 73489.4 1163.98  10
   0   3  -2 73095.5 1893.04   5
   0  -3   2 78305.5 2308.75   4
   0  -3   3 16697.8 992.269   1
   0   3   3 14560.5 527.554   8
   0  -3  -3 15446.6 746.524   4
   0   3  -3 17355.7 1158.22   8
   0  -3   3 14119.0 1048.51  12
   0  -3   3 16715.0 1108.59   4
   0   3   3 15597.3 1176.75  12
   0  -3   3 16434.4 755.935  10
   0  -3   3 16248.7 1047.05   5
   0  -3  -3 16959.6 1279.35  11
   0   3   3 15400.9 1007.20   5
   0  -3  -3 16932.8 1257.34  10
   0   3   3 15213.1 829.585   7
   0   3   4 66.1263 58.5634   8
   0  -3   4 6432.09 827.023  12
   0   3   4 4887.87 811.383  12
   0  -3  -4 599.379 635.281  11
   0  -3   4 1580.98 588.359   5
   0   3   4 66.1749 58.1178   8
   0  -3  -4 23.3712 340.695  10
   0   3  -4 199.256 245.253   8
   0  -3   4 741.559 530.457   4
   0  -3   4 376.847 191.114  10
   0  -3   4 354.193 213.854   1
   0   3  -4 209.135 187.346   2
   0   3   4-248.103 245.113   5
   0   3  -5 3442.27 654.121   8
   0  -3   5 3156.84 581.047   4
   0  -3  -5 3516.39 692.340  10
   0  -3  -5 4003.91 796.637  11
   0   3  -5 2833.51 543.050  11
   0  -3   5 2957.76 669.292   5
   0   3  -5 1495.50 178.614   2
   0   3  -5 3852.77 531.849  14
   0   3   5 3747.45 635.773  12
   0  -3   5 3822.21 707.886  12
   0   3   5 4150.64 704.702   5
   0  -3   6 5778.68 778.502   4
   0  -3  -6 5199.62 925.071  11
   0   3   6 4961.30 930.642  12
   0  -3   6 5044.87 866.321  12
   0   3   6 7617.13 1066.90   5
   0  -3   6 6808.95 1001.04   5
   0   3  -6 6730.21 799.616  14
   0  -3  -6 6784.75 1084.19  10
   0   3  -6 5400.60 903.407  11
   0  -3   7 122.386 374.036  12
   0  -3  -7 2321.90 811.034  11
   0   3   7 506.821 413.646  12
   0   3   7 1662.39 729.359   5
   0   3  -7 538.962 489.115  11
   0  -3   7 1807.25 667.483   5
   0   3  -7 1780.93 521.543  14
   0  -3   8 3223.38 843.815  12
   0  -3  -8 3883.15 1128.28  11
   0   3   8 3285.67 898.100   5
   0  -3   8 3144.26 1032.91   5
   0  -3  -8 4464.93 1068.89  10
   0   3   8 2640.14 750.841  12
   0   3  -8 1251.96 609.403  11
   0   4   0 372951. 4554.12   8
   0  -4   0 367013. 3660.62  10
   0  -4   0 374217. 4815.72   8
   0  -4   0 379034. 5205.71   4
   0  -4  -1 148276. 2776.66   8
   0   4  -1 146823. 3121.68   8
   0   4   1 148713. 2585.23  10
   0   4   1 146860. 2608.09   8
   0   4   1 151926. 1910.51   6
   0  -4   1 147357. 1656.53  10
   0  -4   1 139331. 1506.30   5
   0  -4   1 149025. 3437.40   4
   0   4   1 145036. 1567.00   5
   0   4   1 149412. 3114.96   3
   0  -4  -1 150495. 2913.81  10
   0  -4   1 140886. 1749.86   6
   0   4  -1 153581. 2965.83   9
   0  -4  -1 144796. 3126.65   4
   0   4  -1 147449. 2431.82  13
   0  -4   2 132614. 2290.35   5
   0   4   2 134320. 2332.11   5
   0  -4   2 130131. 2599.28   6
   0  -4  -2 137939. 2912.42   4
   0   4  -2 138469. 2514.90   9
   0  -4   2 137280. 3549.98   4
   0  -4   2 127758. 1373.51  10
   0   4  -2 134593. 3285.95   8
   0   4   2 136176. 3348.61   3
   0   4   2 140400. 2226.73   8
   0   4   2 127831. 2493.24   6
   0  -4  -2 136339. 2454.99   8
   0  -4  -2 134984. 3290.08  10
   0   4   3 16868.8 734.718   7
   0  -4   3 16997.2 665.712  10
   0   4   3 17885.3 1344.24  12
   0  -4  -3 17937.8 1360.16  10
   0  -4  -3 17049.3 1494.37  11
   0   4   3 18852.2 1083.61   5
   0   4  -3 15568.7 1237.44   8
   0   4   3 16573.4 668.439   8
   0  -4  -3 16683.5 1005.22   4
   0  -4   3 17542.1 1369.81   4
   0   4  -3 17670.0 696.595   9
   0  -4   3 16630.4 1057.23   5
   0   4   4 1750.66 492.005   5
   0  -4  -4 237.828 352.012  10
   0   4   4 9538.00 1273.27  12
   0   4   4 395.340 483.695   7
   0  -4  -4 4464.05 1290.79  11
   0   4  -4 752.120 377.126   8
   0  -4   4 10705.3 1346.73   4
   0  -4   4 260.274 251.719  10
   0  -4   5 42015.9 2216.46   4
   0   4  -5 45089.8 1556.14   2
   0  -4   5 39390.9 2246.48  12
   0   4  -5 38244.6 2281.72   8
   0  -4  -5 39755.6 2527.99  10
   0  -4   5 41762.0 2169.40   5
   0   4   5 38039.0 2193.93  12
   0   4   5 38975.6 2124.53   5
   0  -4  -5 44952.9 2718.14  11
   0  -4  -6 21765.2 2049.06  10
   0  -4   6 18273.5 1701.20   5
   0   4   6 22913.0 1776.95   5
   0  -4   6 21584.7 1808.65  12
   0   4   6 21237.3 1770.27  12
   0   4  -6 20924.6 1348.30  14
   0   4  -6 24499.3 1718.75  11
   0  -4   6 22251.3 1677.08   4
   0  -4  -6 20252.5 2003.97  11
   0  -4  -7-242.367 297.274  11
   0   4   7 175.309 304.570  12
   0  -4   7-121.972 294.255  12
   0  -4  -7 454.188 542.373  10
   0   4  -7 268.061 335.186  14
   0  -4   7 154.052 369.605   5
   0   4   7 224.586 333.917   5
   0   4  -7-136.710 257.473  11
   0   4  -8-291.164 409.337  11
   0   4   8 374.790 408.810  12
   0   4   8 770.728 578.155   5
   0  -4   8 583.097 489.064   5
   0  -5   0 19.9417 126.382  10
   0   5   0 12.0953 197.648   8
   0  -5   0-16.0502 227.938   4
   0   5   1 2961.09 519.858   3
   0   5   1 2406.47 183.112   5
   0   5   1 2213.68 207.700   6
   0  -5  -1 2545.21 504.760   4
   0  -5  -1 2664.87 456.504  10
   0   5   1 3185.39 461.337   8
   0  -5   1 3238.28 641.995   4
   0  -5   1 3731.78 322.239  10
   0   5  -1 2828.65 536.156   8
   0  -5   1 2171.10 183.186   6
   0  -5   1 2078.81 166.864   5
   0   5  -1 3109.38 440.307  13
   0  -5  -2 10535.9 951.441   4
   0  -5  -2 10049.1 781.812   8
   0   5   2 9544.07 698.702   6
   0  -5   2 7285.56 322.433  10
   0  -5   2 8888.22 346.900  10
   0   5  -2 10244.0 1003.37   8
   0   5   2 10722.0 754.692   8
   0  -5   2 10822.5 1122.48   4
   0  -5  -2 10595.4 967.128  10
   0   5   2 8805.17 995.195   3
   0  -5   2 9791.17 707.284   6
   0  -5   2 9658.19 588.087   5
   0   5   2 10598.9 611.179   5
   0  -5   3 756.962 265.610   5
   0  -5   3 732.391 375.841   4
   0   5   3 783.505 284.473   5
   0   5   3 602.537 184.860   8
   0  -5  -3 563.714 311.844   4
   0   5  -3 896.790 227.499   9
   0  -5  -3 1034.16 378.601  10
   0   5   3 100.880 268.781   3
   0   5  -3 525.423 364.038   8
   0  -5   4 2840.59 655.669   5
   0   5   4 3657.02 624.686   5
   0  -5  -4 1911.99 714.143  10
   0   5  -4 943.255 513.804   8
   0  -5  -4 1325.42 332.555   4
   0  -5   5 322.291 390.519   5
   0   5   5 1152.52 458.610   5
   0  -5  -5 20.2079 300.114  10
   0  -5   5 1222.34 492.042   4
   0   5   5 767.056 450.876  12
   0  -5  -5 715.483 487.316  11
   0   5  -5 290.984 400.621   8
   0   5  -5 201.861 273.771   2
   0   5  -6 5344.79 1034.27   8
   0  -5   6 5532.69 905.728   5
   0  -5   6 5266.87 861.304   4
   0   5   6 5968.26 916.824   5
   0  -5  -6 6385.33 1132.62  10
   0  -5  -6 6600.63 1195.47  11
   0   5   6 5883.92 1002.27  12
   0   5  -7 1947.51 514.562  14
   0  -5   7 1882.95 571.450   5
   0   5  -7 1814.39 634.825  11
   0  -5  -7 2447.18 798.389  10
   0   5   7 982.076 509.987  12
   0  -5  -7 1833.48 642.540  11
   0   5   7 1531.49 548.988   5
   0   5  -8 1126.15 624.376  11
   0   6   0 402174. 5725.23  13
   0   6   0 406437. 5949.07   8
   0  -6   0 419018. 4947.07  10
   0  -6   1 29763.5 1954.23   4
   0  -6  -1 29610.5 1784.16   4
   0  -6  -1 29511.1 1543.31  10
   0  -6   1 30541.9 1079.52  10
   0   6   1 30160.5 1500.96   8
   0   6  -1 30987.8 1419.67  13
   0   6   1 31046.9 1710.59   3
   0   6  -1 28800.0 1710.29   8
   0  -6   2 2187.89 662.312   4
   0  -6   2 1857.24 259.393   5
   0   6  -2 2129.03 509.797   8
   0  -6  -2 1017.28 348.028  10
   0   6   2 2050.74 397.806   8
   0   6   2 1591.22 291.735   6
   0   6   2 2082.75 269.627   5
   0  -6  -2 1881.01 501.327   4
   0  -6   2 1420.68 274.627   6
   0   6   2 1977.26 481.403   3
   0  -6  -3 3747.13 708.227   4
   0  -6   3 3976.14 881.813   4
   0  -6  -3 3740.67 756.994  10
   0   6   3 3614.91 426.867   8
   0   6   3 3285.88 696.270   3
   0   6   3 3414.75 431.747   5
   0  -6   3 2977.97 427.912   5
   0   6  -3 4419.53 779.439   8
   0  -6  -4 20534.3 1868.34  10
   0   6   4 18565.7 1670.41   3
   0  -6   4 19156.2 1787.60   4
   0  -6   4 18122.1 1229.64   5
   0   6   4 19620.3 1274.58   5
   0   6   4 17425.9 1670.10  12
   0   6  -4 17075.8 1635.87   8
   0  -6  -4 19149.4 1316.60   4
   0   6   5 22974.7 1930.24  12
   0   6  -5 24568.9 1977.64   8
   0   6   5 22118.1 1561.94   5
   0  -6   5 23557.4 2067.72   4
   0   6  -5 24873.9 1457.65   2
   0  -6   5 22631.9 1547.82   5
   0  -6  -5 24956.0 2152.33  10
   0   6   6-323.565 279.720  12
   0  -6  -6 362.290 440.806  10
   0  -6   6-468.285 286.027   5
   0  -6   6 341.517 384.984   4
   0   6  -6-584.699 376.676   8
   0   6   6-257.419 349.967   5
   0  -6   7 148.192 421.682   5
   0   6   7 207.920 303.566   5
   0   6  -7 1381.08 578.289  11
   0   6   7 64.7695 322.579  12
   0   6  -7 866.262 402.013  14
   0  -7   0 281.728 327.441   4
   0  -7   0-5.71177 144.552   7
   0   7   0-114.471 233.394   8
   0  -7   0-153.536 198.782  10
   0   7   0-493.997 445.774  13
   0   7   1 54742.1 2237.36   8
   0  -7   1 52172.5 2816.88   4
   0   7  -1 55959.7 2074.90  13
   0  -7  -1 52148.6 2657.40   4
   0  -7  -1 55294.2 2289.36  10
   0  -7   1 57570.8 1651.93  10
   0   7  -1 52710.7 2473.90   8
   0   7  -2 1750.33 528.529   8
   0   7   2 1590.20 406.082   8
   0  -7  -2 1950.24 547.273  10
   0  -7  -2 1941.91 555.448   4
   0  -7   2 1283.89 535.263   4
   0   7   2 1485.31 483.403   3
   0  -7  -3 20474.4 1704.22  10
   0  -7   3 22433.9 2007.62   4
   0   7   3 21214.4 1735.38   3
   0   7  -3 18392.7 1636.57   8
   0  -7  -3 20904.3 1628.84   4
   0   7   3 19515.7 1125.89   8
   0   7   4 2205.53 994.586   3
   0   7  -4 810.693 679.786   8
   0  -7   4 4122.10 1069.25   4
   0  -7  -4 816.033 452.111   4
   0  -7  -4 2792.51 985.540  10
   0   7   4 1549.83 1001.00  12
   0   7   5 8706.92 1269.55  12
   0  -7   5 8682.73 1365.39   4
   0   7  -5 9634.69 1355.11   8
   0  -7  -5 8995.62 1333.54  10
   0   7  -5 10687.4 1028.44   2
   0   7   5 9588.05 1355.20   3
   0  -7  -6 2687.25 824.595  10
   0   7   6 2554.47 760.004  12
   0   7  -6 3139.30 867.644   8
   0  -7   6 2831.91 857.405   4
   0   7   6 2020.13 642.596   3
   0   7  -7 5796.59 1006.15  11
   0   7  -7 5052.27 790.872  14
   0   8   0 118525. 3745.61   8
   0  -8   0 126247. 4566.18   4
   0  -8   0 123675. 3244.07  10
   0   8   0 112954. 3506.42  13
   0   8  -1 6610.72 803.324  13
   0   8  -1 6285.58 930.363   8
   0  -8   1 6210.99 1126.16   4
   0  -8  -1 6178.92 1080.69   4
   0   8   1 5638.83 801.896   8
   0  -8  -1 7503.72 896.846  10
   0   8   2 2983.54 565.143   8
   0  -8  -2 3385.36 674.643  10
   0   8   2 4156.60 850.255   3
   0  -8  -2 3129.91 769.681   4
   0  -8   2 3815.83 897.586   4
   0   8  -2 2978.04 725.434   8
   0  -8  -3 1247.81 559.118   4
   0   8   3 1691.02 561.884   3
   0   8  -3 948.409 506.203   8
   0  -8  -3 970.261 484.708  10
   0  -8   3 1302.28 529.184   4
   0   8   4 11075.5 1419.51   3
   0  -8   4 10885.6 1553.60   4
   0  -8  -4 10616.5 1425.22  10
   0   8  -4 10625.1 1387.24   8
   0   8   4 9992.30 1461.62  12
   0  -8   5 6837.27 1284.91   4
   0   8  -5 8125.93 1002.73   2
   0   8  -5 7394.22 1269.52   8
   0   8   5 7405.80 1248.43   3
   0  -8  -5 6304.86 1249.17  10
   0   8   5 6157.84 1126.13  12
   0   8   6 438.473 557.923  12
   0  -8   6 64.7652 515.155   4
   0   9   0-572.204 356.786  13
   0  -9   0-769.257 625.813   4
   0   9   0-308.819 376.263   8
   0   9  -1 1887.41 531.565  13
   0   9  -1 691.284 437.270   8
   0  -9  -1 501.397 372.181   4
   0  -9  -1 1194.04 432.214  10
   0  -9   1 802.419 584.623   4
   0   9   1 1636.84 510.643   8
   0   9   1 361.641 385.761  13
   0   9  -2 566.800 447.271   8
   0  -9   2-493.051 526.222   4
   0  -9  -2 89.0845 260.022  10
   0  -9  -2 101.238 384.757   4
   0  -9   3 545.209 470.342   4
   0   9  -3 721.387 529.707   8
   0  -9  -3-182.825 415.967  10
   0   9   3 561.173 507.825   3
   0  -9  -3 180.576 303.133   4
   0   9   4-338.467 443.458  12
   0   9  -4 646.581 591.153   8
   0   9   4 571.379 552.721   3
   0  -9  -4 446.816 604.777  10
   0  -9   4 127.840 430.219   4
   0  -9  -5 176.879 384.980  10
   0  -9   5-364.801 759.309   4
   0   9   5 146.201 404.427  12
   0  10   0 1448.85 525.300   8
   0  10   0 1225.27 468.484  13
   0 -10   0 741.378 515.373   4
   0  10  -1 642.020 348.656   8
   0  10  -1 1636.43 541.881  13
   0 -10  -1 1138.03 679.861   4
   0  10   1 1006.67 423.195  13
   0 -10   1 1155.54 470.364   4
   0  10   1 1109.95 453.754   8
   0 -10  -2 3603.33 977.544   4
   0  10  -2 3965.27 855.494   8
   0 -10   2 3962.43 1043.25   4
   0  10  -3 522.914 451.216   8
   0 -10   3 742.037 622.916   4
   0 -10  -3 211.741 520.268   4
   0 -10  -3-64.2562 341.177  10
   0 -10  -4 290.261 632.843  10
   0  11   0-3.02738 317.353  13
   0  11   0-228.470 294.895   8
   0  11   1 709.597 420.862  13
   0 -11  -1 1105.97 631.782   4
   0  11  -1 325.432 411.243   8
   0 -11  -2-665.850 495.375   4
  -1   0   9 635.637 498.888  12
  -1   0   8 12268.0 1583.18   5
   1   0  -8 12721.4 1473.72  14
  -1   0   8 11267.2 1297.36  12
   1   0  -8 13394.9 1738.50  11
   1   0  -7 5001.31 944.297  10
  -1   0   7 4395.47 768.675  12
   1   0  -7 4365.39 980.764  11
  -1   0   7 3868.73 877.658   5
   1   0  -7 4234.33 803.116  14
  -1   0   6 723.824 371.691  12
   1   0  -6 578.737 286.625  14
   1   0  -6 500.696 325.027  10
  -1   0   6 31.3228 315.933   5
   1   0  -6 467.823 345.632  11
  -1   0   5 34217.7 2102.86   5
  -1   0   5 30362.2 933.485   2
  -1   0   5 26584.0 1021.21   9
   1   0  -5 29331.3 1759.26  10
  -1   0   5 34685.9 1659.09  12
   1   0  -5 27062.4 1557.77  14
   1   0  -5 25339.6 1714.16  11
   1   0  -4 95379.2 2657.41  11
  -1   0   4 90012.2 2314.19  12
  -1   0   4 89938.0 3046.32   5
  -1   0   4 91595.9 1769.60   9
   1   0  -4 93827.1 2845.02  10
  -1   0   4 96050.2 1606.65   2
   1   0  -4 91443.5 2063.18   9
   1   0  -4 90020.3 2490.89  14
   1   0  -3 929919. 5725.30   9
  -1   0   3 946204. 5192.90   9
   1   0  -3 934590. 6392.96  12
   1   0  -3 898316. 6715.38  14
  -1   0   3 913117. 6013.06  12
   1   0  -3 939314. 8372.69   6
  -1   0   3 887154. 5970.84  11
   1   0  -3 931793. 7093.49  11
  -1   0   2 38016.2 1291.19  10
  -1   0   2 35811.4 967.354  14
   1   0  -2 34722.0 1368.46   6
   1   0  -2 37142.7 1003.83   9
  -1   0   2 35824.4 1341.50   6
   1   0  -2 36505.6 1162.91  11
  -1   0   2 36010.6 1010.63  11
  -1   0   2 36352.5 901.678   9
  -1   0   2 38754.6 895.106  12
   1   0  -2 35728.4 1091.94  14
   1   0  -2 37078.1 928.078  12
  -1   0   1 9453.97 416.782  14
  -1   0   1 8877.62 391.534   9
  -1   0   1 10726.5 549.079   6
   1   0  -1 10238.8 595.828   7
   1   0  -1 9583.35 429.866   9
   1   0  -1 9533.18 453.909  14
  -1   0   1 10117.4 597.251   7
  -1   0   1 11306.2 450.243  11
   1   0  -1 8982.24 553.329   6
  -1   0   0 887695. 4434.74   5
   1   0   0 875534. 5139.39   7
  -1   0   0 884014. 5050.05   7
   1   0   0 880188. 4414.82   6
   1   0   1 490941. 4163.76  12
   1   0   1 515775. 4660.94   7
   1   0   1 503006. 4041.73   5
   1   0   1 494328. 3668.83   8
  -1   0  -1 505721. 3637.38   8
  -1   0  -1 505893. 4663.29   7
  -1   0  -1 484481. 3552.84  10
  -1   0  -1 510713. 4128.26   5
  -1   0  -1 508053. 4365.88  12
   1   0   2 203601. 2688.46  10
   1   0   2 198168. 3517.86   7
  -1   0  -2 194180. 2403.52   8
   1   0   2 195043. 3235.10  12
  -1   0  -2 194554. 3390.56  12
   1   0   2 192317. 2534.37   8
  -1   0  -2 195386. 3253.22   5
  -1   0  -2 195264. 2965.56  10
  -1   0  -2 180951. 1312.96   2
  -1   0  -2 193839. 1758.65  14
   1   0   2 182318. 3107.98   5
  -1   0  -2 189073. 2258.61   4
  -1   0  -3 972.522 266.203   8
  -1   0  -3 794.753 380.566  10
  -1   0  -3 1099.05 348.778  14
  -1   0  -3 636.421 202.667   4
   1   0   3 796.381 544.500   5
   1   0   3 869.518 294.859   8
  -1   0  -4 90080.1 2846.35  11
  -1   0  -4 80987.4 2041.41   8
  -1   0  -4 84788.8 2018.68  14
   1   0   4 83471.1 2126.56   8
  -1   0  -4 82870.6 2776.86  10
   1   0   4 83538.5 2809.51   5
   1   0   4 78009.5 2673.61  12
  -1   0  -5 212645. 5016.75  10
  -1   0  -5 209318. 3703.22  14
   1   0   5 202960. 5011.32   5
   1   0   5 199530. 4742.32  12
   1   0   6 2374.30 585.180  12
   1   0   6 2514.15 666.639   5
  -1   0  -6 2937.85 737.753  11
  -1   0  -6 2272.84 636.157  10
  -1   0  -7 4802.10 974.391  10
  -1   0  -7 5013.07 1076.54  11
   1   0   7 4722.89 919.700  12
   1   0   7 5318.37 1002.97   5
  -1   0  -8 574.130 441.975  10
  -1  -1   9 298.031 364.321  12
  -1   1   9 773.686 505.995  12
   1   1  -9 43.3548 381.785  11
   1  -1  -8 640.121 489.183  14
  -1  -1   8 369.798 391.750  12
  -1   1   8 510.393 382.046  12
   1   1  -8 630.661 543.414  11
  -1  -1   8 575.263 536.090   5
  -1   1   8 164.392 452.689   5
   1  -1  -8 318.372 373.376  11
   1  -1  -8 487.232 580.738  10
   1   1  -8 354.358 375.586  14
  -1  -1   7 162.136 352.491   5
  -1   1   7 330.481 347.846  12
   1   1  -7 283.661 503.928  11
  -1   1   7-203.651 299.247   5
   1   1  -7 292.865 217.671  14
   1  -1  -7 71.9832 314.609  14
   1  -1  -7 103.067 311.485  10
  -1  -1   7-31.5542 225.302  12
   1  -1  -7 63.0028 260.610  11
   1  -1  -6 341.508 364.166  10
   1  -1  -6 272.137 348.533  11
   1   1  -6 371.286 308.281  11
  -1   1   6-0.26154 220.812  12
  -1   1   6 245.093 350.343   5
  -1  -1   6 423.356 327.675   5
  -1  -1   6 444.898 339.590  12
   1  -1  -6 207.401 243.008  14
   1   1  -6 115.021 240.867  14
  -1  -1   6 477.346 243.071   4
   1   1  -5 1281.61 808.907  11
   1  -1  -5 284.836 441.807  10
  -1   1   5 8143.96 1036.91  12
   1   1  -5 899.726 471.330  14
  -1  -1   5 12403.0 1355.62   5
   1  -1  -5 5308.55 1000.75  11
  -1  -1   5 13048.0 1107.62  12
   1  -1  -5 1368.29 572.382  14
  -1   1   5 10796.4 1331.57   5
  -1   1   4 2363.41 534.585   5
   1   1  -4 2299.13 425.193  11
  -1   1   4 2106.79 376.445   9
  -1   1   4 2665.24 402.547  12
   1  -1  -4 1940.66 495.494  10
  -1  -1   4 2367.81 418.074  12
   1  -1  -4 2099.65 496.345  11
  -1  -1   4 2473.19 530.873   5
   1  -1  -4 2237.90 453.621   9
   1   1  -4 2147.06 273.464   9
  -1  -1   4 2563.23 276.879   2
   1  -1  -4 2220.00 481.679  14
   1   1  -4 2236.85 380.275  14
  -1  -1   3 341204. 4930.99   5
  -1   1   3 338974. 4909.42   5
  -1   1   3 333460. 3842.50   9
   1   1  -3 325500. 3705.84  14
  -1   1   3 335463. 3767.54  12
   1  -1  -3 305200. 4558.20  11
   1  -1  -3 333413. 4133.16   9
   1  -1  -3 315930. 4874.77  10
   1  -1  -3 326213. 4498.53  14
  -1  -1   3 337645. 4467.11  10
   1   1  -3 341539. 3933.58  12
   1   1  -3 345370. 3763.36  11
   1  -1  -3 337810. 4072.85  12
  -1  -1   3 342486. 3000.12   2
   1   1  -3 341553. 2849.28   9
  -1  -1   3 333752. 3907.65  12
  -1  -1   3 343391. 4398.37   8
   1  -1  -2 638065. 5111.86   9
   1  -1  -2 614285. 5655.44   6
   1   1  -2 628205. 3264.76   9
  -1  -1   2 654536. 3922.96   2
   1   1  -2 638297. 4210.33  14
  -1   1   2 614425. 3950.81  12
  -1   1   2 634177. 4873.81   9
   1   1  -2 635056. 3711.71  11
  -1   1   2 611593. 5536.61   6
   1   1  -2 635828. 4100.07   2
   1  -1  -2 623395. 4412.64  12
  -1  -1   2 618676. 5459.97   6
   1  -1  -2 578809. 5512.97  11
   1   1  -2 614716. 5667.82   6
   1  -1  -2 664045. 5772.41  10
  -1   1   2 657376. 5305.16  11
   1  -1  -2 612743. 5237.46  14
  -1  -1   2 631699. 4419.78  12
  -1   1   2 642953. 5050.53  14
  -1   1   2 644628. 5626.03  10
   1   1  -2 628264. 4246.41  12
  -1   1   1 764324. 5002.44  10
   1  -1  -1 795395. 5206.42  14
   1  -1  -1 778863. 4787.26   6
  -1  -1   1 757939. 4054.47   2
  -1   1   1 799285. 4874.46   9
  -1  -1   1 813518. 5437.74   7
  -1   1   1 806911. 4709.17   7
   1   1  -1 805476. 4877.57   6
  -1   1   1 821793. 5127.48  14
   1  -1  -1 780846. 4723.22   7
   1  -1  -1 783216. 5070.39   9
   1   1  -1 768489. 4187.07   2
  -1  -1   1 811993. 4667.03   6
  -1   1   0 290884. 2310.66  12
   1  -1   0 304510. 2405.61  13
   1  -1   0 289819. 2318.02  12
  -1   1   0 282455. 3138.07   8
  -1  -1   0 292601. 2374.17   2
   1  -1   0 278525. 2551.79   9
  -1  -1   0 289077. 2955.65   7
  -1   1   0 289377. 2963.98   7
   1   1   0 294830. 2384.15   2
  -1  -1   0 286504. 2540.07   5
  -1   1   0 288631. 2524.86   5
  -1   1   0 287904. 3170.67   4
   1   1   0 290797. 2542.07   6
   1  -1   0 290228. 2990.58   7
  -1  -1   0 290517. 1901.69  11
   1   1   0 288489. 2988.57   7
  -1   1   0 291215. 2470.55   9
   1  -1   0 286921. 2531.44   6
   1  -1   1 29408.1 1096.96   8
  -1   1  -1 31149.6 1057.74  12
   1   1   1 31266.5 1092.54   7
   1  -1   1 29033.9 1012.29  12
   1  -1   1 29066.3 1203.01   7
  -1  -1  -1 30414.7 1029.56   5
  -1   1  -1 28924.9 1060.88   8
  -1  -1  -1 28983.5 912.829  11
   1  -1   1 27780.8 1033.84   4
   1   1   1 32267.5 734.517   2
  -1  -1  -1 29165.6 1217.92  12
  -1  -1  -1 29926.4 1079.71   7
   1  -1   1 30190.3 994.440   5
   1  -1   1 28843.0 715.486   9
  -1   1  -1 31983.7 750.726  10
  -1   1  -1 30319.3 1068.93   4
  -1   1  -1 31291.4 1017.64   5
   1   1   1 29338.7 1148.88  12
  -1  -1  -1 28335.3 986.902  10
   1   1   1 29326.7 998.811   5
  -1  -1  -2 342663. 4342.12  10
   1  -1   2 337603. 4123.10   5
  -1  -1  -2 341459. 2291.11   8
  -1   1  -2 339132. 3721.03   4
  -1   1  -2 348108. 3939.80   8
   1  -1   2 340180. 4187.64  12
  -1   1  -2 348245. 2880.53   1
  -1  -1  -2 349132. 4059.37  11
  -1   1  -2 351153. 3558.37  10
   1  -1   2 342768. 3765.11   4
   1   1   2 356320. 4227.79   5
  -1   1  -2 350908. 4418.00   5
   1   1   2 367716. 3995.74  10
   1   1   2 349596. 2248.52   2
   1   1   2 340808. 4469.55   7
   1   1   2 345160. 4613.39  12
   1  -1   2 340086. 3233.01  10
   1  -1   2 344719. 2394.43   9
   1  -1   2 348323. 4159.39   8
   1   1   2 344157. 2614.40  14
  -1  -1  -2 343060. 4442.16   5
  -1   1  -3 65327.5 1652.75   4
  -1   1  -3 62474.5 1267.28  14
   1  -1   3 65755.1 1995.79   8
   1  -1   3 67187.5 1708.52  10
   1   1   3 87005.7 2845.51  12
   1  -1   3 63572.7 1707.95   4
  -1   1  -3 64430.7 1875.87   8
   1   1   3 83856.8 1431.22  14
   1   1   3 62412.5 1256.07   8
   1   1   3 63037.4 2160.53   5
   1  -1   3 64018.6 2187.87   5
  -1  -1  -3 67368.0 2295.59  10
  -1  -1  -3 73696.1 2272.03  11
  -1   1  -3 65432.7 1950.04  10
  -1  -1  -3 60182.7 1147.39   8
   1   1   4 65228.7 2519.06  12
  -1  -1  -4 69572.3 2596.46  11
  -1   1  -4 68705.9 2403.24  11
  -1   1  -4 66782.9 2118.25   8
   1   1   4 60900.5 2495.81   5
   1   1   4 65658.2 1508.68   8
   1  -1   4 64434.2 2422.11  12
  -1  -1  -4 66780.8 2624.99  10
   1   1   4 65660.7 1367.72  14
  -1   1  -4 65444.2 1664.22  14
   1  -1   4 67721.6 2571.82   5
  -1  -1  -4 72339.6 1982.15  14
  -1   1  -4 68140.4 2352.87  10
   1  -1   5 2258.34 229.022   9
  -1   1  -5 1719.36 427.546  10
  -1   1  -5 1695.01 326.202  14
  -1  -1  -5 2320.10 597.041  10
  -1   1  -5 1722.72 528.285  11
  -1  -1  -5 1890.32 369.837  14
  -1   1  -5 2134.51 439.494   8
   1  -1   5 2026.01 568.799   5
   1   1   5 2224.33 578.382  12
   1  -1   5 1576.96 460.012  12
  -1  -1  -5 1167.62 419.588  11
   1   1   5 1780.27 554.334   5
   1   1   6 5350.05 895.162   5
  -1  -1  -6 6795.47 1094.84  10
   1  -1   6 6354.80 941.865  12
   1   1   6 5545.48 882.041  12
  -1  -1  -6 7946.29 1180.04  11
  -1   1  -6 6009.67 901.660  10
   1  -1   6 7200.57 1051.13   5
  -1   1  -6 4845.32 889.637  11
   1   1   7 1649.19 606.920  12
  -1  -1  -7 1429.48 513.489  10
  -1   1  -7 1540.74 492.608  10
   1  -1   7 2068.25 646.289  12
  -1   1  -7 935.925 493.535  11
   1   1   7 2016.31 740.046   5
   1  -1   7 1012.04 500.576   5
  -1  -1  -7 1727.60 742.729  11
  -1  -1  -8 949.208 510.110  10
  -1   2   9 3323.20 812.039  12
  -1  -2   9 2706.07 867.948  12
   1   2  -9 1879.93 821.017  11
  -1   2   8 6738.58 1003.90  12
   1  -2  -8 8744.69 1325.06  14
   1  -2  -8 8240.77 1473.00  11
  -1  -2   8 8751.81 1344.96   5
  -1   2   8 9683.90 1379.51   5
   1  -2  -8 8742.60 1466.16  10
   1   2  -8 10089.3 1523.21  11
  -1  -2   8 8948.75 1261.24  12
   1   2  -8 8145.88 1196.19  14
   1  -2  -7 1353.02 615.723  11
   1  -2  -7 1181.88 529.970  10
   1   2  -7 682.571 362.594  11
  -1   2   7 399.935 228.808  12
  -1   2   7 993.964 486.478   5
  -1  -2   7 8.10818 329.276   5
   1   2  -7 458.272 277.771  14
   1  -2  -7 550.557 327.508  14
  -1  -2   7 1413.73 549.263  12
  -1  -2   6 531.281 420.978   5
  -1   2   6-57.4299 304.740   5
  -1  -2   6 258.622 323.162  12
   1   2  -6 992.001 364.863  14
   1  -2  -6 299.508 330.728  14
  -1  -2   6-72.4502 191.692   4
   1   2  -6 75.1525 263.124  11
   1  -2  -6 628.979 343.082  11
  -1   2   6 106.273 279.369  12
   1  -2  -6 333.810 380.713  10
  -1   2   5 34574.5 1787.23  12
  -1  -2   5 35388.3 2169.28   5
  -1  -2   5 27658.2 1724.51  12
   1   2  -5 7147.68 845.856  11
   1  -2  -5 13492.3 1480.69  11
   1  -2  -5 3508.67 746.098  10
  -1   2   5 23256.4 1420.61   1
  -1   2   5 30681.5 2054.81   5
   1   2  -5 4176.05 737.737  14
  -1  -2   4 21089.5 1233.53  12
   1  -2  -4 19785.3 1338.34  14
  -1  -2   4 18460.5 1421.16   5
   1   2  -4 21816.6 1189.56  11
   1  -2  -4 20079.1 1427.63  10
  -1   2   4 20220.2 1424.96   5
   1   2  -4 20532.5 1096.84  14
   1  -2  -4 21918.1 1503.13  11
   1   2  -4 17512.0 906.002   2
  -1   2   4 18891.8 845.300   4
  -1   2   4 18649.7 1154.61  12
   1   2  -4 14969.6 495.904   9
  -1   2   3 134254. 2715.56  12
  -1   2   3 149091. 3276.88   5
   1  -2  -3 136377. 3200.32   9
  -1  -2   3 147395. 2913.18  12
  -1  -2   3 148343. 3253.96   5
  -1  -2   3 148668. 2823.64  10
   1  -2  -3 150581. 3454.39  10
   1   2  -3 150185. 1536.15   9
   1  -2  -3 159417. 3696.47  11
   1   2  -3 167723. 2522.07  11
   1   2  -3 150130. 2394.95   2
  -1   2   3 148727. 2453.52   4
   1  -2  -3 140434. 3229.16  14
  -1   2   2 57424.8 1733.93   9
   1   2  -2 62749.0 1434.90   2
   1   2  -2 59179.4 1604.09  12
  -1   2   2 56556.0 1849.30  11
  -1   2   2 55540.2 1584.02   4
  -1   2   2 53668.3 1347.95   7
  -1   2   2 60199.2 1832.22  10
  -1  -2   2 56502.9 1631.34   6
   1  -2  -2 58325.2 1822.74  10
   1   2  -2 59100.4 1767.63   6
   1  -2  -2 56672.2 1816.47  14
  -1  -2   2 56601.0 1733.80   8
  -1   2   2 56501.4 1752.05  14
   1  -2  -2 57871.0 1792.36   9
   1  -2  -2 57821.8 1739.94   6
  -1   2   2 59743.1 1712.36   6
   1  -2  -1 829150. 6250.93   9
  -1   2   1 848122. 6078.92   9
   1  -2  -1 833493. 4546.30   7
   1  -2  -1 838980. 6207.80   4
  -1   2   1 814906. 6291.95  14
  -1  -2   1 854332. 4914.63   6
   1   2  -1 850190. 5121.45   6
  -1  -2   1 859931. 5719.08   8
  -1   2   1 832448. 4481.45   7
   1   2  -1 831649. 3381.69  13
  -1  -2   1 841814. 6036.82   7
  -1   2   1 833483. 4839.41   6
   1   2  -1 800617. 4989.07   2
  -1   2   1 780499. 5487.10   3
  -1   2   1 863160. 6136.39   8
   1  -2  -1 805425. 5800.50  10
  -1   2   1 859989. 5596.53  10
   1  -2  -1 831031. 5068.65   6
  -1   2   1 858068. 6301.92   4
  -1   2   0 563485. 4456.48   9
   1  -2   0 560868. 4318.30  13
   1  -2   0 543404. 4575.61   9
   1  -2   0 556765. 4395.14   7
   1  -2   0 546519. 5170.72   4
   1   2   0 539575. 3681.67  11
   1   2   0 572885. 3589.56   6
  -1   2   0 556370. 5044.31   8
   1  -2   0 545675. 3531.77   6
   1  -2   0 563897. 5293.48   8
   1   2   0 555096. 4372.18   7
  -1   2   0 553397. 3899.02  13
  -1  -2   0 549997. 4206.03   7
  -1  -2   0 572045. 3539.29   5
  -1   2   0 554902. 4220.98  12
   1   2   0 570327. 3999.94   2
  -1   2   0 567941. 5296.86   4
  -1   2   0 543027. 3478.85   5
  -1  -2   0 548724. 3833.17   8
  -1   2   0 552887. 4333.71   7
   1   2   0 584863. 3955.97   3
  -1   2  -1 3076.65 198.513  10
   1   2   1 2817.34 351.036   5
  -1   2  -1 2902.95 318.495   5
  -1   2  -1 3210.19 454.602   4
  -1  -2  -1 3147.39 225.015   8
  -1   2  -1 3265.17 383.831   1
  -1  -2  -1 2717.47 374.756  10
   1  -2   1 2979.55 444.156   8
   1  -2   1 3022.36 405.675  12
   1   2   1 2962.71 342.011   7
  -1  -2  -1 3046.05 348.941   5
   1  -2   1 2950.06 357.137   5
  -1   2  -1 3143.23 382.811  12
  -1  -2  -1 2976.49 393.639  11
  -1   2  -1 3024.30 435.584   8
   1  -2   1 2626.99 307.075   9
   1  -2   1 2808.23 435.087   4
   1   2   1 2946.19 329.703  11
   1  -2   1 2727.58 436.530   7
  -1  -2  -1 3218.00 351.404   7
  -1   2  -1 2954.23 276.187   9
   1  -2   2 138297. 1869.98   9
   1   2   2 145731. 2699.94   5
  -1   2  -2 145488. 2797.32   4
  -1  -2  -2 142625. 3022.75  10
   1  -2   2 139197. 2876.02   4
  -1   2  -2 147972. 2857.59   5
   1   2   2 142342. 2270.60  14
   1   2   2 137706. 2698.12   7
   1  -2   2 142168. 2868.04  12
  -1   2  -2 141207. 2901.74   8
   1   2   2 140427. 3204.20  12
  -1   2  -2 145719. 2358.34   1
   1  -2   2 134658. 2643.46   5
  -1  -2  -2 148421. 2875.81   5
  -1  -2  -2 145440. 2946.31  11
   1   2   2 142584. 1945.00   2
  -1   2  -2 140816. 1974.56  10
   1  -2   3 54087.2 1055.42   9
   1  -2   3 58994.1 1428.24  10
   1   2   3 55371.4 1591.80  14
   1  -2   3 54318.6 1948.45   4
   1   2   3 58947.8 1239.73   2
  -1   2  -3 53753.4 1828.12   4
  -1  -2  -3 61244.7 2283.35  11
   1  -2   3 49036.9 2034.76   5
  -1  -2  -3 58743.0 2260.51  10
  -1   2  -3 53755.9 1603.95  10
  -1   2  -3 56034.0 1982.64   8
  -1  -2  -3 55053.7 1391.96   1
   1   2   3 53831.9 1962.86   5
   1  -2   4 57092.1 896.077   9
   1   2   4 63060.2 2467.42   5
  -1   2  -4 58687.6 1050.20   2
  -1   2  -4 65719.7 2302.55   8
  -1   2  -4 64062.8 1603.57  14
   1  -2   4 66702.0 2154.24   4
   1  -2   4 61035.0 2388.86  12
  -1   2  -4 65831.8 2119.95  10
   1  -2   4 68169.5 2561.76   5
  -1  -2  -4 65247.9 2755.19  10
   1   2   4 61296.8 2564.04  12
   1   2   4 59778.4 1014.21   2
  -1  -2  -4 71241.9 2724.96  11
   1   2   4 62661.2 1663.81  14
  -1   2  -5 77562.7 2634.61  10
  -1   2  -5 76041.8 2105.97  14
  -1   2  -5 82255.3 2785.95   8
   1   2   5 78713.2 3126.21  12
  -1  -2  -5 85266.7 3470.73  11
   1  -2   5 84563.9 3171.86   5
   1  -2   5 76282.5 2948.20  12
   1   2   5 79056.2 3067.45   5
   1  -2   5 78169.6 2355.12   4
  -1  -2  -5 81409.0 3404.67  10
   1   2   6 1982.75 664.239  12
  -1  -2  -6 2012.58 730.125  11
  -1   2  -6 1065.94 460.450   8
  -1  -2  -6 1558.55 696.834  10
   1  -2   6 1547.42 594.924   5
  -1   2  -6 242.846 384.416  11
  -1   2  -6 2020.57 567.535  10
   1   2   6 1022.74 433.763   5
   1  -2   6 1819.69 567.656  12
  -1  -2  -7 536.257 568.231  11
   1   2   7-183.688 358.190  12
   1   2   7-337.869 464.179   5
   1  -2   7-291.848 286.725  12
   1  -2   7-155.317 292.429   5
  -1  -2  -7 262.495 426.906  10
  -1  -2  -8 1013.67 643.120  10
   1  -3  -8 5455.09 1212.32  10
   1   3  -8 6092.38 1047.85  14
   1  -3  -8 6452.81 1327.50  11
  -1  -3   8 5241.39 997.761  12
  -1   3   8 6344.60 1145.28   5
   1   3  -8 5651.29 1081.31  11
  -1  -3   8 6712.64 1187.09   5
  -1   3   8 5324.11 952.295  12
  -1  -3   7 338.805 328.231  12
  -1  -3   7-266.385 312.434   5
  -1   3   7 378.997 369.622  12
   1  -3  -7 448.582 456.456  11
   1   3  -7 766.181 394.340  14
   1   3  -7 317.457 344.486  11
   1  -3  -7 672.280 488.201  10
  -1   3   7 209.829 293.539   5
   1  -3  -6 26463.0 2140.69  10
  -1   3   6 25149.3 1953.94   5
   1   3  -6 29662.0 1849.97  11
  -1  -3   6 27690.4 2011.60   5
  -1  -3   6 28255.3 1886.78  12
   1   3  -6 27294.5 1654.23  14
  -1   3   6 26932.1 1794.63  12
  -1  -3   6 28796.7 1726.98   4
   1  -3  -6 28454.6 2212.91  11
  -1   3   5 19965.5 1479.38  12
  -1   3   5 17538.1 1584.90   5
   1  -3  -5 10534.1 1454.53  11
   1  -3  -5 6296.07 1148.54  10
  -1  -3   5 22351.4 1599.58  12
  -1   3   5 17647.7 1200.53   1
  -1  -3   5 23092.1 1725.86   5
  -1   3   4 52711.3 2044.27  12
  -1  -3   4 55661.6 2339.51   5
  -1   3   4 52419.8 1555.38   4
  -1   3   4 51964.9 2266.75   5
   1   3  -4 54632.6 1656.90   2
   1  -3  -4 58178.3 2671.45  11
   1   3  -4 48008.3 801.947   9
   1  -3  -4 51417.6 2465.82  10
  -1   3   4 53870.8 1985.57   1
  -1   3   3 83467.9 2434.83   1
   1   3  -3 76635.1 1986.00   2
  -1   3   3 74911.4 2004.92   8
  -1   3   3 81733.9 2401.89   5
  -1   3   3 76545.2 1854.57   7
   1  -3  -3 75366.2 2633.34  10
  -1   3   3 74773.7 2326.63  12
   1  -3  -3 73779.1 2674.65   9
  -1  -3   3 80309.8 2027.29  10
  -1  -3   3 82636.8 2447.44   5
  -1   3   3 80766.3 2046.15   4
  -1   3   2 13055.7 837.161   6
   1   3  -2 14447.8 807.066   2
  -1   3   2 13225.2 863.118   4
  -1  -3   2 14245.6 634.053  13
  -1   3   2 12090.5 918.868   1
   1   3  -2 12719.8 981.368   8
   1  -3  -2 11833.0 920.257  10
   1  -3  -2 13057.4 882.444   4
  -1   3   2 12656.2 914.305   3
   1  -3  -2 12571.0 822.291   6
   1  -3  -2 12230.0 960.964   9
  -1  -3   2 12880.9 780.052   6
  -1   3   2 13241.7 822.424   8
  -1   3   2 12799.2 575.716   7
   1   3  -2 13330.5 845.384   6
  -1   3   1 325250. 3745.59  10
  -1   3   1 338210. 4441.85   9
   1  -3  -1 324595. 4487.05   8
  -1   3   1 330583. 2718.17   7
   1  -3  -1 332130. 4562.08   4
  -1   3   1 343762. 4473.66   4
   1   3  -1 325140. 3000.71  13
  -1   3   1 334540. 4244.64   8
  -1   3   1 320902. 4643.95   1
  -1  -3   1 328272. 4037.91   7
   1   3  -1 327575. 4185.59   8
   1  -3  -1 330053. 2793.27   7
   1  -3  -1 329130. 3213.96   6
  -1  -3   1 311859. 3988.15   8
   1  -3  -1 334775. 4291.26   3
   1  -3  -1 339153. 3915.54  10
  -1  -3   1 327534. 2959.57   6
  -1   3   1 316507. 2957.57   6
   1   3  -1 326177. 3185.26   6
  -1   3   1 322055. 3998.97   3
   1  -3  -1 313759. 4575.70   9
  -1  -3   0 199031. 2725.12   8
  -1  -3   0 193531. 2624.93   7
   1   3   0 194855. 2790.86  11
  -1   3   0 199461. 3511.01   4
   1  -3   0 197261. 3625.30   4
  -1  -3   0 204553. 2096.47   5
   1  -3   0 199555. 3601.66   8
  -1   3   0 198286. 3405.24   8
  -1   3   0 195579. 2814.45  13
   1  -3   0 199240. 2783.60   7
  -1  -3   0 204487. 2992.57   3
  -1   3   0 202366. 2066.49   5
   1  -3   0 196751. 2978.22   3
  -1   3   0 199517. 2151.82  10
  -1  -3   0 217685. 2807.99  10
  -1   3   0 197650. 3126.02   9
   1   3   0 207105. 2212.66   6
   1   3   0 208001. 2861.19   3
  -1   3   0 194125. 3426.27   1
   1   3   0 199118. 2775.05   7
   1  -3   0 196722. 2158.25   6
   1  -3   0 193912. 3205.94   9
   1  -3   1 16367.4 1118.51   4
  -1   3  -1 16889.5 1005.15   1
   1  -3   1 15963.2 757.187   5
  -1   3  -1 17287.1 1063.48   8
  -1  -3  -1 16941.8 760.817   7
   1  -3   1 17466.1 1060.87   7
   1   3   1 16742.3 779.441   7
   1   3   1 16250.3 932.886  11
   1   3   1 16123.7 957.397   3
  -1  -3  -1 17030.5 671.685   8
   1   3   1 15493.0 746.080   5
   1  -3   1 14695.3 849.612   9
  -1  -3  -1 17978.5 814.928   5
  -1  -3  -1 17080.2 965.546  10
  -1   3  -1 16757.7 761.564   5
  -1   3  -1 18133.3 861.636   9
  -1  -3  -1 17900.0 1013.69  11
   1  -3   2 829.325 259.105   5
   1  -3   2 613.035 284.685   4
   1  -3   2 390.173 166.802   9
  -1   3  -2 766.201 110.457  10
   1   3   2 843.682 219.601   7
  -1   3  -2 815.350 276.169   1
   1  -3   2 534.131 214.077  12
   1   3   2 447.630 214.295   5
   1   3   2 500.617 215.684  12
  -1   3  -2 624.766 237.678   5
  -1   3  -2 618.624 147.665   9
  -1  -3  -2 748.560 286.271  10
  -1  -3  -2 542.017 297.719  11
  -1  -3  -3 20294.7 821.876   4
   1   3   3 22652.9 1205.75   7
  -1  -3  -3 21212.7 1469.02  10
   1  -3   3 21068.1 1393.45   4
   1   3   3 35854.5 1949.60  12
   1  -3   3 22255.7 1243.66   5
  -1   3  -3 21385.4 1352.50   8
   1   3   3 21644.7 1284.05   5
   1  -3   3 34467.1 1735.37  12
  -1  -3  -3 23180.6 1549.41  11
  -1   3  -3 21543.2 849.688  10
  -1  -3  -3 21762.7 1091.84   1
   1  -3   3 20543.2 743.111   9
  -1  -3  -4 359.701 325.453  11
  -1   3  -4 137.816 259.497   8
   1  -3   4 230.137 272.917  12
   1   3   4 128.189 314.516  12
   1  -3   4 466.253 330.350   4
   1  -3   4 753.475 221.109  10
   1  -3   4 530.021 286.842   5
  -1  -3  -4 542.071 352.603  10
  -1   3  -4 459.954 203.549  10
   1   3   4 284.040 122.313   2
   1   3   4 9.76443 256.925   5
   1  -3   5 958.901 343.746   4
  -1   3  -5 982.838 437.840   8
   1  -3   5 570.899 367.791   5
   1   3   5 498.616 338.110   5
  -1   3  -5 838.694 301.767  14
   1  -3   5 875.266 469.178  12
  -1  -3  -5 800.339 484.995  11
   1   3   5 535.116 280.104  12
  -1  -3  -5 1247.31 525.202  10
  -1   3  -5 1160.02 362.437  10
   1   3   6 1944.51 647.203  12
  -1  -3  -6 3428.10 990.745  10
   1  -3   6 2007.87 653.443  12
  -1   3  -6 978.176 476.850   8
  -1   3  -6 1869.66 637.815  11
  -1  -3  -6 2083.31 762.211  11
   1  -3   6 1956.72 671.528   5
   1   3   6 577.547 404.483   5
  -1   3  -7 727.313 432.857  11
   1  -3   7 1220.50 557.691   5
  -1  -3  -7 614.160 388.144  10
   1  -3   7 437.939 478.763  12
   1   3   7 1296.36 596.108  12
  -1  -3  -7 1226.58 609.883  11
   1   3   7 777.563 505.154   5
  -1  -4   8 5211.36 1062.06   5
   1  -4  -8 7323.50 1411.13  11
  -1   4   8 4023.26 833.236  12
   1   4  -8 5688.10 1016.49  14
  -1   4   8 5911.58 1141.11   5
   1   4  -8 5167.46 1115.73  11
   1  -4  -8 5392.84 1274.16  10
  -1  -4   7 4527.30 926.504   5
   1   4  -7 5377.98 839.080  14
  -1   4   7 4787.73 875.013  12
   1  -4  -7 5650.84 1144.68  11
   1   4  -7 4752.30 868.248  11
  -1   4   7 6132.38 1028.42   5
   1  -4  -7 4657.84 1080.84  10
   1   4  -6 209.719 217.246  14
  -1  -4   6 7.97667 273.955   5
  -1   4   6 93.6043 267.273  12
  -1  -4   6-135.159 292.542   4
   1  -4  -6 130.073 276.960  11
  -1   4   6 140.376 322.710   5
   1   4  -6-147.997 210.937  11
   1  -4  -6 238.954 449.101  10
   1  -4  -5 19834.5 1935.48  10
  -1  -4   5 51508.4 2552.00   4
  -1   4   5 55591.7 2509.90  12
  -1   4   5 36976.6 2422.74   5
  -1   4   5 19734.3 1300.69   8
   1  -4  -5 35068.6 2539.10  11
  -1   4   5 51545.8 2220.69   1
  -1  -4   5 45495.6 2413.52   5
   1   4  -5 23661.6 1472.74   2
  -1   4   4 10634.0 812.512   4
   1   4  -4 12621.3 883.253   2
  -1   4   4 10761.6 1019.00  12
  -1   4   4 10968.6 819.289   8
   1  -4  -4 12304.2 1234.54  10
  -1   4   4 11905.6 1042.03   5
  -1   4   4 10145.2 959.108   1
  -1   4   4 9987.58 757.923   7
  -1  -4   4 10465.0 1039.98   5
   1   4  -4 10301.2 589.330   9
  -1   4   3 6917.60 473.722   7
   1   4  -3 5413.30 831.924   8
  -1   4   3 6530.67 719.109   5
   1  -4  -3 6387.10 686.858   4
  -1  -4   3 6773.89 544.695  13
  -1  -4   3 6305.67 701.442   5
   1   4  -3 6221.04 646.382   2
   1  -4  -3 6396.38 802.595  10
  -1   4   3 6513.17 632.774   8
  -1   4   3 6457.75 772.768   1
  -1   4   2 2513.21 399.455   8
   1  -4  -2 1847.19 543.036   9
  -1   4   2 2709.43 488.921   3
  -1   4   2 1992.07 180.273   7
   1   4  -2 2728.10 508.353   8
   1  -4  -2 2741.22 498.101  10
   1  -4  -2 2563.05 507.719   4
  -1   4   2 2687.80 501.334   1
  -1  -4   2 2610.27 371.894   6
  -1   4   2 2683.74 387.643   6
   1   4  -1 482352. 3824.43   6
   1  -4  -1 476005. 3797.26   6
  -1  -4   1 453670. 5132.25   7
   1   4  -1 463186. 5555.27   8
   1  -4  -1 488787. 6285.84   4
  -1   4   1 461396. 6004.53   1
   1  -4  -1 458565. 3305.14   7
  -1   4   1 467720. 5515.78   8
   1  -4  -1 490363. 6272.62   9
  -1   4   1 444018. 5243.90   3
   1  -4  -1 459373. 5042.36  10
  -1  -4   1 458621. 3283.32   6
  -1   4   1 460148. 3434.29   6
  -1   4   1 454074. 4693.98  10
   1   4  -1 462957. 4342.32  13
  -1  -4   0 277309. 3550.87  10
   1  -4   0 286600. 5038.19   4
   1   4   0 279501. 3926.80   8
  -1  -4   0 282435. 3822.97   8
   1  -4   0 276756. 3515.09   7
  -1   4   0 282894. 2708.99  10
  -1   4   0 270127. 3871.16  13
  -1   4   0 270739. 4405.20   8
   1   4   0 277250. 3983.39  11
   1  -4   0 271679. 2519.55   6
  -1   4   0 276687. 4561.20   1
  -1  -4   0 285348. 2451.86   5
   1   4   0 291005. 2625.56   6
  -1  -4   0 269309. 3292.97   7
  -1   4   0 282377. 2363.98   5
   1  -4   0 262325. 4326.11   9
  -1   4  -1 7549.63 777.906   1
  -1   4  -1 7477.65 645.299   9
  -1  -4  -1 8141.91 572.971   8
  -1  -4  -1 7440.30 676.191  10
   1  -4   1 7145.38 825.834   4
  -1  -4  -1 7834.58 508.597   7
  -1   4  -1 7934.72 821.432   8
  -1  -4  -1 7634.72 543.257   5
   1   4   1 7790.53 541.153   7
   1   4   1 7662.60 748.425   3
   1  -4   1 7655.03 535.318   5
  -1   4  -1 7569.99 542.542   5
   1   4   1 6785.04 507.259   5
   1  -4   1 7297.61 661.192   9
  -1   4  -2 40352.0 1297.63   9
  -1  -4  -2 35760.8 961.882   8
  -1   4  -2 37069.9 1836.60   8
  -1   4  -2 35516.9 1476.22   5
   1   4   2 37510.5 1342.80   5
   1  -4   2 36287.9 1340.02   5
  -1  -4  -2 37265.4 1778.08  10
   1   4   2 36711.5 1256.65   7
  -1  -4  -2 38900.7 1902.95  11
   1  -4   2 39756.5 2016.91   4
   1  -4   2 33598.5 1350.46   9
  -1   4  -3 45730.8 1025.12   9
   1   4   3 46481.1 1795.43   5
  -1  -4  -3 45460.3 1517.36   4
   1  -4   3 44938.4 1781.88   5
   1  -4   3 51207.7 2414.11   4
  -1   4  -3 47501.6 2183.76   8
   1  -4   3 51465.7 2244.92  12
  -1  -4  -3 49359.4 2369.99  11
   1   4   3 48571.0 2426.52  12
   1   4   3 45206.0 1608.80   7
  -1  -4  -3 47066.4 2307.67  10
  -1   4  -4 29991.6 1856.42   8
   1  -4   4 29546.6 1866.13  12
   1  -4   4 28543.8 1620.97   5
   1  -4   4 29633.8 1868.02   4
  -1  -4  -4 31004.1 2024.55  11
   1   4   4 28721.8 1994.05  12
  -1  -4  -4 26700.0 943.084   4
   1   4   4 29412.2 1671.32   5
  -1  -4  -4 30507.5 2084.47  10
  -1  -4  -5 23877.4 1982.96  10
   1   4   5 22798.0 1901.78  12
  -1   4  -5 25686.0 1830.09   8
   1  -4   5 23610.5 1706.91   4
   1  -4   5 23166.2 1677.63   5
   1   4   5 22280.8 1628.58   5
   1  -4   5 22808.6 1766.61  12
  -1  -4  -5 21878.1 1925.02  11
  -1  -4  -6 1848.76 665.089  10
  -1  -4  -6 1641.09 630.309  11
  -1   4  -6 1610.11 605.381   8
   1   4   6 1035.32 523.610  12
   1  -4   6 162.879 324.358  12
   1   4   6 962.298 501.564   5
   1  -4   6 1120.37 517.393   5
   1   4   7 1214.95 669.842  12
   1   4   7 1209.32 540.059   5
   1  -4   7 1919.49 698.774   5
  -1   4  -7 2012.92 718.923  11
  -1  -4  -7 1522.26 675.977  11
   1  -4   7 1546.17 641.514  12
  -1  -4  -7 1245.46 581.348  10
   1   5  -8 2022.21 659.096  14
  -1  -5   8 1909.84 701.625   5
  -1   5   8 1763.48 722.267   5
   1   5  -8 500.374 357.587  11
  -1   5   8 1848.78 721.414  12
   1   5  -7 81.2705 295.573  11
   1  -5  -7 1086.05 645.224  10
   1   5  -7-208.372 296.590  14
  -1   5   7 470.082 391.523  12
  -1   5   7 620.861 443.287   5
  -1  -5   7 928.287 467.405   5
   1  -5  -6 7037.18 1247.22  10
  -1   5   6 5849.89 976.578  12
   1   5  -6 10168.8 1068.19  11
  -1  -5   6 8509.02 1184.94   4
   1   5  -6 9699.95 1020.22  14
  -1  -5   6 8521.77 1094.61   5
  -1   5   6 7668.59 1065.13   5
  -1  -5   5 5874.68 1025.96   4
   1   5  -5 1321.45 537.117   2
  -1  -5   5 4522.14 945.169   5
  -1   5   5 7567.46 1069.57  12
  -1   5   5 6813.09 885.041   1
  -1   5   5 5778.62 949.657   5
   1  -5  -5 1546.38 703.841  10
  -1  -5   4 4216.65 805.450   4
   1   5  -4 4692.98 624.171   2
  -1  -5   4 3796.59 613.198   5
  -1   5   4 3398.24 608.873   5
  -1   5   4 3622.97 755.969  12
   1   5  -4 3721.56 752.606   8
  -1   5   4 3419.73 361.947   7
  -1   5   4 4697.19 749.284   1
  -1  -5   4 3499.29 450.091  10
   1  -5  -4 3604.53 753.845  10
  -1   5   4 4218.07 523.865   8
  -1   5   3 30184.2 1429.37   5
  -1   5   3 27809.5 1369.79   8
   1   5  -3 27551.0 1781.02   8
  -1   5   3 29702.7 1733.47   1
   1  -5  -3 25935.5 1603.85   4
  -1  -5   3 28082.1 1403.41   5
   1   5  -3 29963.6 1464.24   2
   1  -5  -3 28940.0 1827.90  10
  -1   5   3 27755.6 1821.04   3
   1   5  -2 3156.93 663.201   8
  -1   5   2 4239.15 455.182   5
   1  -5  -2 3367.21 591.697   4
  -1   5   2 4095.39 560.987   8
  -1  -5   2 3687.59 411.708   5
  -1  -5   2 2948.20 353.370   6
  -1   5   2 3270.06 609.461   1
   1  -5  -2 2950.83 545.710  10
  -1   5   2 3694.44 630.315   3
  -1   5   2 3664.27 410.137   6
   1   5  -1 105843. 1710.63   6
  -1   5   1 92471.8 2653.71   3
   1  -5  -1 103526. 1685.23   6
  -1  -5   1 98344.4 2497.21   7
   1   5  -1 100790. 2812.65   8
   1  -5  -1 102576. 3264.57   4
  -1   5   1 96624.4 3038.84   1
   1   5  -1 95321.5 2245.98  13
  -1   5   1 98439.1 2255.62  10
   1  -5  -1 97498.1 1531.55   7
   1  -5  -1 102501. 2549.70  10
  -1   5   1 93584.2 1398.39   6
  -1   5   1 99424.8 2776.62   8
  -1  -5   1 99350.3 2063.90  10
   1  -5  -1 106952. 3296.76   9
   1   5   0-127.427 191.405   8
   1   5   0-79.2692 89.1070   6
  -1   5   0 669.138 217.941  13
  -1   5   0 457.951 337.086   8
  -1   5   0 26.9908 53.3826   5
  -1  -5   0 29.6203 73.8068   5
   1  -5   0 120.817 139.444  10
   1  -5   0 79.8501 303.436   9
   1  -5   0 148.780 89.4449   6
  -1   5   0-28.5409 237.482   1
   1  -5   0 17.5525 127.559   7
  -1  -5   0 421.730 249.554  10
  -1  -5   0 88.8996 145.490   7
  -1   5   0-95.2642 124.732  10
   1  -5   0 16.2666 271.300   4
   1  -5   1 7696.50 974.067   4
   1   5   1 7102.25 783.684   3
  -1   5  -1 7226.46 523.893   5
   1  -5   1 6658.12 525.190   5
   1   5   1 7472.06 509.486   5
   1   5   1 7185.20 651.643   8
  -1  -5  -1 8683.84 826.604  10
  -1  -5  -1 7364.79 660.196   8
  -1   5  -1 6617.25 801.565   8
  -1  -5  -1 7273.71 487.730   7
   1  -5   1 5659.00 813.793   9
  -1  -5  -1 7033.24 529.963   5
  -1  -5  -2 4563.90 580.662   5
  -1  -5  -2 5480.53 770.264  10
  -1   5  -2 4557.57 726.751   8
  -1  -5  -2 5055.36 460.366   8
  -1   5  -2 4686.88 572.174   5
   1   5   2 5191.01 732.974   3
   1   5   2 4741.97 445.962   7
   1  -5   2 5560.94 839.963   4
   1   5   2 5475.91 527.090   5
   1  -5   2 5228.54 521.099   5
  -1  -5  -2 5696.58 679.804   4
  -1  -5  -3 4124.96 861.434  11
  -1   5  -3 3589.46 369.264   9
   1   5   3 6470.24 1198.01  12
   1  -5   3 7563.40 1114.28   4
   1  -5   3 4421.25 590.721   5
  -1   5  -3 3764.97 725.982   8
   1   5   3 3898.80 538.576   5
   1   5   3 4300.75 555.026   7
  -1  -5  -3 4969.92 977.313  10
  -1  -5  -3 3679.39 546.429   4
  -1   5  -4 5687.88 968.341   8
   1  -5   4 7220.90 1059.79   4
  -1  -5  -4 7842.27 1157.11  11
   1   5   4 6410.27 1012.21  12
   1   5   4 7335.25 820.947   5
   1  -5   4 5633.58 727.330   5
  -1  -5  -4 5462.15 946.928  10
  -1   5  -5 688.477 488.496   8
   1  -5   5 802.300 450.726   4
  -1  -5  -5 804.536 385.853  10
   1   5   5 781.485 357.430   5
   1  -5   5 573.514 366.843   5
  -1  -5  -5 1243.85 643.240  11
   1   5   5 322.511 431.069  12
  -1   5  -6-254.063 352.217   8
   1  -5   6 0.76690 308.253   5
  -1  -5  -6 840.866 579.260  11
   1   5   6 264.402 310.407   5
  -1  -5  -6 709.927 524.529  10
   1   5   6-697.915 462.869  12
   1   5   7-92.3502 415.038  12
  -1   5  -7 291.157 493.846   8
   1  -5   7 194.508 306.195   5
   1   5   7-184.635 308.717   5
   1   6  -8 3765.50 789.292  14
  -1  -6   8 3434.28 870.029   5
  -1   6   8 3954.26 1032.41   5
   1  -6  -7 970.447 680.547  10
  -1   6   7 133.850 325.908  12
   1   6  -7 1005.62 474.323  14
  -1  -6   7-261.229 263.583   5
   1   6  -7 206.312 302.105  11
  -1   6   7 229.193 353.972   5
  -1   6   6 1033.94 522.635  12
  -1  -6   6 398.977 411.193   4
  -1  -6   6 1216.82 534.095   5
  -1   6   6 493.727 407.696   5
   1  -6  -6 531.026 349.520  10
  -1  -6   5 2137.27 600.098   5
   1   6  -5 1802.52 473.057   2
  -1   6   5 1982.26 641.755  12
  -1  -6   5 2468.20 748.143   4
  -1   6   5 2213.19 670.230   3
   1  -6  -5 1223.14 610.843  10
  -1   6   5 1525.19 602.094   5
  -1  -6   4 8066.73 831.565   5
  -1   6   4 8834.49 774.026   8
   1   6  -4 8599.88 1122.41   8
  -1   6   4 8481.86 1088.27  12
  -1   6   4 7497.28 1062.65   3
   1   6  -4 9850.32 949.087   2
   1  -6  -4 8070.55 935.713   4
   1  -6  -4 9218.47 1211.38  10
  -1  -6   4 7871.33 1087.63   4
  -1   6   4 9117.22 863.908   5
  -1  -6   3 56904.4 2810.14   4
  -1   6   3 51213.0 1974.22   8
   1  -6  -3 51151.0 2448.90   4
  -1   6   3 54930.6 2506.40   1
   1   6  -3 54353.5 2605.99   8
  -1  -6   3 49969.4 1729.07   5
   1  -6  -3 54061.1 2584.87  10
  -1   6   3 59601.6 2781.27   3
  -1   6   3 52415.8 1807.93   5
  -1  -6   2 1620.41 541.457   4
  -1   6   2 967.619 214.590   6
  -1   6   2 747.989 300.464   3
   1  -6  -2 1444.70 483.195   4
   1   6  -2 1328.22 486.823   8
  -1   6   2 1349.83 387.232   8
  -1   6   2 934.426 205.584   5
  -1  -6   2 887.107 200.821   5
   1  -6  -2 944.480 363.403  10
  -1  -6   2 1105.17 203.850   6
  -1  -6   2 1182.07 272.013  10
  -1   6   2 855.188 434.869   1
  -1  -6   1 100.618 309.649   4
  -1   6   1-163.061 384.372  13
   1  -6  -1 2121.12 277.086   7
  -1   6   1 1006.66 468.494   8
  -1  -6   1 440.782 287.818   7
  -1   6   1 665.212 442.546   1
   1   6  -1-27.9269 198.318  13
  -1   6   1 98.4600 61.0097   5
   1  -6  -1 916.836 678.038   4
   1   6  -1 561.152 251.553   8
  -1  -6   1 65.7696 38.5582   5
  -1   6   1 98.9046 53.7572   5
  -1  -6   1 64.5249 43.8777   5
   1  -6  -1 1261.84 448.122  10
  -1  -6   1 135.135 169.963  10
  -1  -6   0 57965.1 2508.51   4
   1  -6   0 54611.3 1747.58   7
  -1  -6   0 58724.6 2023.45  10
  -1   6   0 59272.9 2163.56  13
   1  -6   0 55842.6 1602.68  10
   1   6   0 55586.3 2141.75   8
  -1   6   0 58781.8 1329.80  10
  -1  -6   0 52559.4 1627.90   7
   1  -6   0 59636.8 2823.22   4
  -1   6   0 54304.7 2292.47   8
  -1  -6  -1 41665.3 1946.05  10
   1  -6   1 41514.8 2407.73   4
   1   6   1 41952.4 1734.70   8
  -1   6  -1 40831.0 2155.14   8
  -1  -6  -1 38575.0 1199.68   5
  -1   6  -1 37834.2 1145.34   5
   1  -6   1 39180.7 1077.14   6
  -1  -6  -1 37501.0 1060.42   7
   1   6   1 40782.2 1082.11   6
  -1  -6  -1 41509.6 2060.13   4
   1   6   1 44828.5 2020.40   3
  -1  -6  -2 9201.17 989.450   4
   1  -6   2 8988.67 1148.53   4
  -1   6  -2 8658.20 1051.37   8
  -1  -6  -2 8176.00 713.876   8
  -1  -6  -2 7318.84 733.886   5
   1   6   2 9104.49 1006.43   3
   1   6   2 8821.72 652.953   5
   1  -6   2 8863.53 679.116   5
  -1  -6  -2 9489.64 1049.81  10
   1  -6   3 6587.88 1776.88   4
  -1   6  -3 3703.24 1100.45   8
   1   6   3 943.633 530.370   5
  -1  -6  -3 504.776 647.396   4
   1   6   3 7206.35 1721.63  12
   1   6   3 1584.50 1192.12   3
  -1  -6  -3 2006.99 1309.14  10
   1  -6   3 1354.67 501.107   5
   1  -6   4 10410.0 954.203   5
  -1  -6  -4 9597.62 1300.40  10
   1  -6   4 9776.20 1387.84   4
   1   6   4 9703.40 1292.30  12
   1   6   4 9945.55 924.077   5
  -1   6  -4 10172.4 1321.57   8
   1   6   5 33237.9 2521.28  12
  -1   6  -5 37954.0 2506.79   8
   1  -6   5 38308.4 2587.96   4
   1  -6   5 35790.4 2016.78   5
  -1  -6  -5 38192.7 2726.88  11
   1   6   5 34325.1 1941.68   5
  -1  -6  -5 35479.2 2684.44  10
  -1  -6  -6 28.7783 547.905  10
  -1   6  -6 577.266 343.838   8
   1   6   6-234.890 494.311  12
   1  -6   6 845.678 364.563   5
  -1  -6  -6 824.237 569.012  11
   1   6   6 185.183 332.122   5
   1  -6   7 991.711 524.177   5
  -1   6  -7 175.198 459.991   8
   1   6   7 825.228 506.327   5
   1   7  -7 899.837 463.920  14
  -1   7   7-604.725 508.860  12
  -1  -7   6 748.391 457.394   4
   1  -7  -6 860.994 553.408  10
  -1   7   6 551.261 435.266  12
  -1   7   6-317.933 465.419   3
   1  -7  -5 1565.91 743.648  10
  -1   7   5 3930.85 904.779   3
  -1  -7   5 3474.98 1012.59   4
   1   7  -5 2806.29 657.951   2
  -1   7   5 3100.19 847.399  12
  -1   7   4 7779.03 1203.98  12
  -1  -7   4 10424.2 1410.48   4
   1   7  -4 8613.95 1271.60   8
   1  -7  -4 10030.2 1139.17   4
   1   7  -4 10177.2 1022.44   2
   1  -7  -4 9874.45 1357.43  10
  -1   7   4 10384.3 1350.97   3
  -1  -7   3 8690.46 1230.53   4
   1   7  -3 7403.72 1052.64   8
  -1   7   3 7523.64 841.914   8
   1  -7  -3 8366.06 1078.14   4
   1  -7  -3 7586.20 1046.52  10
  -1   7   3 8357.65 1123.49   3
  -1  -7   2 33156.6 2232.93   4
   1   7  -2 34263.9 2068.53   8
   1  -7  -2 32464.9 2163.35   4
  -1  -7   2 33343.0 1278.51  10
  -1   7   2 33945.8 1982.28   3
   1  -7  -2 32055.0 1925.44  10
  -1   7   2 32804.7 1793.06   8
  -1  -7   1 26311.3 1498.39   7
  -1  -7   1 26924.3 1988.71   4
   1   7  -1 25320.6 1404.76  13
   1   7  -1 29299.2 1820.20   8
   1  -7  -1 29635.3 2114.78   4
  -1   7   1 26050.4 1657.31   8
  -1   7   1 25833.7 1686.43  13
  -1  -7   1 26287.8 1314.39  10
   1  -7  -1 25968.4 1535.60  10
   1   7   0 42778.3 2018.43   8
  -1   7   0 39791.2 2153.61   8
  -1   7   0 42262.9 1961.78  13
  -1  -7   0 39693.7 2272.99   4
  -1  -7   0 36314.7 1391.93   7
  -1  -7   0 40833.2 1830.59  10
   1  -7   0 39989.3 1457.08  10
   1  -7   0 41387.0 2565.33   4
  -1   7  -1 1639.95 509.534   8
   1   7   1 2274.49 585.055   3
   1  -7   1 1949.43 645.932   4
  -1  -7  -1 1290.97 421.415  10
  -1  -7  -1 1010.84 371.515   4
   1   7   1 1455.78 412.732   8
  -1  -7  -2 27783.1 1861.38   4
  -1   7  -2 26429.8 1946.71   8
   1  -7   2 25886.6 2169.05   4
  -1  -7  -2 27414.7 1879.92  10
   1   7   2 28325.0 1879.50   3
  -1  -7  -3 307.171 351.355  10
  -1  -7  -3 641.453 341.744   4
  -1   7  -3 530.289 503.376   8
   1   7   3 1003.93 542.545   3
   1  -7   3 1691.18 710.243   4
   1  -7   4 25036.8 2285.66   4
  -1   7  -4 23314.2 2023.27   8
   1   7   4 23373.5 2138.91  12
  -1  -7  -4 22766.6 2089.74  10
   1   7   4 23627.0 2033.51   3
   1   7   5 296.696 410.264   3
  -1   7  -5 231.954 549.782   8
   1  -7   5 1376.68 644.059   4
   1   7   5 369.022 507.880  12
  -1  -7  -5 147.213 487.049  10
  -1   7  -6 5280.04 1049.82   8
   1   7   6 5489.61 1145.92  12
  -1  -8   6 854.394 670.930   4
   1  -8  -6 138.545 342.653  10
  -1   8   6-25.2584 324.658  12
  -1   8   5 318.084 353.252   3
   1   8  -5 720.477 382.103   2
  -1   8   5 514.616 387.749  12
   1  -8  -5 481.523 537.912  10
  -1  -8   5 1169.05 668.236   4
  -1   8   4 2460.74 691.468   3
   1   8  -4 4050.73 733.482   2
   1   8  -4 3323.66 796.495   8
  -1  -8   4 3450.97 850.938   4
   1  -8  -4 3094.36 779.404   4
   1  -8  -4 3288.21 745.567  10
  -1  -8   3 18629.2 1848.88   4
   1   8  -3 18234.2 1797.55   8
  -1   8   3 18029.8 1372.60   8
   1  -8  -3 18987.2 1806.96   4
   1  -8  -3 18405.5 1695.77  10
  -1   8   3 22042.2 1841.21   3
  -1   8   2 124.878 218.733   8
  -1  -8   2-14.9812 384.465   4
   1  -8  -2 30.2099 350.817  10
   1   8  -2-153.805 231.716   8
   1  -8  -2 356.208 431.475   4
  -1  -8   2 269.561 241.905   7
  -1  -8   1 1777.17 647.185   4
   1   8  -1 1717.98 470.492  13
   1   8  -1 1230.08 450.672   8
  -1   8   1 1091.10 350.168   8
   1  -8  -1 2610.24 715.069   4
  -1   8   1 1021.25 371.295  13
  -1  -8   1 1653.54 446.541   7
  -1  -8   1 1972.78 409.538  10
   1  -8  -1 1411.81 381.538  10
  -1  -8   0 17097.0 1619.95   4
  -1   8   0 16853.7 1363.49  13
   1  -8   0 18175.0 1857.95   4
   1   8   0 17545.9 1417.62   8
  -1   8   0 15347.2 1447.63   8
   1   8   0 15417.7 1293.29  13
  -1  -8   0 16094.5 1241.90  10
  -1  -8  -1 18244.0 1703.76   4
   1  -8   1 18498.3 1872.54   4
   1   8   1 17080.7 1341.63   8
  -1   8  -1 19303.6 1683.62   8
  -1  -8  -1 18721.3 1499.89  10
   1   8   2 2776.99 696.473   3
  -1   8  -2 2591.55 694.621   8
  -1  -8  -2 2181.27 672.011   4
   1  -8   2 1911.23 740.144   4
  -1  -8  -2 2448.14 686.946  10
  -1  -8  -3 1442.13 635.835   4
   1   8   3 3609.93 879.869   3
  -1   8  -3 4017.36 1045.71   8
   1  -8   3 5983.97 1305.18   4
  -1  -8  -3 3078.88 1151.46  10
  -1   8  -4 3156.30 797.114   8
   1  -8   4 3112.32 922.223   4
   1   8   4 3637.80 882.731   3
   1   8   4 2781.32 826.789  12
  -1  -8  -4 3736.82 950.619  10
  -1  -8  -5 13454.6 1839.29  10
   1   8   5 13392.8 1783.80  12
  -1   8  -5 15505.3 1793.73   8
   1  -8   5 13346.2 1879.81   4
   1   8   5 13684.3 1754.98   3
   1  -8   6 209.966 470.400   4
  -1   9   6 2184.39 789.777  12
   1  -9  -5 688.035 663.164  10
  -1   9   5 802.976 636.940  12
  -1  -9   5 715.486 786.116   4
   1   9  -5 1335.17 569.597   2
   1   9  -4 8.84080 253.744   2
  -1  -9   4 697.784 641.949   4
   1   9  -4 82.9135 400.078   8
  -1   9   4 210.043 518.813   3
   1  -9  -4 487.575 438.009  10
  -1  -9   3 1094.15 654.148   4
  -1   9   3 857.303 529.060   3
   1   9  -3 1294.23 619.331   8
   1  -9  -3 500.947 287.563  10
   1  -9  -3 1029.28 518.047   4
   1   9  -2 504.492 432.999   8
  -1   9   2 128.156 241.966   8
  -1  -9   2 153.447 340.246   4
   1  -9  -2 179.454 456.748   4
  -1   9   2 69.5264 349.967  13
   1  -9  -2 140.051 270.535  10
  -1  -9   1 9899.99 1424.30   4
   1   9  -1 10766.7 1295.31   8
   1  -9  -1 10659.2 1477.93   4
  -1   9   1 9209.44 1139.78   8
  -1   9   1 8153.14 1070.68  13
   1   9  -1 9031.15 968.879  13
  -1  -9   0 503.817 492.267   4
   1   9   0 625.686 347.005  13
   1   9   0 215.982 275.486   8
  -1   9   0 758.667 430.905   8
   1  -9   0 557.716 511.920   4
  -1   9   0 310.078 342.939  13
  -1  -9   0 45.9800 276.418  10
   1   9   1 420.422 333.483   8
   1  -9   1 311.370 379.681   4
  -1  -9  -1 498.584 507.933   4
  -1   9  -1 935.911 486.704   8
  -1  -9  -1 480.794 314.180  10
   1  -9   2 9.54473 389.478   4
  -1   9  -2 63.2253 320.131   8
  -1  -9  -2-155.808 369.507   4
  -1  -9  -2 158.945 329.828  10
  -1  -9  -3 22.3276 390.844  10
   1   9   3 551.158 422.656   3
  -1   9  -3 1054.73 618.523   8
   1  -9   3 698.905 783.727   4
  -1  -9  -4 1765.86 690.654  10
   1   9   4 838.946 512.743   3
  -1   9  -4 934.262 440.641   8
   1  -9   4 2374.63 933.881   4
   1   9   4 1682.88 789.530  12
   1  -9   5-11.0179 479.256   4
   1  10  -4 974.213 449.876   2
   1 -10  -4 602.989 422.603  10
  -1 -10   3-577.638 514.203   4
   1  10  -3 214.767 338.452   8
   1 -10  -3-57.5646 339.675   4
  -1  10   2-378.945 362.220  13
   1  10  -2 346.251 526.222   8
  -1 -10   2 701.080 584.818   4
   1  10  -1 9578.63 1040.94  13
  -1  10   1 10700.2 1286.62  13
   1  10  -1 10051.6 1361.45   8
  -1  10   1 10265.1 1279.74   8
   1 -10  -1 10367.8 1628.21   4
  -1 -10   1 10915.0 1583.48   4
   1 -10   0 4082.12 1085.37   4
   1  10   0 3904.32 817.129  13
  -1  10   0 4284.25 841.169  13
   1  10   0 3924.41 822.638   8
  -1  10   0 5266.05 971.121   8
  -1 -10   0 4962.55 1099.65   4
  -1  10  -1 1359.51 619.352   8
  -1 -10  -1 540.897 443.700   4
   1 -10   1 1711.83 780.406   4
  -1  10  -2 441.204 487.867   8
  -1 -10  -2 196.896 383.282   4
   1 -10   2 674.078 782.688   4
  -1 -10  -2 512.652 441.859  10
   1  10   3 3283.95 864.818   3
  -1 -10  -3 2585.34 746.931  10
   1 -11  -3-224.991 504.929   4
   1  11  -2 2330.62 724.900   8
   1 -11  -2 2800.60 952.072   4
   1 -11  -1 3531.83 1082.01   4
   1  11  -1 3315.62 832.352   8
  -1  11   1 3235.39 831.478   8
   1  11  -1 3710.55 727.149  13
  -1  11   0 350.072 316.760   8
   1  11   0 1188.84 481.179  13
  -1  11   0 2035.65 650.661  13
  -1 -11   0 1759.19 733.014   4
  -1  11  -1 244.652 314.507   8
   1  11   1-974.347 595.731  13
  -1 -11  -1-245.762 529.225   4
  -1 -11  -2 1348.33 590.377   4
   2   0  -9 667.526 499.905  11
   2   0  -9 389.485 301.737  14
   2   0  -8 2965.57 744.889  14
  -2   0   8 2689.15 610.314  12
  -2   0   8 2612.15 737.494   5
   2   0  -8 3137.75 784.558  11
  -2   0   7 3634.63 638.609  12
   2   0  -7 2934.85 673.185  14
  -2   0   7 3521.23 806.379   5
   2   0  -7 2659.71 740.911  11
  -2   0   6 35315.8 2664.47   5
   2   0  -6 20001.1 1742.78  11
  -2   0   6 31440.2 1721.70  12
   2   0  -5 34700.4 1889.57  14
  -2   0   5 35187.2 2109.11   5
   2   0  -5 38966.4 1978.40  11
  -2   0   5 34946.3 1478.34  12
   2   0  -5 35976.1 1576.05   9
   2   0  -4 1140.67 309.527  14
  -2   0   4 1482.29 273.663   9
   2   0  -4 1177.17 430.307   6
  -2   0   4 1214.13 250.155  12
   2   0  -4 831.993 320.353  11
   2   0  -4 1420.88 264.804  12
   2   0  -4 1232.54 303.873   9
   2   0  -3 97875.5 2815.69   6
   2   0  -3 99286.7 2222.50   9
  -2   0   3 104317. 1940.88   9
   2   0  -3 99014.9 2498.43  14
  -2   0   3 107055. 2187.88  11
  -2   0   3 99772.8 2787.92   7
   2   0  -3 100520. 2424.96  11
   2   0  -3 102080. 1668.96  12
  -2   0   3 102800. 1653.90  12
  -2   0   2 24792.7 921.490   9
   2   0  -2 23975.3 1070.75  14
  -2   0   2 23696.6 902.537  14
  -2   0   2 24680.2 1300.10   7
   2   0  -2 25587.9 1011.83   9
  -2   0   2 26246.1 970.508  11
   2   0  -2 22633.2 1287.30   6
   2   0  -2 25650.7 1368.39   7
  -2   0   2 25978.0 1230.35   6
   2   0  -1 11028.5 637.305   9
   2   0  -1 9937.50 582.299  14
  -2   0   1 11650.1 535.292  14
   2   0  -1 10073.1 403.549  12
  -2   0   1 10347.5 781.364   7
   2   0  -1 10576.9 446.784  13
   2   0  -1 9673.93 791.268   7
  -2   0   1 11411.8 727.448   6
   2   0  -1 9937.58 769.568   6
   2   0   0 356809. 2826.94  14
   2   0   0 361603. 4762.25   7
  -2   0   0 347272. 4072.49   5
  -2   0   0 358399. 4600.38   7
  -2   0   0 359552. 3704.98  12
   2   0   0 346452. 3396.82  12
   2   0   0 358544. 4149.18   6
  -2   0   0 360469. 2210.54  14
   2   0   1 294499. 4071.45   5
  -2   0  -1 278714. 4463.15   7
  -2   0  -1 277006. 3815.55   8
   2   0   1 278415. 3788.31  12
  -2   0  -1 288969. 4103.96  12
  -2   0  -2 541910. 5292.49   8
  -2   0  -2 549616. 5447.16   4
   2   0   2 530032. 6143.65  12
  -2   0  -2 544224. 6916.99   7
  -2   0  -2 537457. 5371.73  10
  -2   0  -2 543723. 3874.94   2
  -2   0  -3 4624.35 518.966   4
  -2   0  -3 4711.61 516.503   8
   2   0   3 4205.43 665.855  12
  -2   0  -3 5069.66 685.441  11
  -2   0  -3 4535.31 624.030  10
   2   0   3 3666.75 611.076   5
  -2   0  -3 3579.08 265.967   2
   2   0   4 1639.40 467.779   5
  -2   0  -4 1629.08 365.393   8
  -2   0  -4 1393.94 466.190  11
  -2   0  -4 1154.90 412.222  10
   2   0   4 1398.68 391.010  12
   2   0   5 10627.8 1197.21   5
   2   0   5 8291.35 1053.65  12
  -2   0  -5 10014.8 1231.09  11
  -2   0  -5 10013.1 1164.13  10
   2   0   6 6243.17 1037.66   5
  -2   0  -6 4791.14 1023.80  11
  -2   0  -6 6713.20 1079.36  10
   2   0   6 5247.33 952.667  12
   2   0   7 2558.47 765.223  12
   2   0   7 2990.10 808.802   5
  -2   0  -7 2212.00 673.756  10
  -2   0  -7 1810.00 730.920  11
   2  -1  -9 3982.04 1086.61  11
   2   1  -9 2942.82 880.187  14
   2  -1  -9 2819.14 873.270  14
   2   1  -9 3263.89 918.327  11
   2   1  -8 768.300 490.803  14
   2  -1  -8 197.475 320.668  14
  -2  -1   8 1040.67 506.333  12
   2  -1  -8 417.623 394.844  11
  -2   1   8 44.4020 367.890   5
  -2  -1   8 242.134 427.814   5
   2   1  -8 286.699 404.166  11
  -2   1   8 818.899 368.024  12
   2  -1  -7 3679.98 864.158  11
   2   1  -7 2228.49 601.283  14
   2  -1  -7 2508.92 717.169  14
  -2  -1   7 3013.82 814.821   5
   2   1  -7 1459.79 538.966  11
  -2  -1   7 2758.37 603.711  12
  -2   1   7 2946.30 779.671   5
  -2   1   7 2385.53 539.984  12
   2   1  -6 14722.8 1283.47  11
  -2   1   6 15053.4 1565.76   5
   2  -1  -6 14339.8 1378.32  14
   2  -1  -6 14034.5 1236.67   9
  -2  -1   6 12994.4 1167.26  12
  -2   1   6 15369.2 1113.01  12
   2  -1  -6 12667.1 1487.29  11
   2   1  -6 15881.2 944.933   9
  -2  -1   6 13532.0 1502.15   5
   2   1  -6 15217.9 1376.75  14
   2   1  -5 17181.1 973.846   9
   2   1  -5 17529.6 1310.15  14
   2  -1  -5 17442.8 1390.94  14
  -2  -1   5 15988.3 1087.53  12
  -2   1   5 15555.9 1400.64   5
  -2  -1   5 15270.8 1371.07   5
  -2   1   5 21332.8 1126.91  12
   2   1  -5 15707.9 1225.80  11
   2  -1  -5 16124.1 1432.66  11
   2  -1  -5 17213.3 1216.84   9
   2  -1  -4 14428.3 1332.02   6
   2   1  -4 11096.4 741.681   9
   2   1  -4 11711.8 811.564  12
   2  -1  -4 13191.3 1116.17  11
   2   1  -4 10105.0 871.310  14
  -2   1   4 9040.10 984.739   7
  -2   1   4 11745.0 695.173  12
  -2  -1   4 10285.6 795.305  12
   2  -1  -4 12790.6 1017.15   9
   2  -1  -4 11556.5 809.691  12
   2   1  -4 11655.4 871.101  11
   2  -1  -4 11668.3 1034.06  14
   2   1  -4 11492.3 1110.22   6
   2  -1  -3 4417.86 554.436   9
   2   1  -3 4369.64 414.825   9
   2   1  -3 4891.38 413.094  12
  -2  -1   3 3721.05 592.124   7
   2  -1  -3 4594.94 587.928  14
   2   1  -3 4881.24 508.591  14
   2  -1  -3 4008.31 599.366   6
   2   1  -3 4475.88 462.792  11
  -2  -1   3 4726.78 356.007  11
  -2   1   3 4617.24 319.730  12
  -2   1   3 4857.40 620.289   7
  -2   1   3 3975.58 534.028  11
   2   1  -3 3285.67 551.916   6
   2  -1  -2-80.3677 173.240   9
  -2  -1   2 356.135 189.854   6
  -2   1   2 287.805 209.234   6
  -2   1   2 221.174 142.938   9
   2   1  -2 632.377 192.993   9
   2   1  -2 119.986 169.627   6
   2  -1  -2 631.556 316.249   6
   2   1  -2 539.361 194.602  14
  -2   1   2 170.580 159.845  11
   2  -1  -2 53.0375 167.394   7
  -2  -1   2 384.095 137.070   2
  -2  -1   2 204.036 63.5673  11
  -2   1   2 220.567 199.114   7
  -2  -1   2 43.2764 232.758   7
   2  -1  -2 173.785 145.461  14
   2  -1  -1 41908.9 1371.23   9
  -2  -1   1 45093.6 1285.46   2
  -2  -1   1 41861.0 1592.74   7
  -2   1   1 45408.6 1322.40  14
   2   1  -1 39910.5 1672.02   7
   2   1  -1 45052.9 1504.07   6
   2   1  -1 42288.9 1041.96  14
   2  -1  -1 40370.0 1202.07  13
   2  -1  -1 38718.8 1341.65  14
  -2   1   1 42895.0 760.462  12
  -2   1   1 39935.2 1549.06   7
   2  -1  -1 43748.6 1584.65   7
  -2   1   1 45966.9 1054.87  13
  -2  -1   1 45040.3 1429.93   6
  -2   1   1 43322.4 1426.70   6
  -2   1   1 43878.5 1269.61   9
   2  -1  -1 43974.8 1483.21   6
   2  -1   0 123737. 2171.89   9
  -2  -1   0 136441. 2143.26   2
  -2   1   0 127685. 2012.19  14
  -2   1   0 125094. 2783.23   7
  -2   1   0 123072. 2811.26   8
   2   1   0 131137. 1420.94  14
  -2   1   0 133829. 2115.83  12
   2  -1   0 127829. 1966.20  12
   2  -1   0 126931. 2826.11   7
   2   1   0 131149. 2487.59  12
  -2  -1   0 126539. 2744.60   7
   2   1   0 128166. 2855.00   7
  -2  -1   0 127728. 2399.21   5
   2  -1   0 127856. 2491.49   6
   2   1   0 131045. 2472.10   6
  -2   1   0 129395. 2435.05   5
   2  -1   1 11521.5 656.925   9
  -2   1  -1 11725.9 823.056  12
   2   1   1 11307.1 807.056   5
  -2   1  -1 11890.3 862.964   8
  -2   1  -1 12014.8 866.039   4
   2  -1   1 11133.1 728.891  12
  -2   1  -1 12482.8 973.086   7
  -2  -1  -1 11897.7 908.854   7
  -2  -1  -1 13156.3 652.894   2
  -2   1  -1 11201.5 489.671  14
   2   1   1 13056.8 933.275  12
   2  -1   1 11453.6 850.562   5
  -2  -1  -1 12602.6 698.590  11
   2  -1   2 144802. 3141.21   5
   2  -1   2 154221. 2291.38   9
  -2   1  -2 139891. 2992.75   4
  -2   1  -2 139523. 3001.03   8
  -2  -1  -2 140735. 2358.48   8
  -2  -1  -2 139146. 3428.37   7
   2  -1   2 148867. 3264.29  12
   2   1   2 152488. 3563.46  12
  -2  -1  -2 138135. 2075.20   2
  -2  -1  -2 150713. 2958.05  11
  -2  -1  -2 139620. 2964.62  10
   2   1   2 144001. 3148.06   5
  -2   1  -2 137351. 2537.81  10
   2  -1   3 10527.1 617.973   9
  -2   1  -3 8763.04 768.086   4
  -2  -1  -3 10355.1 987.820  10
  -2  -1  -3 9687.97 603.309   8
  -2   1  -3 10352.8 857.821   8
  -2  -1  -3 9360.23 657.757   4
  -2   1  -3 9648.40 847.095  10
  -2   1  -3 8749.48 398.792  14
   2   1   3 9375.58 1058.09  12
   2  -1   3 9912.43 953.270   5
   2   1   3 9677.30 912.651   5
   2  -1   3 9228.59 904.615  12
  -2  -1  -3 9862.04 896.978  11
   2  -1   4 42998.0 1255.01   9
  -2   1  -4 43675.2 1177.03  14
  -2  -1  -4 47127.0 2274.22  11
  -2  -1  -4 43776.0 1306.36   8
  -2   1  -4 42863.6 1812.32   8
   2   1   4 44910.7 2160.42   5
   2  -1   4 45232.3 2188.76   5
  -2   1  -4 46279.3 2149.36  11
   2   1   4 44516.8 2312.21  12
  -2   1  -4 39634.9 1969.30  10
  -2  -1  -4 44406.0 2265.70  10
   2  -1   4 41331.2 2141.89  12
  -2   1  -5 2808.88 531.663   8
   2  -1   5 2390.42 574.643  12
  -2   1  -5 2337.90 640.030  11
  -2  -1  -5 1969.02 559.607  11
   2   1   5 1852.14 623.857  12
   2   1   5 2537.09 644.380   5
   2  -1   5 1903.95 562.629   5
  -2   1  -5 1953.00 597.921  10
  -2  -1  -5 2593.61 723.280  10
  -2   1  -6 921.331 479.843  11
   2   1   6 1023.06 448.557  12
   2  -1   6 2100.79 676.309   5
   2  -1   6 1787.40 512.237  12
   2   1   6 1714.84 564.273   5
  -2  -1  -6 1841.53 646.338  10
  -2  -1  -6 1997.45 618.464  11
  -2   1  -6 2241.01 603.613  10
  -2   1  -7 2484.20 872.320  11
   2  -1   7 3772.84 938.388  12
   2   1   7 5198.89 1053.03   5
  -2  -1  -7 5738.24 1263.51  11
  -2  -1  -7 6147.48 1127.64  10
   2  -1   7 5910.30 1102.59   5
   2   1   7 4847.34 1025.13  12
   2  -2  -9 1252.60 608.210  14
   2   2  -9 308.963 358.806  14
   2   2  -9 663.940 355.864  11
   2  -2  -8 483.887 347.531  11
  -2  -2   8 91.9070 299.827  12
   2  -2  -8 83.5599 348.231  14
   2   2  -8 1137.19 530.898  14
  -2   2   8 439.908 422.192   5
  -2  -2   8-368.629 505.891   5
   2   2  -8-101.091 296.911  11
   2   2  -7 7808.67 1147.68  14
   2  -2  -7 6597.84 1110.41  14
  -2  -2   7 6972.81 1003.06  12
  -2   2   7 7715.92 927.448  12
  -2   2   7 8107.75 1193.61   5
  -2  -2   7 6553.53 1129.80   5
   2   2  -7 7882.34 1084.30  11
   2  -2  -7 7998.12 1268.67  11
  -2  -2   6 19728.0 2004.63   5
   2  -2  -6 10760.3 1302.43  14
  -2   2   6 18546.0 1947.16   5
  -2  -2   6 20767.4 1498.74  12
  -2   2   6 16649.9 1228.02  12
   2  -2  -6 18469.6 1768.59  11
   2   2  -6 12618.1 1324.04  11
   2   2  -6 14133.2 1325.39  14
   2  -2  -6 9281.71 1193.87   9
   2   2  -5 6259.71 532.994   9
  -2  -2   5 4005.75 688.544   5
   2   2  -5 5577.62 736.174  14
   2  -2  -5 6621.97 948.361  14
   2   2  -5 5917.61 716.169  11
  -2   2   5 5796.72 642.813  12
  -2   2   5 5057.81 854.950   5
  -2   2   5 4328.66 739.730   7
   2  -2  -5 4328.75 806.353  11
   2  -2  -5 6257.81 826.210   9
   2   2  -4 60059.7 1838.21  11
   2  -2  -4 54749.3 2509.67   6
   2   2  -4 53337.1 2481.40   6
   2  -2  -4 52667.1 2319.96  14
   2  -2  -4 62513.5 2373.94   9
  -2   2   4 56419.9 2183.87   7
   2   2  -4 59387.2 2023.70  14
  -2   2   4 55788.3 1649.59  12
   2   2  -4 54554.7 1466.28   9
   2  -2  -3 31183.9 1560.19   9
   2   2  -3 31009.1 1597.81   6
   2   2  -3 33955.2 1100.94   9
   2   2  -3 32531.8 1242.46  12
   2   2  -3 31080.3 1323.64   2
   2   2  -3 31940.5 1276.04  14
   2  -2  -3 31030.4 1625.93  14
  -2   2   3 30815.4 1463.97   7
  -2   2   3 30056.5 1006.79  12
   2   2  -3 34110.2 1070.33  11
   2  -2  -3 30480.0 1592.46   6
  -2  -2   3 29379.5 1692.86   7
   2  -2  -2 185059. 3529.05   9
   2  -2  -2 192616. 3320.25   7
   2  -2  -2 173338. 3512.49  14
   2   2  -2 169364. 2889.98   2
  -2  -2   2 171848. 3735.59   7
  -2   2   2 194459. 3290.26   7
  -2  -2   2 186311. 3247.64   6
  -2   2   2 183886. 2973.91   3
  -2   2   2 175886. 3165.72   6
   2   2  -2 178845. 3431.34   6
   2  -2  -2 170861. 3459.59   6
   2  -2  -1 760.007 184.598   3
  -2  -2   1 788.869 215.094   6
  -2   2   1 699.695 229.113   6
   2   2  -1 1100.36 235.955   2
   2  -2  -1 880.820 263.692   9
  -2  -2   1 723.687 127.830   3
  -2   2   1 642.014 203.696  13
  -2   2   1 662.898 135.762  12
  -2   2   1 493.546 195.415  14
  -2   2   1 70.7574 239.989   8
   2   2  -1 574.770 205.390   6
   2  -2  -1 325.721 189.924   6
  -2   2   1 729.109 237.883   7
   2  -2  -1 649.572 254.554   7
   2   2  -1 781.906 262.080   7
  -2  -2   1 848.956 268.672   7
   2  -2   0 10447.6 657.666  12
   2  -2   0 10388.0 745.599   9
   2   2   0 10747.5 837.891   7
  -2   2   0 10687.2 753.406  14
  -2   2   0 10565.0 666.333   9
   2   2   0 12020.2 699.957   2
  -2   2   0 11418.5 907.232   8
  -2   2   0 10750.1 825.971   7
   2  -2   0 10156.1 842.193   7
  -2  -2   0 10748.9 809.959   7
  -2   2   0 10047.2 720.548   5
  -2   2   0 11389.6 652.127  12
   2   2   0 11572.1 584.915   3
  -2  -2   0 12115.6 707.307   2
  -2  -2   0 11330.9 577.980  11
  -2  -2   0 10315.9 719.000   5
   2   2   0 10961.7 743.057   6
   2  -2   0 11554.9 776.963   6
   2  -2   1 92462.2 2320.53   5
   2  -2   1 87521.2 1992.36   9
  -2   2  -1 93257.0 2616.22   8
  -2  -2  -1 96882.5 2325.78  10
   2   2   1 91398.3 1923.93   2
   2   2   1 92944.5 2687.00  12
  -2  -2  -1 91789.7 2459.58   7
   2  -2   1 90895.4 2230.03  12
   2   2   1 91881.7 2297.77   5
  -2   2  -1 89471.2 2685.95   7
  -2  -2  -1 93793.4 2042.10  11
  -2   2  -2 114282. 2975.84   8
  -2  -2  -2 114491. 2912.54  10
  -2  -2  -2 115077. 1862.61   8
   2   2   2 115462. 2851.15   5
   2   2   2 116666. 2112.91   2
   2   2   2 110461. 1729.49  14
   2  -2   2 112596. 2809.80   5
  -2  -2  -2 116038. 3046.28   7
   2  -2   2 132083. 3032.02  12
   2   2   2 135482. 3547.60  12
  -2  -2  -2 118331. 2795.50  11
  -2   2  -2 111606. 2106.15  10
   2  -2   2 117863. 2265.41   9
  -2   2  -3 64.6899 206.317   8
  -2  -2  -3 44.5551 53.7930   8
   2  -2   3-70.9855 157.611   9
   2   2   3-55.8157 82.5220  14
   2  -2   3-32.7800 241.796  12
  -2   2  -3 286.420 201.805  10
  -2  -2  -3-353.483 371.515  11
  -2   2  -3-143.160 152.840   1
   2   2   3 381.369 297.802  12
   2   2   3 111.101 262.104   5
   2  -2   3-11.2659 233.898   5
  -2  -2  -3 801.449 418.602  10
   2  -2   4 9268.24 601.806   9
   2  -2   4 9196.09 1054.31  12
  -2   2  -4 10067.6 978.115   8
  -2  -2  -4 10189.2 1169.45  10
   2   2   4 10171.9 1018.37   5
   2  -2   4 9025.50 1015.90   5
   2   2   4 8624.28 1123.04  12
  -2  -2  -4 10144.3 1102.90  11
  -2   2  -4 9951.32 905.987  10
  -2   2  -4 8709.12 530.525  14
   2  -2   5 7852.91 1053.51   5
  -2   2  -5 9361.72 996.429   8
   2   2   5 8657.01 1107.49   5
   2  -2   5 7512.22 1051.74  12
   2   2   5 7215.07 1024.86  12
  -2  -2  -5 9573.60 1244.32  11
  -2   2  -5 8508.98 1065.79  11
  -2   2  -5 8729.09 944.165  10
  -2  -2  -5 8889.16 1181.36  10
   2  -2   6 166.119 278.801  12
   2   2   6 621.417 455.264  12
  -2  -2  -6 367.937 345.061  11
   2   2   6 623.802 473.937   5
  -2  -2  -6 213.912 346.304  10
   2  -2   6-34.4956 324.953   5
  -2   2  -6 658.561 413.974  11
   2  -2   7 2182.81 728.278   5
   2  -2   7 1701.66 705.254  12
   2   2   7 2592.44 791.466   5
  -2  -2  -7 2392.50 861.996  11
  -2   2  -7 2373.83 730.836  11
   2   2   7 1615.79 642.371  12
  -2  -2  -7 2698.99 780.720  10
   2   3  -9 9231.57 1445.63  14
   2  -3  -8 362.999 496.084  14
   2   3  -8-111.371 268.544  14
  -2   3   8 17.9752 467.705   5
   2   3  -8 375.992 410.894  11
  -2  -3   8 66.8956 313.992   5
   2  -3  -8 67.4880 421.850  11
   2  -3  -7 3878.43 859.195  14
   2   3  -7 3774.58 748.351  14
  -2   3   7 4090.77 680.511  12
   2   3  -7 4491.07 833.055  11
  -2   3   7 3443.31 820.190   5
  -2  -3   7 3197.90 816.115   5
   2  -3  -7 3014.62 807.937  11
   2  -3  -7 4898.63 1054.36  10
  -2   3   7 2937.53 625.829   7
  -2  -3   6 985.279 483.687   5
  -2   3   6 562.200 446.763   5
   2   3  -6-4.24888 199.875  14
   2  -3  -6 348.250 326.280  14
  -2   3   6 444.064 313.420   7
  -2   3   6 1227.86 410.306  12
   2  -3  -6 1108.67 513.989  11
   2   3  -6 922.174 314.405  11
   2  -3  -6 1336.74 596.025  10
   2  -3  -5 13607.7 1370.59  14
  -2   3   5 12687.8 1248.88   5
  -2  -3   5 11886.1 1230.07   5
   2   3  -5 10204.7 950.196  14
   2   3  -5 13791.6 712.115   9
  -2   3   5 12096.5 989.425  12
   2   3  -5 14747.9 1039.84  11
   2  -3  -5 13190.0 1526.13  10
  -2   3   5 11864.8 1049.24   7
   2  -3  -5 10759.4 1368.56   9
  -2   3   4 1703.20 361.232  12
   2   3  -4 2161.72 323.405   9
   2  -3  -4 2190.48 549.549   9
   2  -3  -4 1427.71 439.363   6
   2   3  -4 2406.84 612.347   6
   2  -3  -4 1729.40 563.999  14
   2   3  -4 1848.03 335.948  11
   2  -3  -4 1260.18 509.655  10
  -2   3   4 1904.05 456.473   7
   2   3  -4 1796.84 333.611   2
   2   3  -3 154809. 3636.70   6
   2  -3  -3 151596. 3611.16   6
  -2   3   3 146782. 2729.45  12
  -2  -3   3 145358. 3852.05   7
  -2   3   3 146640. 3011.56   7
   2   3  -3 169304. 2080.89  11
   2   3  -3 161781. 3132.12   2
   2  -3  -3 151518. 3775.61   9
   2  -3  -2 9994.16 927.361   9
  -2   3   2 10844.3 949.960   8
   2   3  -2 9900.69 749.254   2
  -2   3   2 9938.44 726.579   7
   2  -3  -2 9478.79 738.556   7
  -2  -3   2 9030.05 895.831   7
  -2  -3   2 10870.5 787.944   6
  -2   3   2 8187.10 779.395   3
   2   3  -2 9254.07 802.981   6
   2  -3  -2 10014.9 831.084   6
   2  -3  -1 207714. 3925.43   9
   2   3  -1 218786. 3390.25   6
  -2   3   1 201788. 4036.03   8
  -2   3   1 216626. 3145.94   6
  -2   3   1 206496. 3335.38   7
  -2   3   1 212899. 3299.29  13
   2  -3  -1 210550. 3535.02   3
   2   3  -1 217299. 3394.71   2
  -2  -3   1 215534. 2801.86   3
   2  -3  -1 207542. 3418.84   7
   2   3  -1 190544. 1787.82  11
  -2  -3   1 202396. 3739.72   7
  -2   3   1 197617. 3101.49  10
  -2  -3   1 210027. 3039.28   6
   2  -3  -1 208821. 3270.09   6
   2  -3   0 29094.1 1375.15   9
  -2  -3   0 28500.3 1143.27   5
  -2   3   0 29542.6 1556.07   8
   2  -3   0 30366.2 1625.31   4
  -2   3   0 30400.3 1217.03  12
   2   3   0 31176.2 1260.71   2
  -2   3   0 30382.7 1156.59   5
   2   3   0 29499.6 1429.67   7
  -2   3   0 27643.9 1363.79   7
  -2  -3   0 31398.1 1102.40  11
   2   3   0 23980.6 834.819  11
  -2  -3   0 28236.2 1348.33   7
   2   3   0 29867.7 1215.48   6
   2  -3   0 29055.3 1205.59   6
   2   3   0 31347.3 1134.21   3
   2  -3   1 83020.9 2222.16   9
   2   3   1 84608.2 2204.65   5
   2   3   1 83837.3 2846.03  12
  -2   3  -1 83689.7 2705.17   8
   2  -3   1 81076.7 2726.55   4
   2  -3   1 86837.3 2365.65  12
   2   3   1 89727.9 2066.76   2
   2   3   1 84001.7 2393.79   7
   2  -3   1 82230.4 2233.22   5
  -2  -3  -1 86825.4 2375.27  10
  -2  -3  -1 81339.6 2304.58   7
  -2  -3  -1 85612.7 2206.23  11
   2  -3   2 32716.9 1332.40   9
  -2  -3  -2 33479.9 1607.39   7
   2   3   2 40501.1 2113.12  12
  -2   3  -2 32112.7 1543.46   1
  -2  -3  -2 28623.8 814.479   8
  -2   3  -2 32111.9 1761.40   8
   2  -3   2 32150.5 1750.49   4
   2  -3   2 40895.6 1834.92  12
   2   3   2 34100.8 1542.93   5
   2  -3   2 31929.7 1514.04   5
   2   3   2 37956.6 1338.46   2
  -2  -3  -2 32589.1 1609.92  11
  -2   3  -2 31168.2 1010.72  10
  -2  -3  -2 32256.1 1703.33  10
   2  -3   3 10740.1 717.570   9
  -2   3  -3 9946.92 1050.05   8
   2  -3   3 10449.2 1072.80   4
   2   3   3 10427.7 692.029  14
   2  -3   3 12081.2 1077.13  12
   2   3   3 11454.9 976.805   5
   2   3   3 11501.8 1188.04  12
  -2  -3  -3 10900.9 1066.78  11
   2   3   3 10092.5 689.599   2
  -2   3  -3 11149.8 864.982   1
  -2   3  -3 11026.5 739.310  10
  -2  -3  -3 9967.75 1063.39  10
   2  -3   3 11167.5 1016.85   5
   2  -3   4 22575.4 973.659   9
   2   3   4 23103.3 1785.32  12
   2  -3   4 25370.8 1620.74   5
  -2   3  -4 25281.6 1676.42   8
   2   3   4 25324.2 984.351   2
   2  -3   4 23648.3 1618.17   4
   2   3   4 25591.0 1651.61   5
   2  -3   4 23381.6 1675.66  12
  -2  -3  -4 24254.3 1775.98  11
  -2   3  -4 24735.1 1295.41  10
  -2  -3  -4 25159.2 1885.24  10
  -2   3  -5 4138.40 877.535   8
  -2  -3  -5 6141.66 1038.98  11
   2  -3   5 3070.46 725.996  12
   2   3   5 3178.85 773.257  12
  -2  -3  -5 5830.75 1153.85  10
   2   3   5 3678.94 733.619   5
   2  -3   5 3629.13 839.995   5
   2  -3   6 733.956 446.799  12
  -2   3  -6 1079.69 504.306   8
   2   3   6 965.503 529.509  12
  -2  -3  -6 808.294 505.957  11
  -2   3  -6 1773.78 679.168  11
   2   3   6 1915.06 618.600   5
   2  -3   6 1136.96 517.076   5
  -2  -3  -6 828.358 447.649  10
   2   3   7 819.757 548.942   5
   2  -3   7 345.117 488.895   5
  -2  -3  -7-244.346 386.482  10
   2   4  -8 1949.74 682.150  14
   2  -4  -8 3852.16 1088.10  10
  -2  -4   8 2231.97 678.860   5
  -2   4   8 2454.84 732.000   5
  -2   4   7 5116.56 1000.70   5
  -2  -4   7 4648.84 924.241   5
   2   4  -7 2857.65 633.272  14
  -2   4   7 4148.01 759.983  12
   2  -4  -7 4659.46 1107.89  10
   2   4  -7 4355.01 723.452  11
  -2   4   6 22663.0 1670.82   1
  -2  -4   6 24562.2 1982.67   5
  -2   4   6 20722.7 1516.46  12
  -2   4   6 20382.5 1428.63   7
   2   4  -6 24947.5 1565.92  11
  -2   4   6 23914.3 1954.26   5
   2  -4  -6 23138.2 2056.75  10
  -2   4   5 2679.48 591.374   1
   2  -4  -5 1924.68 715.405   9
   2   4  -5 2158.98 271.691   9
   2   4  -5 1486.85 358.835  14
  -2  -4   5 2123.97 576.676   5
  -2   4   5 1678.07 404.089  12
   2   4  -5 1692.85 433.310   2
  -2   4   5 2008.07 552.712   5
   2   4  -5 2111.98 385.028  11
   2  -4  -5 1758.53 616.195  10
  -2   4   5 1928.29 424.523   7
   2   4  -4 81403.9 3011.72   6
   2  -4  -4 80258.7 2956.76   6
  -2   4   4 74789.5 2628.89   8
   2   4  -4 84252.1 2529.98   2
  -2  -4   4 79536.9 1693.27  13
  -2   4   4 71354.5 2357.79  12
   2   4  -4 87233.9 2034.12  11
   2  -4  -4 79587.0 3268.94  10
  -2   4   4 77100.3 2294.12   7
   2  -4  -4 71956.1 3240.02   9
   2   4  -3 31665.1 1686.71   6
   2  -4  -3 29627.9 1627.81   6
  -2   4   3 28943.9 1603.74   8
  -2   4   3 28696.0 1232.39   7
   2  -4  -3 30200.3 1816.91  10
  -2   4   3 28197.1 1662.95   3
   2   4  -3 32098.2 1500.69   2
  -2  -4   3 26780.0 1723.00   7
   2  -4  -3 29434.0 1829.49   9
  -2   4   2 241236. 4632.61   8
  -2  -4   2 235074. 3590.94   6
  -2  -4   2 224174. 4520.06   7
  -2   4   2 234494. 3319.66   7
   2  -4  -2 236780. 3431.45   7
   2   4  -2 231267. 3853.47   2
  -2   4   2 230178. 3601.03   6
   2  -4  -2 229437. 4864.18   9
   2   4  -2 225268. 3904.97   6
   2  -4  -2 237589. 3970.42   6
   2   4  -1 15435.6 963.044   2
  -2   4   1 12607.6 920.026  13
  -2   4   1 12461.8 1076.60   8
   2  -4  -1 13157.2 1181.10   4
  -2   4   1 12554.3 833.836   7
   2  -4  -1 12557.0 847.066   7
  -2  -4   1 11860.4 943.261   7
   2   4  -1 12637.7 671.275  11
  -2   4   1 13001.3 847.730  10
  -2   4   1 13446.9 796.126   6
  -2  -4   1 14391.9 885.357   3
   2  -4  -1 11798.1 786.473   6
   2   4  -1 12395.2 808.992   6
   2  -4  -1 12514.4 1084.15   9
   2  -4   0 71429.8 2429.20   9
  -2   4   0 78924.3 2705.46   8
  -2   4   0 78202.5 1875.72   5
   2  -4   0 76917.6 2885.32   4
  -2   4   0 78740.4 2704.62   1
   2   4   0 79104.8 2384.40   7
  -2  -4   0 80491.2 1891.82   5
  -2  -4   0 78441.6 2269.16   7
   2   4   0 74735.3 1898.12  11
  -2   4   0 76172.6 1691.15  10
   2   4   0 83863.6 2251.80   2
  -2  -4   0 85555.8 2316.38  10
   2   4   0 84298.2 2050.41   6
   2  -4   0 76973.6 2002.70   6
   2   4   0 82347.3 2066.72   3
   2  -4   1 36138.4 1652.62   9
   2   4   1 38569.5 1641.03   7
  -2   4  -1 38363.5 1865.39   1
   2  -4   1 39662.2 1577.73   5
  -2  -4  -1 37418.9 1273.83   8
  -2   4  -1 35923.4 1905.31   8
   2  -4   1 36210.3 2029.84   4
  -2  -4  -1 39310.8 1760.62  10
  -2  -4  -1 35585.2 1512.24   7
   2   4   1 37605.6 1531.20   5
   2   4   1 39288.4 1570.08   2
   2   4   1 38282.9 1659.23   3
  -2  -4  -1 39942.6 1707.39  11
  -2   4  -1 36065.1 912.988  10
   2  -4   2 12880.5 963.209   9
  -2  -4  -2 11878.7 953.702   7
  -2  -4  -2 11329.2 573.378   8
  -2   4  -2 11829.8 1164.52   8
   2  -4   2 30414.2 1721.25  12
   2  -4   2 11798.5 1190.08   4
  -2   4  -2 11716.9 1021.71   1
   2   4   2 12323.4 948.522   5
   2  -4   2 12600.5 957.029   5
   2   4   2 31683.7 2087.06  12
  -2  -4  -2 14153.4 1207.41  11
   2   4   2 14171.9 1031.36   2
  -2   4  -2 10133.2 478.478  10
  -2  -4  -2 12110.7 1113.56  10
   2  -4   3-202.092 329.958  12
   2  -4   3-8.21888 129.931   9
   2  -4   3 88.7136 375.598   4
  -2   4  -3-56.3211 177.228   1
  -2   4  -3-469.724 303.048   8
   2   4   3 169.001 183.192   2
   2   4   3-163.188 321.159  12
  -2  -4  -3-18.8248 268.882  11
   2   4   3 433.876 297.599   5
  -2   4  -3 237.149 145.090  10
   2  -4   3 293.731 280.112   5
  -2  -4  -3 707.384 387.758  10
   2  -4   4 14413.3 1421.08  12
  -2   4  -4 15758.2 1469.04   8
   2  -4   4 16454.4 1480.66   4
   2   4   4 17945.0 966.510   2
   2   4   4 16488.7 1301.20   5
   2  -4   4 17848.8 1403.77   5
   2   4   4 16941.7 1662.03  12
  -2  -4  -4 16503.6 1520.77  11
  -2  -4  -4 16073.1 1555.45  10
   2  -4   5 6267.01 951.792   5
  -2   4  -5 6045.64 964.380   8
   2   4   5 5084.27 844.416   5
   2  -4   5 5623.76 973.506  12
   2   4   5 4885.65 963.472  12
  -2  -4  -5 5936.94 1031.39  11
   2  -4   5 5464.00 938.766   4
  -2  -4  -5 5367.71 1031.85  10
   2   4   6 502.885 457.705  12
  -2   4  -6 405.497 366.332   8
   2  -4   6 597.646 497.420  12
  -2  -4  -6 151.548 490.675  11
   2   4   6 179.061 346.891   5
   2  -4   6 503.407 382.239   5
  -2  -4  -6 399.152 409.786  10
   2   5  -8 1146.10 627.962  14
  -2   5   8 73.4739 341.131   5
  -2  -5   8 412.595 390.460   5
   2   5  -7 260.855 352.354  14
  -2  -5   7 15.3129 275.776   4
  -2   5   7 310.311 506.488   5
  -2  -5   7 30.5422 335.715   5
   2  -5  -7 844.323 548.010  10
  -2   5   6 44.8363 318.038  12
  -2   5   6 139.704 227.068   1
  -2   5   6-69.5225 396.849   5
  -2  -5   6 1164.16 500.680   5
   2   5  -6 330.370 235.863  11
   2   5  -6 301.304 225.245   2
   2   5  -6 1978.95 590.640  14
   2  -5  -6 1246.47 638.673  10
  -2   5   5 2320.86 495.985   8
  -2   5   5 3211.71 652.399   5
  -2  -5   5 3382.78 732.710   5
  -2   5   5 2796.79 565.160  12
   2   5  -5 3750.51 545.140  11
   2  -5  -5 2475.12 762.193  10
  -2   5   5 2485.38 584.752   1
   2   5  -5 2840.55 547.702   2
  -2   5   4 10515.9 1174.94   1
  -2   5   4 9672.33 991.136   8
  -2   5   4 11325.2 1089.00   5
  -2  -5   4 10250.0 1037.23   5
  -2   5   4 10413.3 729.106   7
   2   5  -4 11728.3 1034.73   2
  -2   5   4 9467.82 976.564  12
   2  -5  -4 10902.3 1245.84  10
  -2   5   4 9296.70 1112.19   3
   2  -5  -4 10078.8 1263.67   9
   2  -5  -3 14688.4 1147.15   6
   2   5  -3 16546.5 1241.14   6
   2   5  -3 17634.2 1192.10   2
  -2   5   3 13809.9 1324.52   1
  -2   5   3 14226.9 1174.29   8
  -2   5   3 14338.3 757.564   7
  -2  -5   3 14372.5 1339.55   7
   2  -5  -3 14721.1 1336.74  10
  -2   5   3 15023.8 1334.70   3
   2  -5  -3 14521.5 1437.62   9
   2   5  -2 5352.07 597.849   6
   2  -5  -2 5632.54 655.309   6
   2  -5  -2 4999.28 780.871   9
  -2   5   2 3775.35 647.674   3
  -2   5   2 6029.04 805.064   8
  -2   5   2 4761.05 765.185   1
   2   5  -2 4538.53 648.979   2
   2   5  -2 4960.74 425.388  13
  -2   5   2 5405.76 498.722   7
   2  -5  -2 4669.68 467.741   7
  -2   5   2 5014.01 561.455   6
   2  -5  -2 4592.26 824.637   4
  -2  -5   2 4510.55 684.471   7
  -2  -5   2 4855.36 507.506   6
  -2   5   1 26165.3 1715.11   1
  -2   5   1 25258.4 1587.43   8
   2  -5  -1 26228.4 1821.75   4
  -2   5   1 26005.8 1425.60  13
   2   5  -1 25766.0 1170.53   6
   2  -5  -1 25367.4 1218.10   7
  -2  -5   1 24560.0 1043.23   5
  -2   5   1 24492.3 1087.36   5
  -2  -5   1 25453.5 1442.99   7
   2   5  -1 29512.2 1468.33   2
   2   5  -1 25079.6 1182.60  11
  -2   5   1 25013.0 1235.79  10
   2  -5  -1 23466.2 1112.19   6
   2  -5  -1 24995.4 1666.58   9
  -2   5   0 271.174 264.632   1
  -2   5   0 0.83495 258.454   8
   2  -5   0 327.523 285.331   9
   2   5   0 466.629 249.654   6
   2  -5   0 137.567 198.126   6
   2   5   0 111.837 153.776  11
  -2   5   0 264.367 184.100   5
   2  -5   0-103.503 332.108   4
   2   5   0 0.38746 194.396   2
  -2  -5   0 605.577 314.104   7
  -2  -5   0 245.778 169.725   5
  -2   5   0 320.464 172.446  10
  -2  -5   0 104.248 169.109  10
   2  -5   1 2203.68 399.825   6
   2  -5   1 1960.69 468.666   9
   2   5   1 2096.62 433.485   3
  -2  -5  -1 1733.81 362.877   8
  -2   5  -1 2012.12 474.172   1
  -2   5  -1 1563.19 393.577   8
   2   5   1 1594.49 441.149   2
   2  -5   1 2033.43 641.826   4
  -2  -5  -1 1823.28 353.231   7
   2   5   1 1952.87 445.797   7
  -2   5  -1 849.346 123.167  10
   2   5   1 2235.20 405.929   6
  -2  -5  -1 1879.51 450.450  10
   2   5   2 13773.3 987.152   5
  -2   5  -2 13329.7 1327.20   8
  -2  -5  -2 12304.2 691.384   8
   2  -5   2 13532.7 1361.03   4
  -2  -5  -2 12217.2 955.790   7
   2  -5   2 14043.8 1038.85   5
   2   5   2 14430.3 1470.28  12
   2   5   2 15506.1 1062.69   2
  -2  -5  -2 13900.7 1251.87  11
  -2   5  -2 13829.2 1201.91   1
   2   5   2 12621.5 1128.54   3
  -2  -5  -2 13260.4 1241.15  10
   2  -5   2 11370.2 1000.29   9
   2  -5   3 700.653 279.330   9
   2   5   3 341.449 232.783   2
   2   5   3 539.584 290.058   5
  -2   5  -3 974.661 525.667   8
   2  -5   3 1049.83 594.454   4
  -2  -5  -3 157.331 286.714  11
   2  -5   3 811.353 368.975   5
  -2  -5  -3 225.601 306.448  10
   2   5   3 1047.06 526.910  12
  -2   5  -4 15783.4 1538.25   8
   2  -5   4 13660.2 1497.42   4
   2   5   4 17843.4 1392.78   5
   2  -5   4 16926.8 1350.19   5
   2   5   4 13782.9 1588.49  12
  -2  -5  -4 14707.9 1537.32  11
  -2  -5  -4 15769.0 1661.77  10
   2   5   4 16634.0 1070.18   2
  -2  -5  -5 395.401 558.699  10
   2  -5   5 211.167 318.189  12
  -2   5  -5 189.553 427.573   8
   2   5   5 119.786 314.533  12
   2  -5   5 463.372 338.123   4
  -2  -5  -5 578.438 479.093  11
   2   5   5 388.249 314.753   5
   2  -5   5 18.4826 347.724   5
  -2   5  -6 552.733 508.188   8
   2  -5   6 282.874 384.292  12
   2   5   6 1275.19 680.467  12
  -2  -5  -6 469.486 347.804  11
   2   5   6 262.123 273.709   5
   2  -5   6 558.175 463.746   5
  -2  -5  -6 803.077 555.067  10
  -2   6   8-127.375 376.371   5
  -2  -6   8-280.131 497.303   5
   2   6  -7 1325.14 572.034  14
  -2  -6   7 900.969 550.178   4
  -2   6   7 260.966 339.977   5
  -2  -6   7 338.910 375.040   5
   2  -6  -7 298.864 367.392  10
  -2  -6   6 4287.10 1125.08   4
  -2  -6   6 5697.01 1159.07   5
  -2   6   6 3775.37 815.437  12
  -2   6   6 4373.46 973.545   5
  -2   6   6 5143.84 1187.05   3
  -2   6   6 5206.25 964.755   1
   2  -6  -6 521.321 636.649  10
   2   6  -6 2074.59 760.834   2
  -2   6   5 3801.74 785.124   3
  -2   6   5 3454.46 748.382   1
   2   6  -5 4224.28 708.692   2
  -2   6   5 3282.54 687.728  12
  -2   6   5 3616.57 694.641   5
  -2  -6   5 4217.47 726.332   5
   2  -6  -5 3951.05 907.642  10
  -2   6   4 322.539 349.072   3
   2   6  -4 249.476 310.808   2
  -2   6   4 486.729 335.281   1
  -2   6   4-7.98413 198.598   8
  -2  -6   4 352.109 275.221   5
  -2   6   4 462.880 343.018   5
   2  -6  -4 458.106 443.685  10
  -2   6   3 11838.3 1274.84   1
  -2   6   3 11470.5 1120.15   8
   2  -6  -3 10354.0 1213.92   4
  -2  -6   3 11333.2 1220.93   7
   2   6  -3 11727.6 1081.56   2
   2  -6  -3 10262.6 1204.52  10
  -2   6   3 12976.6 1245.52   3
   2  -6  -3 12040.1 1470.79   9
  -2  -6   2 77.0108 168.675   6
   2  -6  -2-238.205 284.077   9
  -2   6   2 362.110 244.399   8
   2   6  -2 277.400 265.647   2
   2   6  -2-97.2408 171.847   6
   2  -6  -2 126.701 219.023   6
  -2   6   2 527.056 334.924   3
   2   6  -2 367.418 203.502  13
  -2   6   2-661.091 473.229  13
  -2   6   2 40.4901 313.329   1
   2  -6  -2 267.153 378.874   4
   2  -6  -2 73.3128 137.598   7
  -2  -6   2 24.6436 259.321   7
  -2  -6   1 744.147 203.961   5
  -2   6   1 529.905 379.747   8
   2  -6  -1 1081.15 469.637   9
   2   6  -1 876.418 232.647   6
   2  -6  -1 732.192 244.565   6
  -2   6   1 732.035 200.949   5
   2   6  -1 740.202 332.726   2
  -2   6   1 1081.95 371.744  13
   2  -6  -1 807.917 509.292   4
  -2   6   1 961.079 389.489   1
   2  -6  -1 829.135 246.841   7
  -2  -6   1 612.424 283.934   7
  -2  -6   1 1335.99 345.617  10
  -2   6   0 4105.41 731.934   1
   2  -6   0 2532.97 654.232   9
   2   6   0 3308.33 422.237   6
   2  -6   0 2748.50 370.593   6
  -2   6   0 3071.90 625.342   8
  -2  -6   0 3139.24 390.803   5
  -2   6   0 3557.79 621.032  13
  -2   6   0 3082.62 362.601   5
   2   6   0 2880.37 552.070   2
   2  -6   0 3194.75 755.055   4
  -2  -6   0 3089.95 488.220   7
  -2   6   0 2914.07 330.185  10
  -2  -6   0 2831.69 545.163  10
  -2   6  -1 15092.6 1396.66   8
   2  -6   1 14615.6 1574.34   4
  -2   6  -1 15007.8 1350.52   1
  -2  -6  -1 13892.8 945.298   7
   2   6   1 16403.5 1203.74   2
  -2  -6  -1 15445.1 1309.67  10
   2   6   1 15764.3 953.271   6
   2  -6   1 14926.1 979.871   6
   2   6   1 15721.0 1221.93   3
   2  -6   1 13809.3 1232.77   9
   2  -6   2 38434.7 1802.18   5
  -2   6  -2 40610.3 2388.06   8
   2  -6   2 39356.1 2571.77   4
   2   6   2 40415.9 1941.83   2
  -2  -6  -2 38952.6 1602.96   7
   2   6   2 42287.3 1761.13   5
  -2  -6  -2 40859.4 2326.51  10
   2   6   2 39124.0 2171.15   3
   2  -6   2 37158.3 1920.70   9
   2   6   3 366.986 337.356   3
  -2  -6  -3 935.058 374.475   4
  -2   6  -3 404.700 416.275   8
   2   6   3 329.936 245.232   2
   2  -6   3 1469.42 642.127   4
   2   6   3 1008.45 507.543  12
  -2  -6  -3 444.481 418.318  10
   2   6   3 506.979 243.563   5
   2  -6   3 493.585 294.484   5
   2  -6   4 119.516 238.331   5
  -2   6  -4-98.5695 340.739   8
   2   6   4-55.0522 374.223  12
   2  -6   4-9.71606 319.447   4
   2   6   4 515.790 295.064   5
  -2  -6  -4-171.430 351.456  10
  -2  -6  -4-794.838 459.041  11
  -2   6  -5 4079.63 955.108   8
   2   6   5 2699.91 829.552  12
   2  -6   5 4000.05 897.330   4
  -2  -6  -5 5192.99 1094.03  11
   2   6   5 3966.54 770.306   5
   2  -6   5 2866.69 666.570   5
  -2  -6  -5 3627.64 915.158  10
  -2   6  -6 2729.82 725.965   8
  -2  -6  -6 3124.58 969.100  11
   2   6   6 2324.44 671.825   5
   2  -6   6 2889.51 705.085   5
  -2  -7   7 2870.53 872.512   4
   2   7  -7 4052.01 860.397  14
  -2   7   6-460.956 497.052   3
  -2  -7   6-233.401 407.766   4
   2  -7  -6 70.1940 433.887  10
   2   7  -6-245.884 320.560   2
  -2  -7   5 1451.12 508.385   4
  -2   7   5 1804.85 676.666   3
   2   7  -5 1994.61 577.370   2
  -2   7   5 1826.94 543.878  12
  -2   7   5 1842.75 597.898   1
   2  -7  -5 2331.96 669.090  10
  -2   7   4 8417.10 1009.26   8
   2   7  -4 9704.46 1090.48   2
   2  -7  -4 8065.44 1165.45  10
  -2   7   4 7408.58 1107.89   1
  -2   7   4 8195.90 1136.50   3
  -2   7   3 6052.92 830.797   8
   2   7  -3 7525.83 898.956   2
   2  -7  -3 5486.36 956.336   4
   2  -7  -3 7443.72 1029.78  10
  -2  -7   3 5257.79 890.344   7
  -2   7   3 7395.49 1081.73   1
  -2   7   3 7933.22 1059.47   3
  -2   7   2 350.456 310.652   8
   2   7  -2 29.8864 324.296   2
   2   7  -2 176.972 184.309  13
   2  -7  -2-384.578 331.700   4
  -2  -7   2 104.014 220.040   7
  -2   7   2-634.878 441.084  13
  -2   7   2 525.796 410.798   1
  -2  -7   2 324.693 231.467  10
   2  -7  -2 482.646 462.628   9
   2  -7  -1 2117.93 696.930   9
  -2   7   1 2287.07 631.667   8
   2   7  -1 2704.84 468.173  13
  -2   7   1 3339.18 682.552  13
   2   7  -1 2502.42 571.322   2
   2  -7  -1 2842.91 789.300   4
  -2  -7   1 2721.94 549.883   7
  -2   7   1 3108.82 698.324   1
  -2  -7   1 2648.07 532.246  10
   2  -7   0 689.725 439.358   9
  -2   7   0 248.627 298.938   8
  -2   7   0 708.909 429.103  13
  -2   7   0 373.129 322.459   1
   2  -7   0 830.601 477.927   4
  -2  -7   0 447.469 281.916   7
  -2  -7   0 1059.25 390.039  10
   2   7   0 433.863 364.916   2
   2   7   1 18619.0 1400.33   3
  -2   7  -1 15094.0 1469.62   8
   2  -7   1 17734.2 1845.14   4
   2   7   1 18878.1 1404.53   2
  -2  -7  -1 18298.6 1530.12  10
   2  -7   1 17765.0 1538.24   9
  -2   7  -2 4831.25 908.890   8
   2   7   2 4560.11 815.529   3
  -2  -7  -2 4113.63 774.418   4
   2  -7   2 2922.94 868.506   4
   2   7   2 3955.33 670.441   2
  -2  -7  -2 5113.86 915.299  10
   2   7   3 4030.49 791.753   3
   2   7   3 3477.35 650.873   2
  -2   7  -3 4329.34 899.703   8
  -2  -7  -3 4717.23 822.048   4
   2   7   3 4197.79 965.553  12
   2  -7   3 3613.60 954.409   4
  -2  -7  -3 4181.04 815.732  10
  -2   7  -4 9698.23 1344.69   8
   2   7   4 9470.21 1464.48  12
   2  -7   4 8413.15 1395.86   4
  -2  -7  -4 8682.29 1406.94  10
   2   7   4 8616.41 1238.57   3
   2   7   5 2304.04 757.945   3
  -2   7  -5 3418.97 926.792   8
   2   7   5 2266.20 714.208  12
   2  -7   5 2751.71 855.942   4
  -2  -7  -5 4258.55 1022.80  10
   2   8  -6 589.302 377.315   2
   2  -8  -6-116.880 480.195  10
   2   8  -5 1098.01 511.567   2
  -2   8   5 1543.62 623.555   3
  -2  -8   5 1472.26 711.531   4
  -2   8   5 302.573 321.662  12
   2  -8  -5-20.8397 297.934  10
  -2   8   4-139.651 296.763   3
   2   8  -4 410.631 346.504   2
  -2  -8   4 86.4371 344.740   4
  -2   8   4-153.331 244.797   1
  -2  -8   4 247.207 381.966   7
   2  -8  -4 255.246 489.002  10
  -2  -8   3 3791.71 870.607   4
  -2   8   3 4279.53 833.801   3
   2   8  -3 4127.24 756.478   2
  -2   8   3 3952.50 740.680   8
  -2   8   3 3695.94 834.060   1
   2  -8  -3 2897.37 824.579   4
  -2  -8   3 3329.33 739.889   7
   2  -8  -3 3943.59 805.705  10
   2   8  -2 283.721 302.787   2
  -2   8   2 520.627 335.275   8
  -2   8   2-311.308 336.686  13
   2   8  -2 878.328 332.354  13
  -2   8   2 119.154 332.723   1
   2  -8  -2 809.865 580.651   4
  -2  -8   2 301.711 336.402   7
  -2  -8   2 51.8042 176.332  10
  -2  -8   1 193.161 329.559   4
   2   8  -1 596.773 205.119  13
  -2   8   1 804.380 433.442  13
   2   8  -1 207.826 268.638   2
  -2   8   1 902.542 508.303   1
  -2   8   1-50.6359 274.274   8
   2  -8  -1 31.8135 322.431   4
  -2  -8   1 158.673 222.415   7
  -2  -8   1 764.482 338.075  10
  -2  -8   0 1191.30 523.193   4
  -2   8   0 1217.90 467.699   8
  -2   8   0 3014.86 654.463  13
   2   8   0 1409.51 435.232   2
   2  -8   0 970.719 657.433   4
  -2  -8   0 1980.87 552.509  10
  -2  -8  -1 6415.81 1102.74   4
   2  -8   1 8438.83 1375.65   4
  -2   8  -1 6342.32 1009.49   8
   2   8   1 7814.76 960.030   2
  -2  -8  -1 7612.05 1055.03  10
  -2  -8  -2 14570.1 1554.27   4
  -2   8  -2 12759.8 1523.49   8
   2  -8   2 14605.6 1845.32   4
   2   8   2 15406.1 1366.74   2
  -2  -8  -2 16360.1 1667.59  10
   2   8   2 14128.5 1410.20   3
   2   8   3 1457.02 595.327   3
  -2  -8  -3 750.365 449.434  10
  -2   8  -3 1841.45 656.360   8
   2   8   3 1389.78 486.944   2
   2   8   3 1399.85 498.351  12
   2  -8   3 1661.88 736.445   4
   2   8   4 642.382 493.017   3
  -2   8  -4 711.316 602.267   8
   2  -8   4 228.380 387.840   4
  -2  -8  -4 524.676 626.218  10
   2   8   4 551.363 534.341  12
   2  -8   5 2316.49 819.510   4
   2   9  -5 3974.28 784.631   2
  -2  -9   5 2410.87 757.094   4
  -2  -9   5 2041.12 789.717   7
   2  -9  -5 2686.93 815.008  10
  -2   9   4 2709.97 842.888   3
   2   9  -4 1882.65 615.168   2
  -2  -9   4 2276.08 874.851   4
  -2  -9   4 2211.68 692.565   7
   2  -9  -4 3081.66 809.213  10
  -2  -9   3 867.543 418.379   4
   2   9  -3 1101.31 478.273   2
  -2   9   3 1150.79 458.338   8
  -2   9   3 285.636 484.938  13
   2  -9  -3 1763.12 705.685   4
  -2  -9   2 345.202 420.300   4
  -2   9   2-223.817 314.355   8
   2   9  -2 263.574 384.596   2
  -2   9   2-280.298 340.072  13
   2  -9  -2-189.874 504.615   4
  -2  -9   1 5324.21 1022.85   4
  -2   9   1 5342.39 945.047   8
   2   9  -1 6198.68 826.095  13
   2  -9  -1 4791.92 1047.40   4
   2   9  -1 6875.15 981.030   2
  -2   9   1 6081.09 924.701  13
  -2  -9   0 1602.68 598.636   4
  -2   9   0 839.723 499.449   8
   2   9   0 1244.73 506.605   2
  -2  -9   0 1605.06 479.392  10
   2  -9   0 654.443 369.036   4
  -2  -9  -1 82.9256 403.234   4
   2   9   1 119.663 322.668   2
   2  -9   1-446.095 461.976   4
  -2   9  -1-207.391 277.655   8
  -2  -9  -1 76.9591 431.352  10
  -2   9  -2 654.366 426.625   8
  -2  -9  -2 764.817 618.844   4
   2   9   2 897.914 413.964   2
   2  -9   2 1782.13 779.031   4
  -2  -9  -2 1297.84 546.588  10
  -2  -9  -3 661.556 443.163  10
   2   9   3 695.810 512.729   3
  -2   9  -3 185.407 334.495   8
   2   9   3 910.275 419.387   2
   2  -9   3 792.560 631.150   4
   2   9   3 755.293 622.210  12
   2   9   4 2470.53 798.569   3
   2  -9   4 2508.36 984.615   4
   2  10  -3 606.847 459.217   2
  -2 -10   3 288.206 440.587   4
   2 -10  -3 936.144 651.694   4
  -2 -10   2 10109.6 1530.46   4
  -2  10   2 11860.6 1432.73   8
   2 -10  -2 10226.8 1668.87   4
  -2  10   2 10400.8 1330.87  13
   2  10  -2 11560.1 1398.54   2
   2 -10  -1 155.950 474.439   4
  -2  10   1-117.809 331.395   8
  -2 -10   1 638.936 545.180   4
  -2  10   1 678.726 481.521  13
   2  10  -1 734.255 428.305   2
   2 -10   0 6909.39 1359.93   4
  -2 -10   0 5320.68 1105.05   4
  -2  10   0 5543.47 1066.58   8
   2  10   0 6651.08 986.386  13
   2  10   0 7647.36 1099.51   2
  -2 -10  -1 951.586 474.221   4
  -2  10  -1 2010.34 693.684   8
   2  10   1 3106.50 694.739   2
   2 -10   1 1307.98 605.650   4
  -2 -10  -1 2121.99 686.031  10
  -2 -10  -2 152.641 386.715   4
  -2 -10  -2 504.493 616.947  10
   2  10   2 937.153 473.837   2
   2  10   3 630.000 499.494   2
  -2 -10  -3 387.796 427.533  10
  -2  11   1 6960.62 1219.70   8
  -2 -11  -1 14.1584 601.090   4
   3   0  -9 177.119 457.311  14
  -3   0   9 369.857 293.075   7
   3   0  -8 6303.51 1152.20  14
  -3   0   8 5850.86 1246.29   5
   3   0  -8 5553.66 1157.55  11
  -3   0   8 6124.95 1087.19   7
  -3   0   7 8293.31 1296.55   5
   3   0  -7 7949.08 1211.67  14
  -3   0   7 6503.70 1182.99   7
   3   0  -7 10754.8 1386.73  11
   3   0  -6 2101.63 512.691   9
   3   0  -6 2451.83 683.779   6
  -3   0   6 1782.26 405.395  12
   3   0  -6 1374.64 444.414  14
   3   0  -6 1497.87 534.204  11
  -3   0   6 2187.37 638.521   7
   3   0  -5 3222.70 538.764   9
   3   0  -5 3127.25 756.434   6
   3   0  -5 2992.46 620.041  14
   3   0  -5 3458.98 447.668  12
  -3   0   5 2608.64 737.114   7
   3   0  -4 13694.3 1289.77   6
   3   0  -4 14062.7 1053.84   9
   3   0  -4 12609.6 1094.33  14
   3   0  -4 12620.1 630.147  12
  -3   0   4 13911.0 1284.47   7
   3   0  -3 235543. 4114.06   9
   3   0  -3 227819. 4182.78  14
  -3   0   3 232515. 2430.25  13
  -3   0   3 257564. 5132.97   7
  -3   0   3 246637. 3503.52  11
   3   0  -3 252554. 5187.28   6
   3   0  -2 98145.7 2435.17   9
   3   0  -2 90616.7 2330.40  14
  -3   0   2 94338.2 2919.09   7
  -3   0   2 93680.0 1257.47   3
   3   0  -2 93028.5 2774.23   6
   3   0  -1 4510.51 535.957   9
   3   0  -1 4220.56 614.542   6
  -3   0   1 4214.25 372.384  14
   3   0  -1 4107.21 459.021  14
   3   0  -1 5057.49 404.612  13
   3   0  -1 4172.33 350.078  12
  -3   0   1 3878.35 612.854   7
   3   0   0 76208.3 2029.39   9
   3   0   0 69036.2 1570.62  14
  -3   0   0 67047.2 2516.67   7
   3   0   0 71049.7 1875.24  12
   3   0   0 69389.1 2353.80   6
  -3   0   0 72270.9 2075.19  12
   3   0   1 2572.24 564.816   5
  -3   0  -1 2424.16 894.826   7
  -3   0  -2 8614.22 838.088   8
  -3   0  -2 9741.08 1104.72   7
   3   0   2 8566.23 905.227  12
   3   0   2 9072.30 944.362   5
  -3   0  -2 7479.50 757.133  10
   3   0   3 4870.01 757.574   5
   3   0   3 2431.55 569.611  12
  -3   0  -3 5863.18 806.614  11
  -3   0  -3 2944.56 503.791   8
  -3   0  -3 2572.64 503.069  10
   3   0   4 1149.17 475.334  12
  -3   0  -4 1243.11 378.574   8
   3   0   4 2242.20 650.985   5
  -3   0  -4 2185.10 727.194  10
   3   0   5 2105.47 649.126  12
  -3   0  -5 933.855 530.869  11
   3   0   5 3304.25 766.511   5
  -3   0  -5 1736.75 601.680  10
   3   0   6 5283.08 1016.42  12
  -3   0  -6 5641.94 1140.52  11
   3   0   6 6665.49 1199.64   5
  -3   0  -6 6128.25 1031.61  10
   3   1  -9 2224.13 833.528  14
   3  -1  -9 2913.15 876.768  14
   3  -1  -9 3160.13 1078.83  11
  -3   1   9 1837.49 639.244   7
   3   1  -8 753.473 598.177  14
   3  -1  -8 247.899 514.362  14
  -3   1   8 164.473 338.186   5
  -3  -1   8 393.759 469.582   5
   3  -1  -8-84.4695 380.762  11
   3   1  -8 8.07677 293.669  11
  -3   1   8 226.815 312.738   7
  -3  -1   8 589.017 491.878   7
   3  -1  -7 416.177 333.506   9
   3   1  -7 490.111 546.477  14
  -3   1   7 379.825 372.265   5
   3  -1  -7-172.470 265.286  14
  -3  -1   7 437.792 362.068   5
   3  -1  -7-27.4571 360.264  11
   3   1  -7-298.067 330.464  11
  -3   1   7 21.6188 257.521   7
  -3  -1   7 72.9285 415.485   7
   3  -1  -6 123.524 251.748   9
   3   1  -6 34.4814 239.150   9
   3  -1  -6 233.777 361.238   6
   3   1  -6-64.5638 319.714   6
   3  -1  -6 134.343 289.310  14
   3   1  -6 197.230 288.529  14
  -3   1   6-154.130 188.460  12
   3   1  -6-24.5278 224.536  11
  -3   1   6 389.224 269.099   7
  -3  -1   6-330.378 266.799   7
   3  -1  -5 16533.7 1330.79   9
   3   1  -5 17189.6 1138.30   9
   3   1  -5 17731.2 1665.40   6
   3  -1  -5 15902.3 1591.34   6
   3   1  -5 16000.9 1356.79  14
   3  -1  -5 17099.1 1465.98  14
  -3   1   5 16149.6 847.264  12
  -3  -1   5 15597.2 1490.41   7
  -3   1   5 16035.3 1467.37   7
   3   1  -5 16463.1 1282.46  11
   3   1  -4 8625.62 1030.55   6
   3  -1  -4 7903.96 969.576   6
   3  -1  -4 7851.54 821.306   9
   3   1  -4 8143.12 783.107   9
  -3  -1   4 7258.60 993.329   7
   3   1  -4 8234.72 578.725  12
   3   1  -4 7939.02 832.389  14
   3  -1  -4 6472.33 855.073  14
  -3   1   4 6521.51 385.806  12
  -3   1   4 7507.52 985.053   7
  -3  -1   4 8611.19 559.428  11
   3  -1  -3 2724.66 518.721   9
   3   1  -3 2885.11 439.660   9
   3   1  -3 2968.50 645.137   6
   3  -1  -3 2278.97 541.941   6
   3   1  -3 2550.81 436.986  14
   3  -1  -3 2901.51 535.622  14
  -3   1   3 2505.58 323.830  13
   3   1  -3 2893.04 304.185  12
  -3  -1   3 2974.92 270.758  11
  -3   1   3 2880.76 587.686   7
  -3  -1   3 2416.90 615.530   7
   3  -1  -2 1950.05 407.320   9
   3   1  -2 1868.03 436.730   6
   3  -1  -2 1699.48 407.230   6
   3  -1  -2 1295.24 333.623  14
   3   1  -2 2075.52 396.640   9
  -3   1   2 1821.25 239.880   3
   3   1  -2 1782.81 320.876  14
  -3   1   2 1997.99 288.536  13
  -3  -1   2 1357.50 193.296  11
  -3   1   2 1489.13 398.159   7
  -3  -1   2 1266.05 453.909   7
   3  -1  -1 73553.8 2164.67   9
   3  -1  -1 68855.6 2035.08  14
  -3   1   1 77361.9 1854.56  14
   3   1  -1 73458.2 1695.07  14
   3  -1  -1 77462.9 1397.69  12
  -3   1   1 75287.6 2545.13   7
  -3  -1   1 78438.6 2653.06   7
  -3   1   1 75042.9 1522.66  12
   3   1  -1 79447.8 1944.25  12
   3   1  -1 79769.1 2468.98   6
   3  -1  -1 74685.9 2403.74   6
   3  -1  -1 81192.3 1902.85  13
   3  -1   0 13850.4 913.435   9
  -3   1   0 14869.8 883.716  12
  -3   1   0 13577.4 1121.35   8
   3   1   0 14530.6 654.566  14
  -3   1   0 14469.1 678.560  14
  -3   1   0 13548.4 1124.33   7
   3  -1   0 13794.2 788.856  12
  -3  -1   0 13961.4 1163.39   7
   3   1   0 13775.6 1051.92   6
   3  -1   0 13169.3 1042.29   6
   3   1   0 15633.8 993.203  12
   3  -1   1 56457.4 1772.61   9
  -3   1  -1 59384.8 2284.97   8
  -3   1  -1 56129.9 983.862  14
   3   1   1 48891.3 886.918  14
  -3   1  -1 57576.1 2473.56   7
  -3  -1  -1 55589.6 2378.24   7
   3  -1   1 57246.9 1906.92  12
   3   1   1 57489.0 2146.23  12
   3   1   1 61501.3 2309.90   5
  -3  -1  -1 68637.6 1803.10  11
   3  -1   1 57618.7 2289.42   5
   3  -1   2 708.121 253.261   9
  -3   1  -2 558.308 228.343   8
  -3  -1  -2 535.076 246.422   8
   3  -1   2 927.845 353.199  12
   3   1   2 503.436 380.170  12
  -3   1  -2 424.840 311.839   7
  -3  -1  -2 599.968 351.687   7
  -3  -1  -2 997.071 321.539  11
  -3  -1  -2 925.337 396.680  10
   3   1   2 977.178 430.656   5
  -3   1  -2 293.374 230.562  10
   3  -1   2 508.843 306.316   5
   3  -1   3 775.075 244.994   9
  -3  -1  -3 174.751 207.190   8
   3  -1   3 400.144 292.354  12
   3   1   3 879.541 427.836  12
  -3   1  -3 391.848 252.543   8
  -3  -1  -3 305.761 301.724  11
   3   1   3 548.964 384.724   5
   3  -1   3 607.844 336.686   5
  -3   1  -3 354.661 192.027  10
  -3  -1  -3 342.106 291.577  10
   3  -1   4 2442.23 397.087   9
  -3   1  -4 2581.47 529.857   8
   3  -1   4 2469.71 621.923  12
   3   1   4 1879.34 585.139  12
  -3  -1  -4 2301.90 595.787  11
  -3   1  -4 3058.10 672.836  11
   3   1   4 1873.84 583.342   5
   3  -1   4 1850.25 553.719   5
  -3   1  -4 2753.14 644.601  10
  -3  -1  -4 2376.46 639.890  10
   3   1   5 783.196 571.333  12
   3  -1   5 799.738 412.823  12
  -3  -1  -5-239.137 430.032  11
  -3   1  -5 749.629 500.601  11
   3   1   5 1582.45 561.843   5
   3  -1   5 248.378 371.201   5
  -3   1  -5 414.032 351.787  10
  -3  -1  -5 252.816 332.722  10
   3  -1   6 2024.66 669.553  12
   3   1   6 1619.97 640.041  12
  -3  -1  -6 1698.85 623.308  11
  -3   1  -6 1063.46 529.129  11
   3   1   6 2173.76 686.005   5
   3  -1   6 2376.47 761.179   5
  -3  -1  -6 3157.06 804.142  10
  -3  -1  -7 511.812 449.757  10
   3   2  -8 3179.95 919.858  14
   3  -2  -8 2257.53 737.388  14
  -3   2   8 2213.27 772.037   5
  -3  -2   8 1724.42 767.057   5
  -3   2   8 2125.24 576.943   7
   3  -2  -7 89.5997 250.448   9
   3  -2  -7-68.9273 294.536  14
   3   2  -7 625.463 531.163  14
  -3   2   7 228.591 365.884   5
  -3  -2   7-139.174 290.718   5
   3   2  -7 168.078 229.545  11
  -3   2   7 407.965 391.732   7
   3   2  -6 9528.06 841.091   9
   3   2  -6 10030.1 1329.41   6
   3  -2  -6 7531.68 1172.99   6
   3  -2  -6 7007.80 1109.87  14
  -3   2   6 7990.97 708.533  12
  -3   2   6 7925.10 1120.10   7
   3   2  -6 8600.54 950.852  11
   3   2  -6 8282.67 1081.32  14
  -3  -2   6 7512.80 1225.15   7
   3  -2  -6 8875.32 1121.82   9
   3  -2  -5 43019.0 2597.91   6
   3   2  -5 41590.4 2527.89   6
   3   2  -5 41934.0 2142.96  14
   3  -2  -5 40346.7 2340.23  14
  -3   2   5 42168.9 1321.33  12
  -3   2   5 39602.4 2254.57   7
  -3  -2   5 39176.2 2429.91   7
   3   2  -5 46232.4 1929.43  11
   3   2  -5 43347.5 1724.62   9
   3  -2  -5 42152.5 2199.39   9
   3  -2  -4 779.660 354.073   9
   3   2  -4 746.683 275.768   9
   3   2  -4 455.301 291.770   6
   3  -2  -4 930.520 268.624   6
   3   2  -4 362.939 205.293  14
   3  -2  -4 755.635 411.206  14
   3   2  -4 610.277 257.880  12
  -3   2   4 705.080 129.012  12
  -3   2   4 673.208 353.571   7
  -3  -2   4 750.982 441.543   7
   3   2  -4 425.361 165.935  11
   3  -2  -3 24394.4 1522.80   9
   3   2  -3 20781.4 1099.96   9
   3   2  -3 21098.8 1165.10  14
   3  -2  -3 21765.0 1479.29  14
  -3   2   3 21958.8 1144.71  13
   3   2  -3 23817.7 1080.48  12
  -3   2   3 21963.8 1508.74   7
  -3  -2   3 23224.3 1682.24   7
  -3   2   3 24328.4 1210.26   3
   3   2  -3 22337.6 1644.52   6
   3  -2  -3 22130.1 1603.64   6
   3  -2  -2 100693. 2896.45   9
   3   2  -2 100277. 2178.87  14
   3  -2  -2 93797.1 2798.01  14
  -3   2   2 101943. 2138.26  13
  -3   2   2 99109.1 2895.85   7
  -3  -2   2 91004.6 2997.45   7
   3   2  -2 98239.1 2860.38   6
   3  -2  -2 92497.8 2785.89   6
  -3   2   2 99230.3 2000.46   3
  -3  -2   2 97427.1 1308.51   3
   3  -2  -1 46626.2 1872.99   9
  -3   2   1 44143.3 1955.52   7
  -3   2   1 50723.0 1285.63  12
  -3  -2   1 46807.7 2126.91   7
  -3  -2   1 47523.9 879.553  11
   3   2  -1 48946.8 1323.44  14
   3  -2  -1 46623.9 1464.53   3
   3   2  -1 47454.5 1945.99   6
   3  -2  -1 45903.5 1902.81   6
   3  -2   0 18165.3 1117.93   9
  -3   2   0 17699.7 1335.46   8
  -3   2   0 17319.2 987.893  14
  -3   2   0 17813.7 1283.74   7
   3  -2   0 19032.9 987.415  12
  -3   2   0 19156.2 1023.25  12
  -3  -2   0 17423.8 1286.12   7
   3   2   0 19909.3 1259.86  12
  -3  -2   0 18861.9 801.217  11
   3   2   0 18785.9 737.598   3
   3   2   0 19889.7 1241.21   6
   3  -2   0 17409.2 1197.86   6
   3  -2   1 53551.8 1856.89   9
   3  -2   1 60439.0 2391.80   5
  -3   2  -1 53919.2 2331.67   8
  -3   2  -1 52044.6 1481.50  14
  -3   2  -1 55537.1 2460.40   7
   3  -2   1 55758.5 1970.43  12
   3   2   1 61817.6 2431.54  12
   3   2   1 60208.3 2338.77   5
  -3  -2  -1 54476.0 1705.91  11
  -3  -2  -1 60661.7 2101.20  10
  -3  -2  -1 56898.2 2362.98   7
   3  -2   2 1.63607 171.065   9
  -3   2  -2 53.1132 243.377   8
  -3   2  -2 227.327 113.297  14
  -3  -2  -2 316.580 198.124   8
   3  -2   2 2.49734 269.018  12
   3   2   2-604.157 424.589  12
  -3  -2  -2 467.717 313.503   7
  -3  -2  -2 268.760 217.560  11
  -3  -2  -2 334.160 250.502  10
  -3   2  -2 614.476 260.008  10
   3   2   2 736.457 408.656   5
   3  -2   2 360.941 282.083   5
   3  -2   3 27495.9 1296.63   9
  -3   2  -3 29736.9 1767.60   8
  -3  -2  -3 29478.8 1139.20   8
   3  -2   3 28466.0 1722.54  12
   3   2   3 29414.5 1822.07   5
   3  -2   3 31376.5 1864.99   5
  -3  -2  -3 30212.6 1749.77  11
  -3   2  -3 28452.9 1471.92  10
  -3  -2  -3 29014.6 1822.58  10
   3   2   3 29210.2 1936.38  12
  -3   2  -4 1449.81 733.103   8
   3  -2   4 357.357 354.262  12
   3   2   4 765.424 452.918  12
  -3  -2  -4 797.518 650.715  11
   3   2   4 796.171 450.989   5
   3  -2   4 39.6690 288.959   5
  -3   2  -4 1020.62 618.776  10
  -3  -2  -4 1372.96 501.104  10
  -3  -2  -5 688.053 505.222  10
  -3   2  -5 1397.93 480.420   8
   3  -2   5 1597.61 618.468  12
   3   2   5-90.3258 287.007  12
  -3  -2  -5 802.749 443.158  11
  -3   2  -5 1058.41 557.444  11
   3   2   5 310.142 332.031   5
   3  -2   5 739.090 481.535   5
   3   2   6 5705.21 1091.63  12
   3  -2   6 4753.02 987.969  12
  -3  -2  -6 5328.97 1164.52  11
  -3   2  -6 5331.72 1127.71  11
   3   2   6 5071.98 997.310   5
   3  -2   6 5518.02 1066.00   5
  -3  -2  -6 6164.48 1143.71  10
   3  -3  -8 5487.98 1175.08  14
  -3   3   8 5271.92 1101.59   5
  -3  -3   8 5453.23 1152.51   5
   3   3  -8 3948.30 1004.18  14
   3  -3  -7 680.177 468.170   9
   3  -3  -7 293.730 349.568  14
   3   3  -7 162.096 268.312  14
  -3   3   7 500.839 466.319   5
  -3  -3   7 270.954 371.127   5
  -3   3   7 694.354 420.238   7
  -3   3   6 16885.8 1689.08   5
  -3  -3   6 16832.8 1646.91   5
   3   3  -6 16999.5 1490.50  14
   3  -3  -6 17616.8 1758.73  14
  -3   3   6 17133.2 1505.70   7
  -3  -3   6 15785.8 1714.29   7
   3   3  -6 19969.4 1383.50  11
   3  -3  -6 19630.1 1819.65   9
   3  -3  -5 31916.4 2199.09   6
   3   3  -5 33517.0 2239.84   6
   3   3  -5 32064.6 1412.23   9
   3  -3  -5 30002.1 2103.77  14
   3   3  -5 28457.2 1716.69  14
  -3   3   5 31633.7 1269.27  12
  -3   3   5 30789.5 1868.35   7
  -3  -3   5 28973.9 2132.36   7
   3   3  -5 30666.8 1467.39  11
   3  -3  -5 31111.2 2067.80   9
   3  -3  -4 98415.5 3441.81   9
   3   3  -4 105716. 3641.78   6
   3  -3  -4 105958. 3684.19   6
   3   3  -4 102623. 2465.29   9
   3   3  -4 103056. 2878.78  14
   3  -3  -4 97259.0 3601.00  14
  -3   3   4 100537. 1914.35  12
  -3   3   4 101608. 3148.36   7
  -3  -3   4 102239. 3709.59   7
   3   3  -4 95930.0 1968.45  11
   3  -3  -3 5817.81 790.664   9
   3   3  -3 5074.93 796.881   6
   3  -3  -3 4811.02 759.751   6
  -3  -3   3 5523.47 930.074   7
   3   3  -3 4981.09 654.600   2
  -3   3   3 4962.00 603.978  13
  -3   3   3 5628.40 759.935   7
  -3   3   3 4816.32 412.816  12
  -3   3   3 4836.05 643.243   3
  -3   3   2 64979.0 1847.44   3
   3  -3  -2 59931.9 2447.16   9
  -3   3   2 59392.4 2611.87   8
   3   3  -2 65864.8 2186.50   2
  -3   3   2 59900.8 1342.08  12
  -3   3   2 61642.5 2256.82   7
  -3  -3   2 58140.3 2484.04   7
  -3   3   2 62063.1 1889.80  13
  -3  -3   2 64241.0 1441.91   3
   3   3  -2 63091.1 2336.27   6
   3  -3  -2 61425.1 2274.74   6
   3  -3  -1 13222.0 1114.32   9
  -3   3   1 13087.2 1192.00   8
   3   3  -1 14818.0 1015.33   2
  -3   3   1 12790.8 1078.04   7
  -3   3   1 13156.4 758.017  12
  -3  -3   1 14385.4 1171.03   7
   3   3  -1 14177.1 1071.79   6
   3  -3  -1 13335.3 1037.12   6
   3  -3   0 42291.6 1876.20   9
  -3   3   0 44172.9 2205.81   8
   3   3   0 47569.7 1760.56   2
  -3   3   0 45798.1 2123.49   7
   3   3   0 49490.8 2233.00  12
  -3  -3   0 44793.5 2047.98   7
  -3  -3   0 47321.5 1436.91  11
   3   3   0 44680.4 1890.32   6
   3  -3   0 46175.0 1920.46   6
   3   3   0 48572.3 1371.31   3
   3  -3   1 13816.7 1034.43   9
  -3   3  -1 13773.3 1260.50   8
   3   3   1 15334.0 997.912   2
  -3   3  -1 12895.3 961.441  14
   3  -3   1 13937.1 1095.21  12
  -3  -3  -1 14724.3 1192.96   7
   3   3   1 14074.8 1256.28  12
   3   3   1 17488.7 1293.84   5
   3  -3   1 16429.4 1241.24   5
  -3  -3  -1 14450.8 966.548  11
  -3   3  -1 16589.7 1393.81   7
  -3  -3  -1 16193.1 1189.08  10
   3  -3   2 35874.8 1617.77   9
  -3   3  -2 37689.2 2097.24   8
  -3  -3  -2 39621.2 2108.86   7
   3  -3   2 39143.0 1940.40  12
   3   3   2 37642.2 2187.59  12
   3  -3   2 41726.2 2048.67   5
  -3  -3  -2 38333.1 1822.21  11
  -3  -3  -2 39511.1 2005.21  10
  -3   3  -2 36024.8 1318.38  10
   3   3   2 40683.6 1967.74   5
   3  -3   3 510.407 247.703   9
  -3   3  -3 305.259 246.108   1
  -3   3  -3 605.600 262.622   8
   3  -3   3 108.057 236.942  12
   3   3   3 608.862 460.699  12
  -3  -3  -3 911.597 416.048  11
  -3   3  -3 426.063 216.913  10
  -3  -3  -3 90.7581 361.518  10
   3   3   3 309.087 304.783   5
   3  -3   3 723.097 309.359   5
  -3   3  -4 7977.77 1112.27   8
   3   3   4 7205.30 1023.25   5
   3  -3   4 7710.39 1052.46   5
   3  -3   4 6058.36 892.665  12
   3   3   4 6348.08 1029.88  12
  -3  -3  -4 9752.82 1214.94  11
  -3  -3  -4 7419.98 1175.39  10
  -3   3  -5 288.684 323.345   8
   3  -3   5 501.317 453.869  12
   3   3   5 66.5326 404.100  12
  -3  -3  -5 638.232 425.944  11
   3   3   5 109.003 476.923   5
   3  -3   5 12.3740 348.524   5
  -3  -3  -5 649.923 505.854  10
   3  -3   6 480.193 504.994  12
   3   3   6 980.430 550.460  12
  -3  -3  -6 1199.32 689.744  11
  -3   3  -6 999.146 648.827  11
   3   3   6-639.506 456.218   5
   3  -3   6 115.044 314.147   5
  -3  -3  -6-30.3888 301.320  10
   3   4  -8 69.0636 450.133  14
  -3   4   8 668.808 576.617   5
  -3  -4   8-272.477 602.828   5
  -3   4   7 4202.63 980.973   5
  -3  -4   7 2541.46 790.629   5
   3  -4  -6 5147.75 1036.74   9
   3   4  -6 4472.97 783.274  14
  -3   4   6 5327.88 979.766   5
  -3  -4   6 4868.04 915.197   5
  -3   4   6 4342.08 727.033   7
  -3  -4   6 6985.44 1231.96   7
   3  -4  -5 67717.7 3184.54   6
   3   4  -5 70184.5 3266.13   6
   3   4  -5 70475.6 2041.18   9
   3   4  -5 59707.1 2503.92  14
  -3   4   5 64165.3 2040.03  12
  -3   4   5 65272.8 2573.75   7
  -3  -4   5 61525.8 3190.64   7
   3  -4  -5 68341.9 3232.41   9
  -3   4   4 227.927 279.184   3
   3  -4  -4 191.765 335.531   9
   3   4  -4 864.593 504.315   6
   3  -4  -4-110.402 334.271   6
  -3   4   4 342.990 271.148   8
  -3   4   4-29.3935 153.713  12
   3   4  -4 180.047 116.281  11
  -3   4   4 216.065 222.001   7
   3   4  -4 69.2255 284.144   2
  -3  -4   4 172.099 328.018   7
   3   4  -3 6247.79 775.102   2
  -3   4   3 6300.25 888.042   8
  -3   4   3 4003.09 646.411  13
  -3   4   3 7250.27 787.392   7
  -3  -4   3 6872.39 1016.36   7
  -3   4   3 6186.37 762.060   3
   3   4  -3 6103.80 856.513   6
   3  -4  -3 6375.34 956.483   9
   3  -4  -3 5653.76 837.380   6
   3  -4  -2 29021.4 1818.49   9
  -3   4   2 27819.9 1842.81   8
   3   4  -2 33190.4 1616.20   2
   3   4  -2 27803.9 668.758  13
  -3   4   2 26852.1 1449.63  13
  -3   4   2 25066.1 1157.15  12
  -3   4   2 30407.6 1580.10   7
  -3  -4   2 28809.1 1773.24   7
  -3  -4   2 31392.6 1216.81   3
   3   4  -2 30379.9 1618.38   6
   3  -4  -2 28616.5 1572.85   6
   3  -4  -1 66551.7 2678.28   9
  -3   4   1 68697.6 2854.26   8
  -3   4   1 76038.2 2201.05  13
  -3   4   1 69156.5 2449.33   7
  -3  -4   1 68915.0 2616.25   7
   3   4  -1 73935.4 2401.00   2
   3   4  -1 76293.2 2523.58   6
   3  -4  -1 66331.3 2330.82   6
   3  -4   0 12168.8 1126.07   9
  -3  -4   0 13133.0 828.524  11
  -3   4   0 10820.4 1170.05   8
   3   4   0 13140.7 1010.02   2
  -3   4   0 10964.2 1057.32   7
  -3  -4   0 12312.1 1100.60   7
   3   4   0 12793.4 1024.70   6
   3  -4   0 11899.9 998.489   6
   3   4   0 13292.1 828.061   3
   3  -4   1 60757.1 2356.36   9
  -3   4  -1 62184.0 2780.17   8
   3   4   1 69464.6 2267.44   2
  -3  -4  -1 58819.2 2401.73   7
   3   4   1 65302.9 2991.43  12
  -3  -4  -1 64188.4 2220.31  11
   3   4   1 63313.7 2160.98   3
  -3  -4  -1 63311.5 2419.24  10
   3   4   1 65405.3 2348.63   6
   3  -4   1 61862.5 2371.41   6
   3  -4   2 1192.64 438.984   5
   3  -4   2 488.312 248.504   9
  -3   4  -2 1272.49 499.789   8
   3  -4   2 442.961 274.329  12
  -3   4  -2 599.483 257.816   1
   3   4   2 728.625 424.544  12
  -3  -4  -2 983.667 366.392   7
  -3  -4  -2 1048.27 390.798  11
   3   4   2 908.536 340.931   2
  -3  -4  -2 219.294 263.421  10
  -3   4  -2 817.869 189.235  10
   3   4   2 991.705 376.503   5
   3  -4   3 32515.5 1629.39   9
  -3   4  -3 37702.3 2267.72   8
   3   4   3 38042.4 1630.92   2
   3  -4   3 36287.4 2175.60  12
   3   4   3 35844.5 2425.26  12
   3   4   3 37881.9 2074.17   5
   3  -4   3 37785.0 2091.50   5
  -3  -4  -3 36180.7 2096.17  11
  -3  -4  -3 35617.6 2261.46  10
  -3   4  -3 36549.3 1925.20   1
  -3   4  -4 1697.14 580.394   8
   3  -4   4 312.657 345.053  12
   3   4   4 92.2021 314.328  12
  -3  -4  -4 2489.79 661.553  11
  -3  -4  -4 124.477 589.247  10
   3   4   4 783.655 528.920   5
   3  -4   4 1047.84 489.395   5
  -3   4  -5 4004.23 833.705   8
   3  -4   5 2186.70 705.152  12
   3   4   5 3031.13 820.010  12
  -3  -4  -5 3338.03 863.032  11
  -3  -4  -5 3589.71 845.664  10
   3   4   5 2588.63 699.324   5
   3  -4   5 3783.86 825.854   5
  -3  -4  -6 3534.28 951.989  11
   3   4   6 3347.32 830.592   5
   3  -4   6 3802.90 897.299   5
  -3   5   8 1378.54 529.088   5
  -3  -5   8 1087.56 554.654   5
   3   5  -7 5.55472 232.485  14
  -3   5   7 84.1815 343.597   5
  -3  -5   7 773.266 501.554   5
   3  -5  -6 2747.00 903.086   9
   3   5  -6 2777.60 682.208  14
  -3   5   6 1623.69 502.729   8
  -3   5   6 1963.90 601.699   5
  -3  -5   6 1588.05 578.220   5
  -3   5   6 1968.84 577.670   1
  -3   5   6 3341.28 778.527   3
  -3  -5   6 2513.38 748.678   7
   3  -5  -5 10135.1 1252.19   6
   3   5  -5 12443.4 1384.03   6
   3   5  -5 11969.8 853.197   9
  -3   5   5 9105.55 1129.23   8
   3   5  -5 11866.0 1169.12   2
  -3   5   5 9497.88 1207.40   1
  -3  -5   5 11340.9 1472.67   7
  -3   5   5 9335.83 1212.24   3
   3  -5  -5 11318.3 1453.47   9
   3   5  -4 39928.0 2270.41   6
   3  -5  -4 36773.6 2195.11   6
  -3   5   4 35786.7 2161.67   8
   3   5  -4 40062.6 2021.49   2
  -3   5   4 36261.5 1682.87   7
  -3   5   4 32496.4 1605.22  12
  -3  -5   4 35436.1 2343.89   7
  -3   5   4 40779.0 2277.76   3
   3  -5  -4 34135.5 2342.11   9
   3   5  -3 591.563 308.209   2
   3  -5  -3 413.061 313.516   9
  -3   5   3 596.142 351.207   3
   3   5  -3 175.990 314.321   6
   3  -5  -3-73.1047 258.593   6
  -3   5   3 166.478 252.063   8
  -3   5   3-750.933 460.611  13
  -3   5   3 119.160 226.917   7
  -3  -5   3 443.178 378.495   7
   3   5  -2 4177.87 679.601   2
   3  -5  -2 2586.70 609.636   9
   3   5  -2 4227.22 654.483   6
   3  -5  -2 3933.44 608.093   6
  -3   5   2 4044.80 753.766   8
   3   5  -2 3906.59 337.507  13
  -3   5   2 3745.44 587.225  13
  -3   5   2 3056.75 520.488   7
  -3  -5   2 3766.76 753.761   7
   3   5  -1 2581.26 505.677   2
   3  -5  -1 3186.55 625.400   9
  -3   5   1 2575.98 597.179   8
   3   5  -1 1612.82 348.908   6
   3  -5  -1 2657.31 464.189   6
  -3   5   1 3998.48 639.243  13
  -3   5   1 2734.03 543.812   7
  -3  -5   1 2254.49 518.043   7
   3   5  -1 1758.97 233.212  11
   3  -5   0 6646.63 882.061   9
  -3   5   0 7841.25 1030.09   8
  -3   5   0 7567.94 1009.86   1
   3   5   0 6995.38 814.100   2
  -3  -5   0 8432.98 928.786   7
   3   5   0 6198.60 545.160  11
  -3   5   0 6791.65 587.484  10
  -3  -5   0 7823.66 904.757  10
   3   5   0 8593.09 869.974   6
   3  -5   0 7729.85 830.243   6
   3  -5   1 16961.1 1385.70   9
  -3   5  -1 16684.0 1453.69   1
  -3   5  -1 17215.9 1550.88   8
   3  -5   1 16949.2 1666.39   4
   3   5   1 19396.5 1306.00   2
  -3  -5  -1 18811.5 1350.52   7
   3   5   1 19154.4 1703.67  12
  -3  -5  -1 17973.7 1281.99  11
  -3  -5  -1 17187.0 1392.52  10
   3   5   1 18493.1 1249.56   6
   3  -5   1 17208.4 1296.18   6
   3   5   1 19475.8 1284.86   3
  -3   5  -2 5607.42 840.723   1
   3   5   2 5370.92 746.965   5
   3  -5   2 5418.97 815.111   5
   3  -5   2 4414.06 684.913   9
  -3   5  -2 5844.60 945.377   8
   3   5   2 5675.18 725.301   2
   3   5   2 5716.83 998.601  12
  -3  -5  -2 5227.63 736.206   7
  -3  -5  -2 6456.94 847.764  11
   3  -5   2 5967.38 1039.38   4
   3   5   2 6144.91 816.677   3
  -3  -5  -2 5746.15 892.391  10
  -3   5  -3-33.4749 276.620   8
   3   5   3-75.0122 314.969  12
  -3   5  -3 351.293 311.755   1
  -3  -5  -3 644.719 398.599  11
   3   5   3 294.723 250.595   2
  -3  -5  -3 404.882 399.068  10
   3   5   3 112.911 240.372   5
   3  -5   3-569.436 344.336   5
  -3   5  -4 1202.45 459.921   8
   3  -5   4 1557.58 583.378  12
   3   5   4 1052.14 531.220  12
  -3  -5  -4 2589.94 623.460  11
  -3  -5  -4 1597.08 641.881  10
   3   5   4 1335.00 504.464   5
   3  -5   4 1886.24 571.158   5
  -3   5  -5 88.5427 435.931   8
   3  -5   5-535.256 520.851  12
   3   5   5 274.287 360.128  12
  -3  -5  -5 94.2759 321.165  11
  -3  -5  -5 143.547 351.201  10
   3   5   5-443.337 370.771   5
   3  -5   5 287.806 384.942   5
   3   5   6 673.214 385.652   5
   3  -5   6-372.218 425.806   5
  -3   6   8 587.029 438.416   5
  -3  -6   8 999.954 535.482   5
  -3   6   7 1212.23 537.160   3
   3   6  -7 1627.83 609.927  14
  -3   6   7 1570.94 586.706   5
  -3  -6   7 580.382 417.556   5
  -3  -6   7 1100.03 644.754   7
  -3   6   6 619.963 318.429   3
  -3   6   6-115.678 304.689   1
   3   6  -6 1462.08 568.616  14
  -3   6   6 619.612 438.668   5
  -3  -6   6 556.036 464.041   5
   3   6  -6 316.225 302.418   2
  -3  -6   6-66.2605 304.876   7
   3  -6  -5 1540.86 708.882   9
  -3   6   5 1962.48 570.224   3
  -3   6   5 1956.83 554.463   1
  -3   6   5 1560.42 530.612   8
  -3  -6   5 2082.04 582.809   5
  -3   6   5 1656.51 524.260   5
  -3  -6   5 1876.06 689.418   7
   3   6  -5 3000.77 633.427   2
   3   6  -4 461.141 381.034   2
   3  -6  -4 941.811 590.217   9
  -3   6   4 325.881 355.104   1
  -3   6   4 392.816 342.130   3
   3  -6  -4 812.880 366.781   6
   3   6  -4 99.2495 272.687   6
  -3   6   4 756.949 405.978   8
  -3  -6   4 802.183 452.868   7
  -3   6   3 11832.0 1198.19   3
   3   6  -3 15078.8 1314.58   6
   3  -6  -3 13902.2 1260.96   6
  -3   6   3 12810.1 1331.76   8
  -3   6   3 12734.8 1499.60   1
  -3   6   3 11764.0 1200.46  13
  -3  -6   3 12791.2 1405.56   7
   3   6  -3 11837.6 1203.58   2
   3  -6  -3 12509.3 1557.27   9
  -3   6   2 8979.01 1145.58   8
  -3   6   2 9976.46 1241.51   1
   3   6  -2 9713.83 603.869  13
  -3   6   2 8806.95 947.513  13
  -3   6   2 9672.64 865.283   7
   3   6  -2 12268.0 1133.52   2
  -3  -6   2 8576.20 1053.22   7
   3   6  -2 9723.53 946.590   6
   3  -6  -2 8745.22 886.936   6
   3  -6  -2 8525.96 1225.12   9
   3  -6  -1-54.4825 281.721   9
   3   6  -1 557.503 348.044   2
   3   6  -1 793.952 284.570   6
   3  -6  -1 140.186 195.596   6
  -3   6   1 486.331 286.748   8
  -3   6   1 1479.90 523.021  13
  -3   6   1 436.883 354.271   1
  -3  -6   1 677.085 345.474   7
  -3  -6   1-359.623 373.161  10
  -3   6   0 5686.11 1007.00   1
   3  -6   0 3350.58 754.249   9
  -3   6   0 5225.71 930.274   8
  -3  -6   0 5551.82 748.770   7
   3   6   0 6260.83 822.399   2
   3  -6   0 5346.50 1009.31   4
   3   6   0 4887.14 669.456   6
   3  -6   0 5369.54 691.365   6
  -3  -6   0 4310.58 677.570  10
   3  -6   1 1936.82 716.148   6
   3   6   1 1019.45 436.202   2
   3   6   1 1826.32 549.208   3
  -3   6  -1 816.904 783.716   8
  -3   6  -1 426.869 433.070   1
  -3  -6  -1 709.140 382.562   7
   3  -6   1 1563.61 1198.34   4
   3   6   1 1531.26 695.082   6
  -3  -6  -1 2301.26 610.201  10
   3  -6   1 841.936 916.221   9
   3  -6   2 2145.16 535.513   6
   3  -6   2 1731.13 473.919   9
   3   6   2 1944.58 513.823   2
   3   6   2 3195.12 615.708   3
  -3   6  -2 2820.76 722.539   8
  -3  -6  -2 1964.73 473.549   7
   3   6   2 2581.70 790.439  12
   3  -6   2 3001.21 812.380   4
   3   6   2 2563.92 550.873   6
  -3   6  -2 2606.47 638.904   1
  -3  -6  -2 2138.96 589.454  10
   3   6   3 1220.37 442.882   5
   3  -6   3 1399.03 334.485   5
   3   6   3 769.796 314.792   3
   3   6   3 1307.99 414.186   2
  -3   6  -3 1485.67 642.671   8
   3   6   3 1561.10 628.821  12
  -3  -6  -3 927.123 486.272  11
   3  -6   3 992.628 610.490   4
  -3  -6  -3 1136.18 554.408  10
  -3   6  -4 542.038 587.065   8
   3   6   4 1750.62 767.083  12
  -3  -6  -4 2117.76 788.855  11
   3   6   4-610.061 421.626   3
  -3  -6  -4 676.438 402.171  10
   3   6   4 893.606 504.994   5
   3  -6   4 598.377 511.005   5
  -3   6  -5 353.470 503.156   8
  -3  -6  -5 585.150 452.787  11
   3   6   5 540.158 399.734   5
   3  -6   5 547.361 399.456   5
  -3  -7   7-346.145 443.078   4
  -3   7   6 1888.69 586.832   3
  -3   7   6 2517.03 719.523   1
  -3  -7   6 2699.36 784.114   7
   3   7  -6 2716.06 672.265   2
  -3   7   5 3035.48 788.606   3
  -3   7   5 3072.08 759.345   1
  -3   7   5 2401.84 632.649   8
  -3  -7   5 3883.10 961.365   7
   3   7  -5 4418.56 792.374   2
   3  -7  -5 3278.00 1070.32   9
   3   7  -4 786.117 420.525   2
   3  -7  -4 739.258 513.995   9
  -3   7   4 1304.38 547.561   3
  -3   7   4 765.522 382.071   8
  -3   7   4 300.921 376.832   1
  -3  -7   4 960.831 433.418   7
   3  -7  -3-376.727 429.847   9
   3   7  -3 160.646 269.521   2
  -3   7   3-53.8153 337.390   8
  -3   7   3 88.0991 360.502  13
  -3  -7   3-1.20361 319.210   7
  -3   7   3-200.057 426.260   1
  -3   7   2 9805.70 1347.86   1
   3  -7  -2 6115.05 1144.85   9
  -3   7   2 8471.29 1161.55   8
  -3   7   2 9516.63 1071.56  13
   3   7  -2 10463.4 1149.12   2
  -3  -7   2 8938.01 1079.27   7
   3  -7  -1 115.564 266.404   9
   3   7  -1 104.912 332.778   2
  -3   7   1 70.1716 368.071   8
  -3   7   1 784.141 435.824  13
  -3   7   1 77.5052 369.809   1
   3  -7  -1 202.449 359.491   4
  -3  -7   1 334.809 339.695   7
  -3  -7   1-646.756 398.721  10
   3  -7   0 1074.24 443.008   9
  -3   7   0 618.198 551.898   1
   3   7   0 1062.27 466.184   2
  -3   7   0 333.402 415.851   8
  -3  -7   0 686.567 335.344   7
   3  -7   0 765.590 552.167   4
  -3  -7   0 1187.94 447.625  10
   3   7   1 13154.5 1215.20   3
  -3   7  -1 11359.1 1410.70   8
   3  -7   1 10631.2 1500.24   4
   3   7   1 13667.8 1284.62   2
  -3  -7  -1 11991.8 1368.98  10
  -3   7  -1 10331.4 1296.11   1
   3  -7   1 10367.2 1266.19   9
   3  -7   2 1330.49 510.365   9
   3   7   2 2427.93 580.395   2
   3   7   2 1848.95 548.636   3
  -3   7  -2 1330.29 460.277   8
  -3   7  -2 2413.08 676.808   1
   3   7   2 1808.50 739.062  12
   3  -7   2 1336.44 692.587   4
  -3  -7  -2 2198.13 655.133  10
   3   7   3-28.5811 305.485   2
   3   7   3-110.119 324.559   3
  -3   7  -3-437.806 553.621   8
   3   7   3 376.532 330.562  12
   3  -7   3-474.188 449.140   4
  -3  -7  -3-55.4200 357.017  10
   3   7   4 19.2526 332.507   3
  -3   7  -4 1189.03 554.591   8
   3   7   4-563.800 451.999  12
   3  -7   4 430.586 368.026   4
  -3  -7  -4 1468.17 752.209  10
   3   7   5 1042.67 538.341   3
  -3  -7  -5-88.2971 435.731  11
  -3  -8   6 1035.37 601.112   4
  -3   8   6 1048.18 522.934   1
  -3  -8   6 265.123 445.125   7
   3   8  -6 1430.55 532.611   2
   3   8  -5-251.289 276.112   2
  -3   8   5 793.473 537.904   3
  -3  -8   5 234.935 390.467   7
  -3   8   5 284.327 430.045   1
  -3   8   4 518.564 552.989   1
   3   8  -4-35.7596 307.392   2
  -3   8   4 411.111 535.278   3
  -3   8   4 384.179 377.793   8
  -3   8   4-368.349 440.925  13
  -3  -8   4 34.3491 330.705   7
   3  -8  -3 2572.10 829.915   9
  -3   8   3 2821.90 855.505   1
   3   8  -3 2991.78 692.766   2
  -3   8   3 2083.11 638.006   8
  -3  -8   3 3100.22 745.932   7
  -3   8   3 2786.35 686.397  13
  -3  -8   3 3271.41 611.667  10
  -3   8   2 3320.29 819.500   1
   3  -8  -2 1899.86 752.102   9
   3   8  -2 2195.76 601.419   2
  -3   8   2 1662.95 575.325   8
  -3   8   2 2770.80 611.129  13
   3  -8  -2 1113.73 441.256   4
  -3  -8   2 2515.56 616.765   7
  -3  -8   2 1571.75 433.032  10
   3  -8  -1 90.1740 291.462   9
   3   8  -1 288.480 333.859   2
  -3   8   1 839.266 482.582  13
   3  -8  -1 693.279 486.881   4
  -3   8   1 467.364 401.132   8
  -3  -8   1-157.691 276.219  10
  -3   8   1 734.086 473.985   1
   3  -8   0 1326.60 559.314   9
   3   8   0 1260.35 454.903   2
  -3   8   0 1521.08 581.521   8
   3  -8   0 851.647 643.890   4
  -3   8   0 1719.96 666.355   1
  -3  -8   0 1099.86 485.147  10
   3  -8   1 3178.65 844.886   9
   3   8   1 305.562 487.757   2
  -3   8  -1 1337.59 712.006   8
  -3   8  -1 1205.30 694.258   1
   3  -8   1 1038.05 847.740   4
  -3  -8  -1 1109.52 865.993  10
  -3  -8  -2 817.777 503.981   4
   3   8   2 1097.30 458.137   2
   3   8   2 979.020 435.660   3
  -3   8  -2 1519.93 677.986   8
   3   8   2 1641.22 751.705  12
   3  -8   2 1431.42 660.392   4
  -3  -8  -2 1214.42 482.719  10
   3   8   3 772.834 360.961   2
   3   8   3 504.366 417.426   3
  -3   8  -3 709.031 591.619   8
   3   8   3 100.930 418.891  12
   3  -8   3 475.201 491.160   4
  -3  -8  -3 417.466 554.031  10
   3   8   4-67.4364 341.659   3
   3  -8   4 69.0574 415.725   4
   3   9  -5 4713.90 874.982   2
  -3   9   5 4339.50 1041.58   1
  -3  -9   5 3330.65 889.367   7
   3   9  -4 8304.78 1184.70   2
  -3   9   4 7788.26 1301.73   1
  -3   9   4 6701.85 1142.60  13
  -3  -9   4 6478.35 1150.31   7
   3   9  -3 443.814 438.988   2
  -3   9   3 186.979 397.126   8
  -3   9   3-187.022 306.212  13
  -3   9   3 126.813 302.078   1
   3   9  -2 791.855 465.223   2
  -3   9   2 472.784 443.788   8
  -3   9   2 1582.02 577.194  13
  -3   9   2 879.816 550.939   1
   3  -9  -2 657.888 409.587   4
   3   9  -1 248.449 252.534   2
  -3   9   1 591.337 431.278   8
  -3   9   1 112.224 326.405   1
   3  -9  -1 283.104 504.419   4
  -3  -9   1 29.6006 279.096  10
  -3   9   1 739.627 483.823  13
   3   9   0 5778.43 976.712   2
  -3   9   0 6063.71 1092.35   8
   3  -9   0 7333.52 1393.43   4
  -3  -9   0 5294.14 929.569  10
   3   9   1 3720.79 838.809   2
  -3  -9  -1 2237.57 725.426   4
   3  -9   1 1940.18 775.431   4
  -3   9  -1 3245.57 919.705   8
  -3  -9  -1 2586.61 755.495  10
   3   9   2 682.963 381.322   2
   3   9   2 2271.91 810.991  12
   3  -9   2 897.906 664.017   4
  -3  -9  -2 1360.43 763.027  10
   3   9   3 264.253 479.741   3
  -3  10   3 4654.73 968.540   8
  -3  10   2 1069.29 566.243   8
   3 -10  -2 1279.22 715.596   4
  -3 -10   1 5571.87 1156.87   4
  -3  10   1 6601.09 1194.48   8
   3 -10  -1 5908.04 1300.67   4
  -3 -10   0-971.841 542.074   4
  -3  10   0-250.214 482.401   8
  -3 -10  -1 5329.20 1104.78   4
  -3 -10  -1 7154.17 1257.22  10
   4   0  -8 450.214 517.646  14
  -4   0   8 609.343 654.915   5
  -4   0   8-24.1586 555.041   7
   4   0  -7 270.635 286.795   9
   4   0  -7 426.812 466.139   6
   4   0  -7 231.220 315.008  14
  -4   0   7-4.12506 298.642   7
   4   0  -6 52498.8 2539.79   9
   4   0  -6 56612.7 3382.23   6
   4   0  -6 52923.0 2958.31  14
  -4   0   6 54649.2 3135.74   7
   4   0  -5 50645.6 2922.03   6
   4   0  -5 53600.9 2436.77   9
   4   0  -5 48793.3 2530.95  14
  -4   0   5 50682.3 1469.04  13
  -4   0   5 49099.5 2884.02   7
   4   0  -4 18744.6 1377.11   9
   4   0  -4 14186.4 1294.26  14
  -4   0   4 16294.8 669.783  13
  -4   0   4 17394.4 1649.90   7
   4   0  -4 18071.7 1708.48   6
   4   0  -3 50707.1 2213.79   9
   4   0  -3 48797.5 2134.43  14
  -4   0   3 49587.2 2531.59   7
  -4   0   3 47424.2 1662.84  11
  -4   0   3 48270.5 1097.63   3
   4   0  -3 48350.8 2419.27   6
   4   0  -2 36613.4 1768.75   9
   4   0  -2 33128.6 1644.73  14
   4   0  -2 35930.9 860.346  12
  -4   0   2 35237.7 2062.15   7
   4   0  -2 34452.5 2001.10   6
   4   0  -1 20189.3 1279.94   9
   4   0  -1 19574.4 926.020  12
   4   0  -1 20375.7 1176.91  14
  -4   0   1 19411.3 1587.22   7
   4   0  -1 19148.8 1488.07   6
   4   0   0 26604.7 1450.97   9
   4   0   0 21003.7 1066.81  14
  -4   0   0 22736.1 1717.64   7
   4   0   0 26279.3 1325.46  12
   4   0   0 23362.1 1713.27   6
   4   0   1 12360.6 994.444   9
  -4   0  -1 11899.0 1155.45   8
  -4   0  -1 11085.2 1246.75   7
   4   0   1 12381.1 1043.17  12
   4   0   1 14778.1 1323.60   6
   4   0   2 43334.1 1815.48   9
  -4   0  -2 44110.4 2165.68   8
  -4   0  -2 42816.2 2610.41   7
   4   0   2 40584.3 2109.10  12
   4   0   2 44705.1 2485.64   5
  -4   0  -2 39664.4 1913.83  10
   4   0   3 829.671 348.761   9
  -4   0  -3 474.477 337.745   8
   4   0   3 903.081 431.279  12
  -4   0  -3 1440.25 484.506  11
  -4   0  -3 550.255 303.322  10
   4   0   3 751.149 431.170   5
   4   0   4 2287.75 492.618   9
   4   0   4 1527.21 554.704  12
  -4   0  -4 1229.83 517.275  11
  -4   0  -4 2015.53 614.864  10
   4   0   4 1494.59 584.623   5
   4   0   5 2270.24 723.440  12
  -4   0  -5 880.857 539.619  11
  -4   0  -5 1395.04 477.636  10
   4   0   5 1500.40 640.787   5
  -4   1   9 1530.48 639.590   7
   4  -1  -8 5709.41 1235.07  14
  -4   1   8 4750.12 1103.06   5
  -4  -1   8 4693.45 1058.65   5
   4   1  -8 5332.20 1250.43  14
  -4   1   8 6022.04 1177.69   7
  -4  -1   8 5060.28 1101.14   7
   4  -1  -7 900.497 577.177   9
   4   1  -7 406.575 539.495  14
   4  -1  -7 1236.24 819.096   6
   4   1  -7 1973.86 1034.52   6
   4  -1  -7 920.431 566.189  14
  -4   1   7 781.944 546.847   7
  -4  -1   7 1111.58 663.848   7
   4  -1  -6 2781.60 674.719   9
   4   1  -6 2445.62 554.945   9
   4   1  -6 2874.28 875.535   6
   4  -1  -6 2017.94 758.727   6
   4   1  -6 1717.57 552.311  14
   4  -1  -6 1907.78 599.674  14
  -4   1   6 2186.11 654.667   7
  -4  -1   6 2880.64 805.082   7
   4   1  -5 48052.0 2820.73   6
   4  -1  -5 49828.3 2867.61   6
   4  -1  -5 48586.1 2480.98   9
   4   1  -5 47493.8 2195.25   9
   4   1  -5 45965.5 2459.55  14
   4  -1  -5 43470.9 2496.56  14
  -4   1   5 49455.9 2741.88   7
  -4  -1   5 46771.9 2805.71   7
   4  -1  -4 9324.39 1107.64   9
   4   1  -4 9546.87 1034.16   9
   4   1  -4 8581.55 993.762  14
   4  -1  -4 10064.0 1141.38  14
  -4   1   4 8900.08 654.676  13
  -4   1   4 10661.3 1265.25   7
  -4  -1   4 8722.95 1236.87   7
  -4  -1   4 9325.43 545.700  11
   4   1  -4 9660.07 1259.12   6
   4  -1  -4 9804.40 1260.84   6
   4  -1  -3 1542.94 467.959   9
  -4   1   3 1244.91 231.550   3
   4   1  -3 1137.93 403.605   9
   4   1  -3 1433.70 525.566   6
   4  -1  -3 756.506 427.050   6
   4   1  -3 1158.85 382.669  14
   4  -1  -3 912.947 293.029  14
   4   1  -3 1254.95 211.508  12
   4   1  -3 1492.68 235.186  12
  -4  -1   3 1415.00 221.956  11
  -4   1   3 1142.69 439.331   7
  -4  -1   3 767.273 403.939   7
   4   1  -2-502.257 353.054   6
   4  -1  -2-215.121 302.903   6
   4  -1  -2-110.909 295.367   9
   4   1  -2 641.001 321.681   9
   4   1  -2-294.258 261.788  14
   4  -1  -2 187.119 214.964  14
   4   1  -2-550.884 161.821  13
   4   1  -2 124.810 152.368  12
  -4   1   2 146.349 341.080   7
  -4  -1   2-93.2758 257.575   7
   4   1  -1 959.500 450.507   6
   4  -1  -1 363.956 340.361   6
   4  -1  -1 215.286 212.171   9
   4   1  -1 1222.62 458.441   9
   4   1  -1 82.4342 154.288  14
   4  -1  -1 452.411 258.462  14
   4  -1  -1 642.849 187.518  12
   4   1  -1 374.873 167.689  12
  -4   1   1 545.601 231.649  12
  -4   1   1 570.373 393.301   7
  -4  -1   1 438.856 403.675   7
   4  -1   0 38455.6 1757.04   9
  -4   1   0 39608.3 2209.93   8
  -4   1   0 37893.3 1083.66  14
   4   1   0 38340.6 1311.43  14
  -4   1   0 40510.8 2306.13   7
   4  -1   0 37896.6 1533.45  12
  -4  -1   0 38886.7 2230.17   7
   4   1   0 39213.0 1731.65  12
   4   1   0 36957.9 2059.74   6
   4  -1   0 39998.0 2110.03   6
   4   1   1 3663.44 730.707   6
   4  -1   1 4229.75 788.914   6
   4  -1   1 3416.13 568.329   9
  -4   1  -1 3935.31 724.716   8
  -4  -1  -1 3599.07 594.585   8
   4  -1   1 4202.66 612.686  12
   4   1   1 4237.34 663.547  12
  -4   1  -1 3231.55 738.623   7
  -4  -1  -1 3620.44 715.932   7
  -4  -1  -1 4105.72 552.646  11
   4   1   2 1158.27 479.692   5
   4  -1   2 907.587 371.709   5
   4  -1   2 1057.35 329.276   9
  -4   1  -2 1040.15 415.368   8
  -4  -1  -2 1131.14 371.054   8
   4  -1   2 1096.69 362.749  12
   4   1   2 2008.20 584.582  12
  -4   1  -2 901.312 429.913   7
  -4  -1  -2 1383.62 553.317   7
  -4  -1  -2 1724.22 442.531  11
  -4  -1  -2 1068.64 415.441  10
  -4   1  -2 1011.81 355.653  10
   4  -1   3 458.060 295.139   9
  -4   1  -3 1206.33 624.369   8
   4  -1   3 444.126 299.467  12
   4   1   3 915.874 384.960  12
  -4  -1  -3 1317.32 490.399  11
  -4   1  -3 707.866 354.550  10
  -4  -1  -3 1219.14 449.146  10
   4   1   3 1396.88 673.436   5
   4  -1   3 334.922 445.333   5
   4  -1   4 2373.48 713.132  12
   4   1   4 2292.88 631.348  12
  -4  -1  -4 1869.60 526.722  11
  -4   1  -4 1827.14 602.605  11
  -4   1  -4 2244.15 599.651  10
  -4  -1  -4 2350.96 657.873  10
   4   1   4 3035.89 755.817   5
   4  -1   4 1473.14 589.451   5
   4  -1   5 1154.29 538.303  12
   4   1   5 906.095 561.043  12
  -4  -1  -5 1015.70 469.080  11
  -4   1  -5 1200.36 620.874  11
  -4  -1  -5 1254.40 581.571  10
   4   1   5 1293.54 568.964   5
   4  -1   5 2097.81 685.946   5
  -4  -1  -6 4994.11 1080.40  10
   4   2  -8 1730.61 731.412  14
   4  -2  -8 635.400 490.341  14
  -4   2   8 1434.79 746.581   5
  -4  -2   8 1195.26 590.921   5
  -4   2   8 582.683 381.382   7
  -4  -2   8 2187.29 866.304   7
   4  -2  -7 1318.51 542.614   9
   4  -2  -7 873.064 575.983  14
   4  -2  -7 310.620 515.622   6
   4   2  -7 840.563 638.616   6
   4   2  -7 2144.34 756.751  14
  -4   2   7 1150.80 563.915   7
  -4  -2   7 720.728 602.463   7
   4   2  -6 14112.8 1204.18   9
   4   2  -6 14791.6 1699.35   6
   4  -2  -6 14215.5 1691.79   6
   4   2  -6 12601.8 1430.88  14
   4  -2  -6 11928.8 1457.39  14
  -4   2   6 12798.3 1450.90   7
  -4  -2   6 13187.5 1624.27   7
   4  -2  -6 12836.9 1421.38   9
   4  -2  -5 64142.1 2968.52   9
   4   2  -5 65705.8 3314.32   6
   4  -2  -5 64542.7 3265.22   6
   4   2  -5 65962.2 2498.46   9
   4   2  -5 63572.2 2845.61  14
   4  -2  -5 57597.2 2952.96  14
  -4   2   5 62583.0 3034.34   7
  -4  -2   5 64349.3 3340.21   7
   4  -2  -4 60212.1 2730.30   9
   4   2  -4 55893.8 2240.92   9
   4   2  -4 50350.1 2239.81  14
   4  -2  -4 54454.6 2710.36  14
  -4   2   4 52931.3 1813.94  13
  -4   2   4 62367.3 2900.88   7
  -4  -2   4 60313.5 3089.65   7
  -4   2   4 57387.0 2061.68   3
   4   2  -4 61952.4 3062.69   6
   4  -2  -4 56874.0 3005.56   6
   4  -2  -3 23287.2 1657.97   9
   4   2  -3 19516.9 1279.20   9
   4   2  -3 24911.0 1406.36  14
   4  -2  -3 20855.2 1583.22  14
  -4   2   3 25884.0 1141.00  13
  -4   2   3 23886.4 1740.41   7
  -4  -2   3 22097.1 1739.19   7
  -4   2   3 23321.1 1054.30   3
   4   2  -3 23600.8 1757.74   6
   4  -2  -3 23359.9 1700.63   6
   4  -2  -2 829.307 412.141   9
   4   2  -2 330.578 253.519   6
   4  -2  -2 848.152 316.374   6
   4   2  -2 886.539 298.723  14
   4  -2  -2 731.773 343.323  14
   4   2  -2 471.543 111.397  13
   4   2  -2 594.947 241.101  12
  -4   2   2 635.052 390.822   7
  -4  -2   2 341.019 363.775   7
   4  -2  -1 32071.5 1779.09   9
  -4   2   1 34268.4 2163.04   8
   4   2  -1 31599.7 1255.37  14
   4  -2  -1 34293.5 1280.35  12
  -4   2   1 33300.4 2025.42   7
  -4  -2   1 32460.7 2016.33   7
  -4   2   1 35004.4 1298.82  12
   4   2  -1 35487.4 1717.81  12
  -4  -2   1 35933.5 968.092  11
   4  -2  -1 33476.7 1267.28   3
   4   2  -1 35479.4 1969.13   6
   4  -2  -1 34624.0 1932.88   6
   4  -2   0 79142.3 2723.09   9
  -4   2   0 84027.0 3340.01   8
   4   2   0 81686.1 1810.89  14
  -4   2   0 82894.4 3255.85   7
   4  -2   0 84429.0 2382.16  12
  -4  -2   0 82403.5 3232.16   7
   4   2   0 86849.2 2898.84  12
  -4  -2   0 85139.8 1982.20  11
   4   2   0 74019.2 1336.97   3
   4   2   0 87380.2 3101.01   6
   4  -2   0 86336.8 3092.98   6
   4   2   1 475.603 453.735   6
   4  -2   1 948.889 440.837   6
   4  -2   1 225.277 192.403   9
   4   2   1 741.629 153.722  14
  -4   2  -1 454.533 412.098   8
   4  -2   1 375.055 265.425  12
   4   2   1 723.164 436.733  12
  -4   2  -1 222.603 287.240   7
  -4  -2  -1 251.970 281.088   7
  -4  -2  -1 377.134 171.056  11
   4   2   2 5986.28 961.449   5
   4  -2   2 4914.13 854.304   5
   4  -2   2 4462.41 624.430   9
  -4  -2  -2 4916.39 661.090   8
  -4   2  -2 4568.08 781.396   8
   4  -2   2 4678.28 772.323  12
   4   2   2 4812.72 802.021  12
  -4  -2  -2 5195.07 910.757   7
  -4  -2  -2 4779.72 706.411  11
  -4   2  -2 4712.29 632.951  10
  -4  -2  -2 4237.97 697.194  10
   4  -2   3 1279.78 330.657   9
  -4   2  -3 2637.71 625.989   8
   4  -2   3 2267.76 623.966  12
   4   2   3 1720.41 566.658  12
  -4  -2  -3 2883.27 635.096  11
  -4   2  -3 2040.87 450.305  10
  -4  -2  -3 2069.94 536.910  10
   4   2   3 2495.97 677.651   5
   4  -2   3 2088.59 605.230   5
  -4   2  -4 968.751 487.635   8
   4  -2   4 1142.00 502.201  12
   4   2   4 948.325 537.977  12
  -4  -2  -4 492.228 373.509  11
  -4  -2  -4 737.728 376.368  10
   4   2   4 364.087 442.749   5
   4  -2   4 854.539 364.072   5
   4  -2   5 818.866 525.762  12
   4   2   5 1246.97 552.425  12
  -4  -2  -5 1104.67 559.588  11
  -4   2  -5 1483.51 670.279  11
  -4  -2  -5 395.360 414.647  10
   4   2   5 895.859 514.393   5
   4  -2   5 200.279 333.519   5
   4   3  -8 7202.97 1385.52  14
   4  -3  -8 6839.29 1340.55  14
  -4   3   8 7142.55 1358.33   5
  -4  -3   8 6412.75 1191.00   5
  -4  -3   8 5264.13 1210.31   7
   4  -3  -7 14830.6 1862.77   6
   4   3  -7 15319.7 1885.15   6
   4   3  -7 12413.2 1577.27  14
   4  -3  -7 12890.3 1671.56  14
  -4   3   7 12249.0 1447.77   7
  -4  -3   7 12023.3 1697.35   7
   4  -3  -7 14752.0 1678.78   9
   4  -3  -6 180.063 339.541   9
   4   3  -6 93.5538 273.720   9
   4  -3  -6 342.178 496.019   6
   4   3  -6 332.930 573.762   6
   4   3  -6-324.453 342.541  14
   4  -3  -6 339.588 467.982  14
  -4   3   6 538.995 413.018   7
  -4  -3   6 784.274 567.410   7
  -4   3   5 1132.05 312.344   3
   4  -3  -5 1603.04 546.610   9
   4   3  -5 1750.18 398.968   9
   4   3  -5 1829.78 558.422   6
   4  -3  -5 1346.80 496.943   6
   4   3  -5 2025.35 536.922  14
   4  -3  -5 1117.94 485.701  14
  -4   3   5 2094.48 603.196   7
  -4  -3   5 2477.11 665.719   7
   4  -3  -4 20884.0 1808.03   9
   4   3  -4 16204.7 1182.96   9
   4   3  -4 20912.1 1427.30  14
   4  -3  -4 20740.0 1752.60  14
  -4   3   4 19004.0 1265.70  13
  -4   3   4 24393.9 1798.98   7
  -4  -3   4 21165.8 1882.08   7
  -4   3   4 21688.3 1410.55   3
   4   3  -4 22130.2 1849.32   6
   4  -3  -4 21488.0 1795.29   6
  -4   3   3 23965.2 1210.51   3
   4  -3  -3 22635.8 1714.47   9
   4   3  -3 24194.7 1349.42  14
  -4   3   3 23477.1 1252.30  13
  -4   3   3 23409.6 1675.53   7
  -4  -3   3 23389.1 1834.00   7
   4   3  -3 22267.0 1721.20   6
   4  -3  -3 21610.0 1665.47   6
   4  -3  -2-304.551 216.282   9
   4   3  -2-255.703 384.978   6
   4  -3  -2-94.5424 408.926   6
   4   3  -2 223.557 212.883  14
  -4   3   2-344.812 439.017   8
   4   3  -2 108.782 63.2664  13
  -4   3   2 2.08914 83.6186  12
  -4   3   2 294.534 331.238   7
  -4  -3   2 60.5409 287.692   7
   4  -3  -1 29031.8 1822.55   9
  -4   3   1 33038.5 2202.35   8
   4   3  -1 32160.8 1268.01  14
  -4   3   1 29956.4 1948.41   7
  -4   3   1 31000.6 1298.44  12
  -4  -3   1 29103.1 1926.89   7
   4   3  -1 35690.7 1940.62  12
  -4  -3   1 29390.0 867.819  11
   4   3  -1 34326.9 1975.62   6
   4  -3  -1 30015.8 1823.29   6
   4  -3   0 44255.1 2150.08   9
  -4   3   0 46344.2 2556.31   8
   4   3   0 47365.9 1374.66  14
  -4   3   0 49109.0 2564.76   7
   4  -3   0 47941.1 1963.81  12
  -4  -3   0 46861.9 2453.62   7
   4   3   0 50832.3 2443.56  12
  -4  -3   0 50367.4 1616.80  11
   4   3   0 49528.0 2375.22   6
   4  -3   0 50591.4 2404.54   6
   4   3   0 50308.4 1284.56   3
   4  -3   1 48635.3 2202.51   9
  -4   3  -1 51928.9 2725.88   8
   4   3   1 51638.1 1221.10  14
  -4   3  -1 52712.6 2797.30   7
   4  -3   1 53084.1 2286.43  12
  -4  -3  -1 52536.3 2651.81   7
   4   3   1 55091.9 2674.00  12
  -4  -3  -1 53426.2 2045.67  11
  -4  -3  -1 53717.1 2356.95  10
   4   3   1 56358.8 2548.09   6
   4  -3   1 53699.2 2587.19   6
   4   3   2 4838.44 879.317   5
   4  -3   2 4137.63 823.153   5
   4  -3   2 5101.69 736.059   9
  -4   3  -2 4087.54 787.899   8
   4  -3   2 4552.64 769.386  12
   4   3   2 5530.94 955.903  12
  -4  -3  -2 4643.55 858.648   7
  -4  -3  -2 5118.06 749.858  11
  -4   3  -2 4859.94 598.185  10
  -4  -3  -2 4097.58 725.512  10
   4  -3   3 6097.10 788.316   9
  -4   3  -3 5899.58 958.374   8
  -4  -3  -3 6053.64 1026.85   7
   4  -3   3 5620.69 876.451  12
   4   3   3 4596.97 888.313  12
  -4  -3  -3 6823.25 965.710  11
  -4  -3  -3 5967.61 941.603  10
   4   3   3 6597.64 1034.49   5
   4  -3   3 6623.65 1061.16   5
  -4   3  -4 485.419 369.816   8
   4  -3   4 1386.93 566.986  12
   4   3   4 626.928 439.792  12
  -4  -3  -4 1577.23 600.625  11
  -4  -3  -4 224.313 415.356  10
   4   3   4 410.892 400.784   5
   4  -3   4 543.616 324.973   5
   4   3   5 9724.41 1425.84   5
   4  -3   5 7772.17 1249.43  12
   4   3   5 7567.29 1291.90  12
  -4  -3  -5 6705.54 1284.79  11
  -4  -3  -5 9875.33 1450.48  10
   4  -3   5 7179.05 1202.06   5
   4  -4  -8 5733.82 1177.16   9
  -4   4   8 4550.12 1084.90   5
  -4  -4   8 4763.47 1035.99   5
   4  -4  -7 820.014 543.492   9
   4   4  -7 1068.40 494.057  14
  -4   4   7 1119.28 474.762   5
  -4  -4   7 906.070 525.778   5
  -4  -4   7 1259.52 575.109   7
  -4   4   6 370.362 252.215   3
   4  -4  -6 1299.13 584.894   9
   4  -4  -6 1273.65 618.700   6
   4   4  -6 1028.89 576.618   6
   4   4  -6 540.176 345.424  14
  -4   4   6 625.102 436.043   7
  -4  -4   6 211.163 397.792   7
   4   4  -5 45513.5 2815.79   6
   4  -4  -5 42755.8 2729.24   6
   4   4  -5 42998.1 1938.16   9
   4   4  -5 39414.5 2179.45  14
  -4   4   5 39956.8 2299.07   7
  -4  -4   5 43224.7 2844.26   7
  -4   4   5 41070.7 2280.29   3
   4  -4  -5 40467.8 2657.95   9
   4  -4  -4 61447.2 3133.95   9
   4   4  -4 63261.4 3174.73   6
   4  -4  -4 68775.9 3206.91   6
   4   4  -4 56786.1 2230.63   9
  -4   4   4 65572.9 3189.51   8
   4   4  -4 53837.9 2279.86  14
  -4   4   4 63238.7 2423.07  13
  -4   4   4 65170.5 2805.55   7
  -4  -4   4 60427.0 3286.07   7
  -4   4   4 64280.8 2537.03   3
   4  -4  -3 8097.58 1154.79   9
  -4   4   3 8621.63 1184.79   8
   4   4  -3 10817.4 935.886  14
  -4   4   3 8394.43 833.689  13
  -4   4   3 8545.58 1041.84   7
  -4  -4   3 8916.18 1184.63   7
   4   4  -3 9172.69 1099.40   6
   4  -4  -3 8081.96 1044.84   6
   4  -4  -2 7085.15 994.676   9
   4   4  -2 8517.59 960.278   2
  -4   4   2 6454.55 1047.51   8
  -4   4   2 7638.44 970.036   7
  -4  -4   2 7706.51 1035.55   7
   4   4  -2 8673.33 1009.64   6
   4  -4  -2 6852.87 883.992   6
   4  -4  -1 17880.7 1517.58   9
  -4   4   1 17084.6 1630.27   8
   4   4  -1 16909.3 1311.50   2
  -4   4   1 16987.5 1478.92   7
  -4  -4   1 17534.1 1504.58   7
   4   4  -1 19816.0 1510.16   6
   4  -4  -1 18070.7 1439.86   6
   4  -4   0 94019.6 3395.66   9
  -4   4   0 94780.2 3805.70   8
   4   4   0 102459. 3136.46   2
  -4   4   0 94115.0 3597.58   7
  -4  -4   0 95088.5 3506.61   7
   4   4   0 106509. 3910.23  12
  -4  -4   0 101938. 2439.58  11
   4   4   0 106882. 3480.14   6
   4  -4   0 102569. 3521.64   6
   4   4   1-225.927 239.774   6
   4  -4   1 107.742 366.275   6
   4   4   1 68.9215 175.342   3
   4  -4   1-84.1704 225.658   9
  -4   4  -1-325.709 327.822   8
   4   4   1 584.492 474.290  12
  -4  -4  -1 770.357 387.925   7
  -4  -4  -1 81.0100 184.309  11
  -4  -4  -1 619.649 411.679  10
   4  -4   2 577.343 341.999   9
  -4   4  -2 557.674 338.779   1
  -4   4  -2 724.356 477.756   8
   4  -4   2 142.701 327.185  12
   4   4   2 723.708 427.707  12
  -4  -4  -2 445.015 333.187   7
  -4  -4  -2 669.770 395.932  11
   4   4   2 334.905 415.174   6
   4  -4   2 1155.10 501.243   6
  -4  -4  -2 491.579 337.514  10
   4   4   3 1568.81 551.817   5
   4  -4   3 1510.99 543.749   5
  -4   4  -3 1918.03 629.340   8
  -4  -4  -3 2223.74 663.551   7
   4  -4   3 1951.01 590.983  12
   4   4   3 2635.10 807.614  12
  -4  -4  -3 2379.26 616.368  11
  -4  -4  -3 1430.10 480.149  10
  -4   4  -4 2454.21 722.505   8
   4  -4   4 2986.67 816.764  12
   4   4   4 2344.02 778.466  12
  -4  -4  -4 2664.08 678.416  11
  -4  -4  -4 2796.21 843.740  10
   4   4   4 3096.69 772.183   5
   4  -4   4 2321.47 718.012   5
  -4  -4  -5 372.310 317.010  11
   4   4   5 919.542 511.526   5
   4  -4   5 1839.77 672.778   5
  -4   5   8 2919.55 744.694   3
  -4   5   7 3663.07 854.880   3
   4  -5  -7 4750.28 1090.24   9
   4   5  -7 5190.34 1005.51  14
  -4   5   7 2792.74 748.420   1
  -4   5   7 3379.97 874.985   5
  -4  -5   7 2029.56 692.675   5
  -4  -5   7 2567.82 864.153   7
  -4   5   6-44.8004 394.293   3
   4  -5  -6 426.042 502.354   9
   4  -5  -6 839.460 460.588   6
   4   5  -6 178.306 397.291   6
   4   5  -6 329.705 364.082  14
  -4   5   6-160.015 317.913   8
  -4  -5   6-92.3650 442.482   7
   4   5  -5 5019.02 686.698   9
   4  -5  -5 4839.14 995.451   9
  -4   5   5 4989.23 880.731   3
   4   5  -5 4581.33 914.082   6
   4  -5  -5 4080.51 893.367   6
   4   5  -5 5212.55 833.865  14
  -4   5   5 4531.78 754.166  13
  -4   5   5 4339.91 856.144   8
  -4  -5   5 4769.93 1041.65   7
   4   5  -4 10042.6 1259.73   6
   4  -5  -4 8697.20 1146.57   6
   4  -5  -4 7123.04 1164.53   9
  -4   5   4 8501.77 1191.15   8
   4   5  -4 7190.23 1003.62   2
   4   5  -4 10170.0 1036.02  14
  -4   5   4 6970.71 922.357  13
  -4   5   4 8087.49 979.705   7
  -4  -5   4 8624.96 1298.38   7
  -4   5   4 7584.51 928.352   3
   4  -5  -3 5397.26 986.289   9
   4   5  -3 5575.59 924.193   6
   4  -5  -3 4401.55 778.090   6
  -4   5   3 5074.65 924.221   8
  -4   5   3 5162.09 735.704  13
  -4   5   3 4211.74 683.082   7
  -4  -5   3 4781.29 953.562   7
   4   5  -3 4821.05 808.562   2
   4  -5  -2 1406.16 538.183   9
   4   5  -2 518.381 348.821   6
   4  -5  -2 923.618 358.804   6
  -4   5   2 880.308 420.820   8
  -4   5   2 2198.32 514.834  13
  -4   5   2 689.746 323.947   7
  -4  -5   2 1170.06 449.799   7
   4   5  -2 937.297 356.617   2
   4  -5  -1 2782.81 677.620   9
   4   5  -1 3939.00 726.431   6
   4  -5  -1 2998.07 619.681   6
  -4   5   1 2671.51 759.175   8
  -4   5   1 3038.45 653.364   7
  -4  -5   1 3409.01 705.869   7
   4   5  -1 3544.83 665.350   2
   4  -5   0 17373.7 1544.22   9
  -4   5   0 18463.1 1758.53   8
   4   5   0 20079.5 1461.60   2
  -4   5   0 16216.7 1510.60   7
  -4  -5   0 17383.9 1525.71   7
   4   5   0 18654.8 1769.44  12
  -4  -5   0 19650.6 1523.11  10
   4   5   0 19619.8 1524.47   6
   4  -5   0 19998.6 1589.51   6
   4  -5   1 16045.4 1454.89   9
  -4   5  -1 15145.6 1612.23   8
   4   5   1 17710.0 1390.54   2
  -4   5  -1 17340.1 1632.19   1
  -4  -5  -1 16191.6 1472.67   7
   4   5   1 17005.6 1685.08  12
  -4  -5  -1 18164.2 1344.08  11
  -4  -5  -1 16841.4 1507.15  10
   4   5   1 16300.6 1439.03   6
   4  -5   1 17237.8 1531.71   6
   4   5   1 16047.1 1153.96   3
   4   5   2 359.782 291.031   6
   4  -5   2 1627.84 580.958   6
   4   5   2 580.907 292.720   3
   4  -5   2 129.336 219.643   9
  -4   5  -2 135.475 238.666   1
   4   5   2 1061.28 368.703   2
  -4   5  -2 732.373 430.036   8
   4   5   2 2340.22 735.631  12
  -4  -5  -2 698.609 417.201   7
  -4  -5  -2 404.164 272.854  11
  -4  -5  -2 837.241 533.014  10
   4   5   3 1078.62 500.243   5
   4  -5   3-255.610 356.223   5
  -4   5  -3 1735.37 777.131   8
   4   5   3 887.471 476.724  12
  -4  -5  -3 360.112 324.012  11
  -4  -5  -3 98.3229 389.361  10
   4   5   4-226.243 424.810   5
   4  -5   4 53.1375 294.179   5
  -4   5  -4-216.221 313.406   8
   4  -5   4 687.513 490.329  12
   4   5   4-311.027 485.483  12
  -4  -5  -4 303.624 365.063  11
  -4  -5  -4 696.973 643.065  10
  -4   5  -5 2908.72 791.864   8
  -4  -5  -5 3050.56 841.190  11
   4  -6  -7-68.4370 366.234   9
  -4   6   7 25.4084 384.141   3
  -4   6   7 117.053 297.129   1
  -4   6   7 294.346 350.183   5
  -4  -6   7 392.380 415.402   5
   4   6  -6 12749.7 1598.23   6
   4  -6  -6 7668.21 1411.59   9
  -4   6   6 7188.06 1128.54   8
   4  -6  -6 8383.27 1328.55   6
  -4  -6   6 7460.47 1254.79   5
   4   6  -6 10341.1 1285.44  14
  -4   6   6 7983.58 1222.93   1
  -4  -6   6 8837.30 1526.17   7
  -4   6   6 8912.05 1222.62   3
   4   6  -5 10766.2 1388.61   6
   4  -6  -5 10519.6 1397.05   6
  -4   6   5 8327.61 1192.10   8
   4   6  -5 10580.3 1253.24   2
   4   6  -5 11418.8 1235.95  14
  -4   6   5 8592.60 1203.20  13
  -4   6   5 7762.32 1198.45   1
  -4  -6   5 9729.95 1450.88   7
  -4   6   5 9304.76 1211.88   3
   4  -6  -5 12448.1 1638.45   9
   4  -6  -4-248.040 430.531   9
  -4   6   4 784.853 430.739   3
   4   6  -4 311.374 328.777   6
   4  -6  -4-364.842 342.822   6
  -4   6   4 781.136 390.081   8
  -4   6   4-4.92262 335.906  13
  -4  -6   4 473.794 457.270   7
   4   6  -4 1.06404 316.269   2
   4  -6  -3 3031.83 865.190   9
   4   6  -3 4236.35 804.126   6
   4  -6  -3 3574.02 778.675   6
  -4   6   3 3711.97 817.561   8
  -4   6   3 3373.23 653.501  13
  -4  -6   3 2966.69 744.877   7
   4   6  -3 4418.71 778.719   2
   4  -6  -2 3478.04 821.755   9
   4   6  -2 5015.23 823.240   6
   4  -6  -2 3425.51 674.382   6
  -4   6   2 3962.81 810.389   8
  -4   6   2 4427.26 707.659  13
  -4   6   2 2485.70 558.941   7
  -4  -6   2 2671.26 646.349   7
   4   6  -2 4995.41 792.945   2
   4  -6  -1 3810.27 840.573   9
   4   6  -1 3934.50 666.744   6
   4  -6  -1 4052.15 682.476   6
  -4   6   1 3915.85 838.016   8
  -4   6   1 4495.52 817.348   7
  -4   6   1 4045.73 928.505   1
  -4  -6   1 5069.31 886.415   7
   4   6  -1 5697.69 838.056   2
   4  -6   0 5412.01 951.037   9
   4   6   0 6307.41 924.568   2
  -4   6   0 5747.86 1056.56   8
  -4   6   0 7048.63 1134.85   1
  -4  -6   0 6634.81 959.670   7
  -4  -6   0 6420.19 921.821  10
   4   6   0 8076.16 992.521   6
   4  -6   0 6785.79 936.470   6
   4   6   1 561.394 244.177   6
   4  -6   1 300.318 316.852   6
   4  -6   1 305.560 339.871   9
  -4   6  -1 183.571 311.116   1
  -4   6  -1 907.356 501.836   8
   4   6   1-106.634 393.090  12
  -4  -6  -1 359.369 228.360   7
   4   6   1 219.370 302.891   2
  -4  -6  -1 377.792 279.769  10
   4   6   2 4064.92 782.443   6
   4  -6   2 3647.30 781.596   6
   4  -6   2 2533.46 644.072   9
  -4   6  -2 3793.51 815.376   1
  -4   6  -2 2726.74 748.303   8
   4   6   2 3612.09 1005.33  12
   4   6   2 3528.46 658.968   2
  -4  -6  -2 2573.68 637.364  10
   4  -6   3 1055.63 589.007   6
  -4   6  -3 447.492 439.948   8
   4   6   3-757.343 563.856  12
   4   6   3 293.767 420.304   6
  -4  -6  -3 1030.99 569.363  10
   4   6   4 1.86221 344.214   5
   4  -6   4-366.487 454.879   5
  -4   6  -4-88.7015 296.759   8
  -4   7   7 1095.48 490.104   1
   4  -7  -6 721.810 651.690   9
  -4   7   6-219.725 469.448   1
  -4   7   6 596.795 473.651   3
  -4  -7   6 349.385 371.256   7
  -4   7   5 11621.8 1519.16   1
  -4   7   5 14803.6 1632.87   8
   4   7  -5 15312.1 1546.86   2
  -4   7   5 13641.9 1544.06  13
  -4  -7   5 14990.1 1828.91   7
  -4   7   5 16650.0 1641.60   3
   4  -7  -5 14678.1 1923.48   9
   4  -7  -4 2288.02 820.638   9
  -4   7   4 4385.92 924.341   8
  -4   7   4 4196.94 806.385  13
  -4  -7   4 3517.74 906.443   7
   4   7  -4 3288.59 766.502   2
  -4   7   4 2742.81 805.863   1
  -4   7   3 1871.16 632.294   1
   4  -7  -3 2704.42 755.279   9
  -4   7   3 1343.50 602.863   8
  -4   7   3 2409.99 574.483  13
  -4  -7   3 987.565 489.827   7
   4   7  -3 1477.56 513.956   2
   4  -7  -2 267.041 287.920   9
  -4   7   2 434.236 384.093   8
  -4   7   2 308.085 313.650   1
  -4  -7   2 378.324 253.384   7
   4   7  -2 467.306 381.167   2
   4   7  -1 3682.86 733.721   2
   4  -7  -1 3469.23 807.937   9
  -4   7   1 3964.28 922.476   1
  -4   7   1 3677.02 925.124   8
  -4  -7   1 3372.11 730.129   7
  -4  -7   1 4531.60 810.395  10
   4  -7   0 6115.09 1081.77   9
  -4   7   0 6365.42 1149.08   8
   4   7   0 7412.80 1038.04   2
  -4  -7   0 7440.18 996.611   7
  -4  -7   0 4335.01 779.447  10
  -4   7   0 6985.94 1209.87   1
   4  -7   1-149.137 319.154   9
  -4   7  -1 362.553 356.827   1
  -4   7  -1-127.674 329.514   8
   4   7   1-486.074 561.786  12
  -4  -7  -1 174.649 342.062  10
   4   7   1 286.859 389.170   2
  -4   7  -2 193.747 456.665   8
   4   7   2 131.519 448.124  12
  -4   7  -2 198.713 385.800   1
   4   7   2 51.0613 299.117   2
  -4  -7  -2-274.315 599.132  10
  -4   7  -3 3006.83 863.033   8
  -4   8   5 5469.54 1033.53   3
  -4   8   5 4811.32 1001.36   8
  -4   8   5 4708.98 943.342  13
  -4   8   5 4145.48 976.500   1
  -4  -8   5 4938.35 1159.00   7
   4   8  -5 4586.50 886.155   2
   4  -8  -4-618.879 469.558   9
  -4   8   4-589.997 469.460   8
  -4   8   4-64.3596 332.806  13
  -4  -8   4-80.9597 328.144   7
  -4   8   4-182.067 318.556   1
   4   8  -4 342.664 416.322   2
   4  -8  -3-362.787 500.168   9
  -4   8   3-503.879 398.638   8
  -4   8   3 349.210 424.617  13
  -4  -8   3 464.667 467.176   7
  -4   8   3 74.4833 331.001   1
   4   8  -3-276.860 361.662   2
   4   8  -2 2047.79 618.455   2
   4  -8  -2 764.078 443.203   9
  -4   8   2 1007.30 466.356   8
  -4   8   2 1724.50 604.348  13
  -4   8   2 1127.05 584.434   1
  -4  -8   2 1684.29 630.695   7
  -4  -8   2 2006.94 643.500  10
   4   8  -1 2744.51 669.148   2
   4  -8  -1 2478.95 730.165   9
  -4   8   1 3059.41 842.883   8
  -4   8   1 2432.00 775.448   1
  -4  -8   1 1400.01 520.124  10
   4   8   0 2562.43 690.687   2
   4  -8   0 712.353 530.702   9
  -4   8   0 1644.99 610.595   1
  -4   8   0 2356.14 782.487   8
  -4  -8   0 336.280 471.849  10
   4   8   1 327.741 315.277   2
   4  -8   1-515.197 391.782   9
  -4   8  -1-181.133 369.697   8
   4   8   1 440.900 383.556  12
  -4   8  -1 152.766 342.581   1
  -4  -8  -1-956.847 654.018  10
  -4   8  -2 798.508 489.787   1
  -4  -8  -2 735.999 560.309  10
   4   8   2 735.270 362.123   2
  -4  -9   5 186.885 354.661   7
  -4   9   4 5462.49 1085.48   8
   4  -9  -3 1511.53 755.601   9
  -4   9   3 1987.55 686.529   8
   4  -9  -2-228.251 482.226   9
  -4  -9   2-94.6461 293.291  10
   4  -9  -1 1349.13 682.263   9
   4   9  -1 547.368 366.602   2
  -4   9   1 519.321 580.104   8
  -4   9   1 966.483 612.341   1
  -4  -9   1 62.8154 354.561  10
   4   9   0 3749.92 823.960   2
   4  -9   0 2842.89 879.778   9
  -4   9   0 3407.22 937.958   1
  -4  -9   0 1568.90 468.913  10
   4   9   1 4517.84 905.072   2
  -4   9  -1 4381.44 1097.17   1
   4   9   2-413.314 406.727   2
  -5   0   8 1080.50 662.213   7
   5   0  -7 1158.27 551.188   9
   5   0  -7 857.681 617.789   6
   5   0  -7 304.429 504.809  14
  -5   0   7 1199.98 727.465   7
   5   0  -6 19106.8 1737.54   9
   5   0  -6 19004.7 2068.29   6
   5   0  -6 15869.1 1756.68  14
  -5   0   6 17463.7 1900.09   7
   5   0  -5 56993.2 3374.45   6
   5   0  -5 57864.7 2880.41   9
  -5   0   5 54417.0 3226.87   7
   5   0  -4 12800.8 1359.22   9
   5   0  -4 11547.7 1254.10  14
  -5   0   4 10787.9 1393.31   7
   5   0  -4 12100.5 1500.40   6
   5   0  -3-110.445 324.658   9
   5   0  -3 171.435 425.985   6
   5   0  -3 246.228 249.232  14
  -5   0   3 793.193 566.927   7
   5   0  -2 995.062 387.307   6
   5   0  -2 997.704 380.122   9
   5   0  -2 1787.99 499.665  14
  -5   0   2 885.823 403.062   7
   5   0  -1 100991. 3306.35   9
   5   0  -1 92895.6 2752.85  14
   5   0  -1 94695.8 2359.92  12
  -5   0   1 95184.3 3862.72   7
   5   0   0 36253.2 1932.96   9
  -5   0   0 36082.9 2332.03   8
  -5   0   0 34394.3 2417.44   7
   5   0   0 33764.7 1642.16  12
   5   0   0 37568.6 2336.08   6
   5   0   1 197.788 368.458   6
   5   0   1 433.118 320.675   9
  -5   0  -1-140.885 238.921   8
   5   0   1 12.7021 235.429  12
  -5   0  -1 303.153 604.979   7
   5   0   2 3252.57 805.936   6
   5   0   2 3361.51 627.272   9
  -5   0  -2 3577.44 757.027   8
   5   0   2 2681.86 613.369  12
  -5   0  -2 3761.59 909.460   7
  -5   0  -2 4005.35 700.773  11
  -5   0  -2 3159.27 620.819  10
   5   0   3-306.363 404.096   5
   5   0   3-98.3244 271.617   9
   5   0   3 308.249 396.310  12
  -5   0  -3 555.065 380.286  11
  -5   0  -3-98.0155 276.268  10
   5   0   4 2882.96 877.021   5
   5   0   4 2254.97 696.266  12
  -5   0  -4 2029.71 679.608  11
  -5   0  -4 2600.79 699.311  10
  -5   1   8 15965.1 1891.70   7
  -5  -1   8 19612.9 2324.05   7
   5  -1  -7 3481.84 826.948   9
   5   1  -7 4012.06 1044.10   6
   5  -1  -7 3262.34 967.933   6
   5   1  -7 1512.67 632.146  14
   5  -1  -7 3086.86 860.404  14
  -5   1   7 3471.71 918.285   7
  -5  -1   7 2970.03 914.236   7
   5  -1  -6 1474.02 533.630   9
   5   1  -6 797.037 428.228   9
   5   1  -6 1732.55 769.180   6
   5  -1  -6 251.296 398.985   6
   5   1  -6 347.701 299.428  14
   5  -1  -6 678.254 369.366  14
  -5   1   6 794.965 414.795   7
  -5  -1   6 315.096 348.465   7
   5  -1  -5 3256.77 757.764   9
   5   1  -5 3133.23 689.117   9
   5   1  -5 2915.45 932.584   6
   5  -1  -5 2654.90 861.859   6
   5   1  -5 2614.26 608.967  14
   5  -1  -5 2463.70 704.492  14
  -5   1   5 3579.25 860.549   7
  -5  -1   5 2677.43 800.627   7
   5  -1  -4 13489.8 1422.96   9
   5   1  -4 15713.8 1459.78   9
   5   1  -4 13868.7 1339.57  14
   5  -1  -4 12186.9 1319.72  14
  -5   1   4 14915.9 1642.77   7
  -5  -1   4 12079.4 1479.61   7
   5   1  -4 14594.6 1620.32   6
   5  -1  -4 15066.6 1620.61   6
   5  -1  -3 36669.7 2243.85   9
   5   1  -3 32013.4 1960.96   9
   5   1  -3 30228.2 1797.33  14
   5  -1  -3 28861.2 1930.16  14
  -5   1   3 33504.1 2297.80   7
  -5  -1   3 31191.3 2283.05   7
   5   1  -3 32457.7 2232.05   6
   5  -1  -3 31898.7 2195.48   6
   5   1  -2 1534.79 434.661   6
   5  -1  -2 1805.59 515.336   6
   5  -1  -2 1649.17 440.095   9
   5   1  -2 2119.71 524.548   9
   5   1  -2 1466.73 393.832  14
   5  -1  -2 1986.43 541.255  14
   5   1  -2 2048.16 346.236  12
  -5   1   2 1570.59 563.701   7
  -5  -1   2 1905.00 580.038   7
   5   1  -1 2083.01 820.276   6
   5  -1  -1 1220.86 779.151   6
   5  -1  -1 1494.36 613.722   9
   5   1  -1 1628.81 617.388   9
   5   1  -1 816.974 374.025  14
   5  -1  -1 2409.15 444.734  12
   5   1  -1 1323.22 428.899  12
  -5   1   1 551.963 556.111   7
  -5  -1   1 1185.58 568.698   7
   5  -1   0 24803.3 1662.79   9
   5   1   0 27422.1 1685.94   9
  -5   1   0 24744.7 1960.31   8
  -5   1   0 25583.9 2085.95   7
  -5  -1   0 26460.1 2119.84   7
   5  -1   0 24565.3 1398.01  12
   5   1   0 26066.7 1566.73  12
   5   1   0 28722.1 2097.94   6
   5  -1   0 28149.8 2108.95   6
   5   1   1 927.105 496.488   6
   5  -1   1 763.709 496.026   6
   5  -1   1 335.107 302.276   9
   5   1   1 806.160 379.218   9
  -5   1  -1 45.3615 261.274   8
  -5  -1  -1 316.689 363.067   8
   5  -1   1 161.954 227.000  12
   5   1   1 112.753 292.704  12
  -5   1  -1 301.428 293.891   7
  -5  -1  -1 192.033 348.477   7
  -5  -1  -1 382.185 289.954  11
   5   1   2 676.633 834.860   6
   5  -1   2 2441.74 1036.28   6
   5  -1   2 613.303 395.391   9
   5   1   2 1364.01 478.306   9
  -5   1  -2 7566.90 1069.91   8
  -5  -1  -2 4785.85 1092.38   8
  -5   1  -2 5943.78 1371.36   7
  -5  -1  -2 1835.49 1343.97   7
   5  -1   2 640.341 411.322  12
   5   1   2 325.879 447.488  12
  -5  -1  -2 6182.73 826.039  11
  -5  -1  -2 3059.71 851.231  10
  -5   1  -2 2095.51 615.417  10
   5   1   3 627.077 368.893   5
   5  -1   3 959.943 576.935   5
   5  -1   3 893.206 348.934   9
   5   1   3 423.539 315.179   9
   5  -1   3 767.717 395.785  12
   5   1   3 901.489 453.100  12
  -5  -1  -3 439.418 320.949  11
  -5   1  -3 931.717 400.032  10
  -5  -1  -3 1011.58 342.034  10
   5   1   4 250.173 493.047   5
   5  -1   4 356.626 446.211   5
   5  -1   4 285.172 392.198  12
   5   1   4-547.120 466.070  12
  -5  -1  -4-846.404 547.099  11
  -5   1  -4 283.368 521.624  11
  -5  -1  -4-11.1821 289.356  10
  -5   2   8 1710.41 756.744   7
   5  -2  -7 1119.27 498.689   9
   5   2  -7 423.888 464.440   6
   5  -2  -7 495.271 638.103   6
   5   2  -7 671.720 432.884  14
   5  -2  -7 299.146 511.162  14
  -5   2   7 650.675 462.187   7
  -5  -2   7 937.599 624.780   7
   5   2  -6 7911.95 1055.33   9
   5  -2  -6 7035.28 1134.30   9
   5   2  -6 8332.84 1412.45   6
   5  -2  -6 7146.52 1288.82   6
   5   2  -6 7337.89 1187.48  14
   5  -2  -6 6846.82 1159.60  14
  -5   2   6 6664.51 1159.40   7
  -5  -2   6 5346.73 1108.52   7
   5   2  -5 12667.7 1649.44   6
   5  -2  -5 11241.2 1535.04   6
   5  -2  -5 10421.3 1373.34   9
   5   2  -5 11666.4 1302.79   9
   5   2  -5 11355.6 1323.05  14
   5  -2  -5 10333.4 1344.15  14
  -5   2   5 13451.8 1565.62   7
  -5  -2   5 10255.9 1509.56   7
   5  -2  -4 18126.8 1678.44   9
   5   2  -4 13769.9 1297.40   9
   5   2  -4 16977.8 1464.22  14
   5  -2  -4 17225.3 1647.58  14
  -5   2   4 17523.6 1710.30   7
  -5  -2   4 14410.6 1615.20   7
   5   2  -4 17497.2 1812.69   6
   5  -2  -4 18734.7 1814.86   6
   5   2  -3 6546.52 854.199   9
   5  -2  -3 6452.08 965.321   9
   5   2  -3 7152.39 1090.68   6
   5  -2  -3 6825.83 1057.41   6
   5   2  -3 7641.19 917.750  14
   5  -2  -3 7927.96 1057.42  14
  -5   2   3 7984.65 1141.37   7
  -5  -2   3 6974.87 1151.27   7
   5  -2  -2 349.727 436.809   9
   5   2  -2 370.197 331.963   6
   5  -2  -2 133.341 283.302   6
   5   2  -2 1331.54 485.185   9
   5   2  -2 481.646 273.745  14
   5   2  -2 359.962 238.671  12
  -5   2   2 75.1786 386.925   7
  -5  -2   2 71.0609 426.923   7
   5  -2  -1 33009.6 2094.38   9
  -5   2   1 33798.9 2390.43   8
   5   2  -1 32120.9 1554.91  14
   5  -2  -1 31180.1 1431.33  12
  -5   2   1 33787.3 2349.30   7
  -5  -2   1 31302.0 2228.62   7
   5   2  -1 33569.0 1774.82  12
   5   2  -1 33237.6 2219.56   6
   5  -2  -1 33961.8 2259.44   6
   5  -2   0 43028.6 2281.04   9
  -5   2   0 43896.8 2679.10   8
  -5   2   0 43306.4 2727.44   7
   5  -2   0 43455.2 1937.14  12
  -5  -2   0 46519.0 2774.86   7
   5   2   0 43912.9 2200.02  12
  -5  -2   0 43296.3 1611.45  11
   5   2   0 48899.6 2706.78   6
   5  -2   0 47193.0 2694.69   6
   5  -2   1 7276.26 925.761   9
  -5   2  -1 7698.98 1166.67   8
  -5  -2  -1 7628.35 1039.60   8
  -5   2  -1 8197.00 1296.34   7
  -5  -2  -1 8382.73 1236.79   7
   5  -2   1 7448.86 887.501  12
   5   2   1 8012.45 1069.62  12
  -5  -2  -1 7201.92 786.055  11
  -5  -2  -1 8845.44 1047.36  10
   5   2   1 7976.03 1160.68   6
   5  -2   1 7423.88 1134.53   6
   5   2   2 1445.74 652.953   6
   5  -2   2 774.274 507.150   6
   5  -2   2 644.926 265.475   9
  -5   2  -2 1202.42 476.822   8
   5  -2   2 926.314 371.206  12
   5   2   2 1536.57 549.569  12
  -5  -2  -2 624.337 523.150   7
  -5  -2  -2 814.477 345.835  11
  -5  -2  -2 1029.31 491.021  10
  -5   2  -2 1467.54 470.964  10
   5   2   3 2649.24 798.541   5
   5  -2   3 2344.11 724.103   5
  -5   2  -3 2036.80 640.353   8
   5  -2   3 2277.75 676.870  12
   5   2   3 2372.32 725.373  12
  -5  -2  -3 1736.23 486.921  11
  -5  -2  -3 1910.44 571.528  10
   5  -2   4 3218.35 838.473  12
   5   2   4 2538.90 858.869  12
  -5  -2  -4 2136.42 739.180  11
  -5   2  -4 3302.85 915.650  11
  -5  -2  -4 3929.59 888.138  10
   5  -3  -7 5034.30 1029.25   9
   5  -3  -7 4979.45 1187.11   6
   5   3  -7 4843.18 1091.37   6
   5   3  -7 5912.68 1207.56  14
   5  -3  -7 5588.33 1171.31  14
  -5   3   7 3659.17 844.524   7
  -5  -3   7 5298.38 1182.84   7
   5  -3  -6 3940.93 922.914   9
   5   3  -6 4606.05 812.879   9
   5   3  -6 4767.32 1183.75   6
   5  -3  -6 3779.56 981.970   6
   5   3  -6 4267.31 923.353  14
   5  -3  -6 4101.36 938.977  14
  -5   3   6 3686.79 874.253   7
  -5  -3   6 3794.92 969.821   7
   5  -3  -5 255.147 426.118   9
   5   3  -5 173.687 210.264   9
   5   3  -5 387.851 525.742   6
   5  -3  -5-285.557 470.853   6
   5   3  -5-99.2378 272.798  14
   5  -3  -5 602.695 474.590  14
  -5   3   5-281.900 228.204  13
  -5   3   5 620.048 403.735   7
  -5  -3   5 402.286 357.836   7
   5  -3  -4-30.6565 330.883   9
   5   3  -4-80.1102 331.655   9
   5   3  -4 1146.04 542.422   6
   5  -3  -4 12.3490 325.399   6
   5   3  -4 1426.72 547.418  14
   5  -3  -4 976.788 566.587  14
  -5   3   4 923.654 353.587  13
  -5   3   4 279.165 330.559   7
  -5  -3   4 111.168 400.149   7
   5  -3  -3 37598.5 2481.93   9
   5   3  -3 37540.2 2112.56   9
   5   3  -3 37057.1 1928.84  14
  -5   3   3 38247.1 2436.69   7
  -5  -3   3 38857.1 2599.41   7
   5   3  -3 39179.1 2462.89   6
   5  -3  -3 36821.8 2390.76   6
   5  -3  -2 25587.7 1970.16   9
  -5   3   2 26543.9 2215.58   8
   5   3  -2 25594.8 1449.22  14
  -5   3   2 25917.3 2043.12   7
  -5  -3   2 25114.1 2034.74   7
   5   3  -2 28992.1 1767.15  12
   5   3  -2 25392.9 1894.23   6
   5  -3  -2 25102.6 1909.01   6
   5   3  -1 1175.54 539.173   6
   5  -3  -1 1988.98 601.255   6
   5  -3  -1 1992.56 579.393   9
   5   3  -1 1585.25 359.422  14
  -5   3   1 1715.36 599.123   8
   5   3  -1 1135.47 393.706  12
  -5   3   1 1467.32 560.686   7
  -5  -3   1 1476.09 475.214   7
   5   3   0 994.747 505.744   6
   5  -3   0 749.079 498.411   6
   5  -3   0 645.468 454.814   9
  -5   3   0 643.044 438.880   8
   5  -3   0 152.955 305.112  12
   5   3   0-3.15734 291.334  12
  -5   3   0 408.383 486.923   7
  -5  -3   0 638.696 452.348   7
   5   3   1 2704.44 674.270   6
   5  -3   1 2437.16 656.663   6
   5  -3   1 1370.43 415.261   9
  -5   3  -1 3475.33 845.331   8
   5  -3   1 1969.85 466.959  12
   5   3   1 2943.24 677.912  12
  -5   3  -1 1867.56 671.105   7
  -5  -3  -1 2174.79 641.027   7
  -5  -3  -1 2453.18 656.459  10
   5  -3   2 8031.59 1027.40   9
  -5   3  -2 7386.47 1166.48   8
  -5  -3  -2 9501.97 1354.86   7
   5  -3   2 7228.15 1005.42  12
   5   3   2 8860.77 1227.88  12
  -5  -3  -2 7073.59 1060.94  10
   5   3   2 8562.70 1267.49   6
   5  -3   2 10041.2 1372.09   6
  -5   3  -3 944.102 483.527   8
   5  -3   3 578.659 408.060  12
   5   3   3 442.536 463.958  12
  -5  -3  -3 1291.02 533.801  11
   5   3   3 476.056 531.803   6
   5  -3   3 744.512 565.835   6
  -5  -3  -3-135.334 402.590  10
   5  -3   4 1140.36 621.691  12
  -5  -3  -4 1808.84 660.414  11
   5  -4  -8 2262.05 846.236   9
   5  -4  -7 2598.76 909.974   9
   5  -4  -7 3569.75 996.147   6
   5   4  -7 3156.59 1009.78   6
   5   4  -7 1782.57 620.977  14
  -5  -4   7 2749.67 927.834   7
   5  -4  -6 2871.26 832.678   9
   5   4  -6 3169.39 1012.48   6
   5  -4  -6 2625.00 781.676   6
   5   4  -6 3607.38 832.191  14
  -5   4   6 2351.52 563.230  13
  -5  -4   6 1616.26 676.956   7
   5  -4  -5 41.2391 304.405   9
   5   4  -5 406.433 276.065   9
   5   4  -5 347.136 329.290   6
   5  -4  -5 524.258 506.250   6
   5   4  -5 1454.34 538.832  14
  -5   4   5 375.188 185.578  13
  -5   4   5-92.3436 358.192   7
  -5  -4   5 716.555 400.397   7
   5  -4  -4 11238.6 1440.15   9
   5   4  -4 14516.8 1310.28   9
  -5   4   4 10626.2 1478.29   8
   5   4  -4 11382.9 1141.72  14
  -5   4   4 15063.4 1137.63  13
  -5   4   4 12424.4 1417.13   7
  -5  -4   4 13778.6 1634.20   7
   5   4  -4 13714.5 1598.03   6
   5  -4  -4 13134.0 1577.06   6
   5  -4  -3 17944.4 1779.68   9
  -5   4   3 15174.3 1700.53   8
   5   4  -3 16774.1 1257.57  14
  -5   4   3 18424.3 1683.02   7
  -5  -4   3 17726.1 1770.67   7
   5   4  -3 17390.6 1715.02   6
   5  -4  -3 16636.6 1617.06   6
   5  -4  -2 403.111 373.783   9
   5   4  -2 459.755 368.189   6
   5  -4  -2 619.778 339.989   6
   5   4  -2 871.069 303.941  14
  -5   4   2 1260.54 660.614   8
   5   4  -2 920.035 487.015  12
  -5   4   2 1125.25 557.904   7
  -5  -4   2 929.309 517.135   7
   5   4  -1 4871.14 631.341  14
  -5   4   1 6298.72 1155.35   8
   5   4  -1 6754.11 1153.37  12
  -5   4   1 4740.42 982.630   7
  -5  -4   1 5943.30 1052.18   7
   5   4  -1 8202.49 1206.23   6
   5  -4  -1 5598.47 1172.10   6
   5  -4   0 24481.7 1928.27   9
  -5   4   0 26907.9 2271.38   8
  -5   4   0 28745.0 2250.21   7
  -5  -4   0 29144.0 2237.88   7
   5   4   0 30601.2 2187.59  12
   5   4   0 29746.2 2131.63   6
   5  -4   0 30194.0 2199.72   6
   5  -4   1 10426.1 1207.53   9
  -5   4  -1 11841.6 1479.30   8
  -5   4  -1 12059.9 1561.60   7
  -5  -4  -1 10927.1 1405.05   7
   5   4   1 12856.3 1498.97  12
  -5  -4  -1 12651.3 1346.89  10
   5   4   1 12667.0 1445.50   6
   5  -4   1 11667.4 1437.23   6
   5   4   2 818.484 573.530   6
   5  -4   2 702.852 483.441   6
   5  -4   2 371.311 233.611   9
  -5   4  -2 732.143 418.848   8
   5  -4   2 47.9316 302.734  12
   5   4   2-37.5123 299.701  12
  -5  -4  -2 543.825 514.823   7
  -5  -4  -2 528.885 336.269  10
   5   4   3 6479.63 1158.62   6
   5  -4   3 4204.77 985.345   6
  -5   4  -3 3605.10 858.138   8
   5  -4   3 3488.08 784.059  12
   5   4   3 4554.00 1015.06  12
  -5  -4  -3 2905.32 788.497  10
   5  -5  -7 1266.06 588.929   9
   5  -5  -7 504.722 606.358   6
   5   5  -7 1396.69 647.763   6
  -5   5   7 256.726 262.721   8
   5  -5  -6 1284.12 713.007   9
   5   5  -6 287.852 411.137   6
   5  -5  -6 127.329 481.807   6
   5   5  -6 1014.62 536.730  14
  -5   5   6 334.010 367.150   8
  -5   5   6-89.4861 320.095  13
  -5  -5   6 1298.70 798.024   7
   5  -5  -5 890.337 534.904   9
   5   5  -5 1180.11 422.062   9
  -5   5   5 259.820 294.586   3
   5   5  -5 336.786 451.641   6
   5  -5  -5 522.558 495.387   6
   5   5  -5 605.980 393.062  14
  -5   5   5 319.913 438.292   8
  -5   5   5 1473.52 494.839  13
  -5  -5   5-104.791 376.406   7
   5  -5  -4 1046.60 568.930   9
   5   5  -4 1570.08 647.591   6
   5  -5  -4 813.687 531.669   6
   5   5  -4 1348.49 477.858  14
  -5   5   4 373.678 416.527   8
  -5   5   4 568.185 336.282  13
  -5   5   4 398.325 277.914   7
  -5  -5   4 781.097 510.214   7
   5  -5  -3 13678.1 1642.72   9
  -5   5   3 14484.6 1714.52   8
   5   5  -3 16829.7 1299.33  14
  -5   5   3 14691.0 1499.20   7
  -5  -5   3 15714.8 1713.12   7
   5   5  -3 16589.1 1703.46   6
   5  -5  -3 14526.3 1549.46   6
   5  -5  -2 5394.14 984.803   9
   5   5  -2 5310.10 910.619   6
   5  -5  -2 5435.92 938.123   6
   5   5  -2 6073.89 737.643  14
  -5   5   2 5247.24 1068.31   8
  -5   5   2 5591.67 972.651   7
  -5  -5   2 5870.87 1056.43   7
   5  -5  -1 183.526 309.321   9
   5   5  -1-539.441 492.770   6
   5  -5  -1 89.2191 318.451   6
   5   5  -1 948.792 330.392  14
  -5   5   1 368.971 328.344   8
  -5   5   1 407.447 320.175   7
   5   5  -1-80.3110 377.372  12
  -5  -5   1 270.703 275.216   7
   5   5   0 2475.23 675.454   6
   5  -5   0 2881.31 795.421   6
   5  -5   0 2295.09 686.003   9
  -5   5   0 2674.15 796.291   8
  -5   5   0 2609.58 764.359   7
   5   5   0 2859.02 757.489  12
  -5  -5   0 2125.76 699.258   7
  -5  -5   0 2745.15 696.009  10
   5   5   1 1145.45 478.076   6
   5  -5   1 1183.82 540.374   6
   5  -5   1-49.3722 289.516   9
  -5   5  -1 474.473 385.751   8
   5   5   1 883.696 526.443  12
  -5  -5  -1 1524.68 632.804   7
  -5  -5  -1 1193.23 514.379  10
   5   5   2 3043.36 789.848   6
   5  -5   2 2630.29 791.588   6
  -5   5  -2 3210.94 903.539   8
   5   5   2 2291.90 837.587  12
  -5  -5  -2 2095.34 688.501   7
  -5  -5  -2 2794.00 770.906  10
  -5   5  -2 2703.75 712.224   1
   5   5   3 673.551 611.059   6
   5  -5   3 652.113 489.149   6
  -5   5  -3 900.844 530.274   8
   5   5   3-560.002 507.057  12
   5  -6  -7 412.264 523.792   6
  -5  -6   7-810.477 493.379   5
  -5   6   7-264.396 471.595  13
   5  -6  -6 2724.18 944.008   9
   5   6  -6 2864.66 845.604   6
   5  -6  -6 3020.86 930.855   6
  -5   6   6 2867.29 818.221   8
  -5   6   6 2323.05 680.173  13
   5   6  -5 12293.2 1636.26   6
   5  -6  -5 10010.7 1449.92   6
   5   6  -5 11630.9 1211.57   9
  -5   6   5 10423.8 1466.65   8
   5   6  -5 10652.0 1269.24  14
  -5   6   5 9447.13 1156.08  13
  -5  -6   5 9280.61 1522.66   7
   5  -6  -5 11700.0 1712.00   9
   5  -6  -4 1822.27 771.912   9
   5   6  -4 2264.80 690.278   6
   5  -6  -4 1785.84 617.086   6
   5   6  -4 3670.68 707.065  14
  -5   6   4 1734.63 671.382   8
  -5   6   4 1961.10 569.549  13
  -5  -6   4 2202.10 761.675   7
   5  -6  -3 100.507 341.599   9
   5   6  -3 103.244 362.224   6
   5  -6  -3 98.4818 274.968   6
   5   6  -3 941.098 429.968  14
  -5   6   3-205.960 375.571   8
  -5  -6   3-456.563 375.322   7
   5  -6  -2 384.638 403.577   9
   5   6  -2 386.247 370.214   6
   5  -6  -2 196.504 403.925   6
  -5   6   2 53.0293 427.319   8
  -5   6   2 167.158 318.968   7
  -5  -6   2 263.866 488.461   7
   5  -6  -1 16121.0 1762.33   9
  -5   6   1 16740.7 1902.75   8
  -5   6   1 15711.3 1657.22   7
  -5  -6   1 17396.0 1749.10   7
   5   6  -1 18654.0 1931.08  12
   5   6  -1 15762.0 1510.99   6
   5  -6  -1 18240.1 1713.70   6
   5  -6   0 7959.06 1238.91   9
  -5   6   0 8323.50 1388.64   8
  -5  -6   0 7703.47 1129.33   7
   5   6   0 8804.59 1400.51  12
  -5   6   0 7782.89 1277.18   1
  -5  -6   0 8659.23 1177.56  10
   5   6   0 9523.25 1276.34   6
   5  -6   0 8843.60 1269.46   6
   5   6   1-228.112 373.169   6
   5  -6   1-404.511 370.021   6
   5  -6   1-282.030 262.377   9
  -5   6  -1 791.917 473.818   8
   5   6   1 446.542 440.371  12
  -5  -6  -1-87.5763 282.873   7
  -5   6  -1-108.795 292.092   1
  -5  -6  -1-54.3822 339.778  10
   5   6   2-114.256 451.572   6
   5  -6   2 312.276 373.535   6
  -5   6  -2 537.249 605.919   8
   5   6   2-356.221 461.074  12
   5   6   3 387.004 597.045   6
   5  -6   3 422.521 409.401   6
  -5   7   6 2362.77 784.822   8
  -5   7   6 2654.72 673.449  13
   5   7  -5 637.689 452.240  14
  -5   7   5 1054.98 597.954   8
  -5   7   5 1309.96 582.280  13
  -5  -7   5 797.105 447.876   7
   5  -7  -4 6973.31 1341.62   9
  -5   7   4 6975.35 1288.87   1
   5   7  -4 9750.06 1149.38  14
  -5   7   4 7992.29 1332.03   8
  -5   7   4 6899.76 993.358  13
  -5  -7   4 6895.92 1260.39   7
   5  -7  -3 3406.18 961.336   9
  -5   7   3 3682.87 1009.60   1
  -5   7   3 6501.34 1267.54   8
  -5  -7   3 5291.38 1078.32   7
   5   7  -3 5529.87 1014.65   2
   5  -7  -2 888.790 422.115   9
  -5   7   2 1381.75 501.899   8
  -5  -7   2 847.256 449.454   7
   5   7  -2 426.570 434.459   2
  -5   7   2 918.705 469.832   1
   5  -7  -1 319.444 486.216   9
  -5   7   1 579.187 478.529   1
  -5   7   1 275.621 376.242   8
  -5  -7   1 391.081 408.664   7
   5   7  -1 198.168 404.190   2
  -5  -7   1 1512.12 660.312  10
   5  -7   0 6396.71 1120.78   9
  -5   7   0 9247.75 1461.19   1
  -5   7   0 8560.06 1417.69   8
   5   7   0 8175.51 1453.76  12
   5   7   0 6960.10 1092.91   2
  -5  -7   0 7379.60 1178.78  10
   5  -7   1 19.8283 304.683   9
   5   7   1 557.377 476.108  12
  -5   7  -1 301.975 379.857   1
  -5   8   4 1362.44 704.900   8
  -5  -8   4 1622.54 691.625   7
  -5   8   3-445.666 466.163   8
  -5  -8   3 885.532 619.093   7
   5  -8  -2-450.101 556.005   9
  -5  -8   2 1282.32 563.524  10
   5  -8  -1 6285.24 1240.66   9
  -5  -8   1 7535.96 1194.83  10
   5  -8   0 3023.30 843.684   9
   5   8   0 3317.87 1069.03  12
   5   8   0 5023.04 1002.10   2
   5   8   1-120.129 442.735   2
  -5  -9   2 1023.25 523.999  10
   6   0  -7 1036.97 567.302   9
   6   0  -7-24.3250 401.901  14
  -6   0   7 541.980 488.726   7
   6   0  -6 8218.07 1295.02   9
   6   0  -6 6099.97 1295.51   6
   6   0  -6 4748.87 1045.37  14
  -6   0   6 7036.47 1364.07   7
   6   0  -5 410.656 521.997   9
   6   0  -5 183.517 528.106   6
   6   0  -5-395.406 329.043  14
  -6   0   5 769.187 564.747   7
   6   0  -4 29729.4 2322.89   9
   6   0  -4 24307.3 1985.16  14
  -6   0   4 29348.3 2482.50   7
   6   0  -4 29227.4 2445.61   6
   6   0  -3 1736.93 554.791   9
   6   0  -3 1489.95 549.395   6
   6   0  -3 1435.92 435.269  14
  -6   0   3 1318.36 681.290   7
   6   0  -2 2926.95 806.473   6
   6   0  -2 2807.82 725.835   9
   6   0  -2 2111.64 547.879  14
  -6   0   2 1719.97 683.149   7
   6   0  -1 10391.2 1219.96   9
  -6   0   1 10743.5 1480.53   7
   6   0  -1 11052.6 1466.09   6
   6   0   0 9149.59 1131.07   9
  -6   0   0 9119.36 1334.10   8
  -6   0   0 10810.0 1542.68   7
   6   0   0 11446.4 1508.23   6
   6   0   1 3767.78 1035.56   6
   6   0   1 4270.15 816.529   9
  -6   0  -1 9410.29 1289.98   8
  -6   0  -1 7333.83 1522.49   7
  -6   0  -1 6676.37 961.075  10
   6   0   2 1128.22 682.473   6
   6   0   2-5.46931 372.588   9
   6   0   2 223.348 280.929  12
  -6   0  -2-260.456 359.935   7
  -6   0  -2 1134.28 454.939  11
  -6   0  -2 1510.94 522.009  10
   6   0   3-152.620 327.143  12
  -6   0  -3 594.633 426.709  11
  -6   0  -3-880.240 528.982  10
   6  -1  -7 1860.73 736.662   9
   6   1  -7 1881.00 628.592   9
  -6   1   7 1499.24 593.130   7
   6  -1  -6 1049.33 523.623   9
   6   1  -6-323.226 429.870   9
   6   1  -6 609.432 506.328   6
   6  -1  -6-211.838 449.145   6
   6   1  -6 39.3992 303.790  14
   6  -1  -6-210.845 372.567  14
  -6   1   6 499.324 563.563   7
  -6  -1   6 412.957 479.866   7
   6  -1  -5 1841.78 708.457   9
   6   1  -5 1292.11 531.187   9
   6   1  -5 659.690 508.741   6
   6  -1  -5 1474.14 677.886   6
   6   1  -5 591.557 284.737  14
   6  -1  -5 1431.19 633.783  14
  -6   1   5 1558.18 668.679   7
  -6  -1   5 999.497 578.788   7
   6  -1  -4 8204.22 1318.19   9
   6   1  -4 6335.45 1050.50   9
   6   1  -4 7415.10 1280.66   6
   6  -1  -4 6298.70 1157.89   6
   6   1  -4 4819.89 916.548  14
   6  -1  -4 4708.19 897.941  14
  -6   1   4 6396.91 1211.18   7
  -6  -1   4 6627.55 1202.16   7
   6  -1  -3 43569.5 2814.60   9
   6   1  -3 40214.2 2528.25   9
   6   1  -3 36801.3 2272.15  14
   6  -1  -3 37324.5 2332.97  14
  -6   1   3 39724.9 2775.19   7
  -6  -1   3 42387.5 2899.59   7
   6   1  -3 42417.3 2885.70   6
   6  -1  -3 39090.4 2742.96   6
   6   1  -2 421.195 318.310   6
   6  -1  -2 117.624 357.398   6
   6  -1  -2 512.283 458.821   9
   6   1  -2 212.039 405.343   9
   6   1  -2 329.118 297.419  14
   6  -1  -2 396.109 295.020  14
  -6   1   2-68.2088 294.412   7
  -6  -1   2 183.599 348.465   7
   6   1  -1 3625.32 821.840   6
   6  -1  -1 3081.65 883.159   6
   6  -1  -1 2369.96 591.242   9
   6   1  -1 3113.89 689.486   9
  -6   1   1 1829.39 582.087   8
  -6   1   1 2402.60 687.866   7
  -6  -1   1 3688.29 880.892   7
   6   1   0 273.529 476.616   6
   6  -1   0 443.979 489.720   6
   6  -1   0 307.210 244.414   9
   6   1   0 767.103 443.412   9
  -6   1   0 793.719 540.795   8
  -6  -1   0 145.250 330.837   8
  -6   1   0-61.8576 314.128   7
  -6  -1   0 44.7485 372.784   7
   6   1   1 3611.43 923.935   6
   6  -1   1 3081.58 835.858   6
   6  -1   1 2873.37 646.108   9
   6   1   1 4672.03 831.731   9
  -6   1  -1 3460.52 870.389   8
  -6  -1  -1 2454.32 786.431   8
   6   1   1 2373.32 584.772  12
  -6   1  -1 4048.80 1000.58   7
  -6  -1  -1 5021.38 1112.60   7
  -6  -1  -1 4506.22 826.467  10
   6  -1   2 10142.9 1230.89   9
   6   1   2 9512.79 1140.82   9
  -6   1  -2 10787.7 1714.63   7
  -6  -1  -2 12559.2 1737.63   7
   6   1   2 9627.32 1285.19  12
  -6  -1  -2 11404.8 1312.96  10
  -6   1  -2 10175.8 1188.22  10
   6   1   2 12886.9 1691.49   6
   6  -1   2 11071.4 1602.85   6
   6   1   3-25.8052 273.196   9
   6  -1   3 45.6526 329.261  12
   6   1   3 51.9870 343.567  12
  -6  -1  -3-609.405 481.746  10
   6  -2  -7 302.673 407.512   9
  -6   2   7 1350.42 652.573   7
   6  -2  -6 343.294 462.783   9
   6   2  -6 520.900 396.670   9
   6   2  -6 132.216 602.433   6
   6  -2  -6-446.435 678.374   6
   6   2  -6-153.724 442.331  14
   6  -2  -6-237.221 421.545  14
  -6   2   6 238.628 480.392   7
  -6  -2   6-172.197 386.551   7
   6  -2  -5 1042.15 615.160   9
   6   2  -5 8.48353 327.412   9
   6   2  -5-481.432 581.906   6
   6  -2  -5 521.899 600.663   6
   6   2  -5-335.549 490.886  14
   6  -2  -5-220.104 379.391  14
  -6   2   5-159.865 453.966   7
  -6  -2   5-590.608 470.895   7
   6  -2  -4 9432.57 1450.24   9
   6   2  -4 3732.74 789.776   9
   6   2  -4 8002.61 1344.07   6
   6  -2  -4 8466.81 1374.15   6
   6   2  -4 8572.98 1152.30  14
   6  -2  -4 7617.34 1193.57  14
  -6  -2   4 8341.54 1363.36   7
  -6   2   4 7478.38 1244.24   7
   6  -2  -3 3757.80 862.136   9
   6   2  -3 5350.27 898.987   9
   6   2  -3 5268.09 1006.51   6
   6  -2  -3 5194.86 1109.19   6
   6   2  -3 4455.60 759.955  14
  -6   2   3 4112.04 1029.00   7
  -6  -2   3 6017.35 1143.44   7
   6  -2  -2 1243.33 510.848   9
   6   2  -2 723.638 483.938   6
   6  -2  -2 451.978 502.542   6
   6   2  -2 616.763 478.957   9
   6   2  -2 292.286 193.587  14
  -6   2   2 711.238 609.073   8
  -6   2   2 991.078 483.135   7
  -6  -2   2 2130.46 806.598   7
   6   2  -1 5810.19 924.824   9
   6   2  -1 4240.53 931.367   6
   6  -2  -1 5546.09 1091.73   6
   6  -2  -1 4666.69 967.244   9
  -6   2   1 4160.22 973.461   8
  -6   2   1 4785.76 1004.34   7
  -6  -2   1 6252.30 1116.00   7
   6   2   0 1162.14 580.813   6
   6  -2   0 1226.99 535.058   6
   6  -2   0 1356.15 579.726   9
   6   2   0 1309.32 463.155   9
  -6   2   0 691.836 483.283   8
  -6   2   0 955.125 649.497   7
  -6  -2   0 993.847 641.863   7
   6   2   1 6466.47 998.438   9
   6   2   1 5514.88 1173.14   6
   6  -2   1 5659.22 1294.04   6
   6  -2   1 5948.15 989.163   9
  -6   2  -1 7200.80 1334.95   8
  -6   2  -1 9601.20 1681.05   7
  -6  -2  -1 8870.57 1454.10   7
   6   2   1 4555.57 878.517  12
  -6  -2  -1 8212.64 1105.29  10
   6   2   2 1389.00 758.841   6
   6  -2   2 2427.73 893.688   6
   6  -2   2 902.892 451.233   9
   6   2   2 2231.24 675.641   9
  -6   2  -2 1898.41 735.470   8
   6   2   2 1790.64 674.210  12
  -6  -2  -2 1224.03 664.247   7
  -6  -2  -2 2225.05 658.634  10
   6   2   3 1564.12 558.031   9
   6   2   3 276.312 500.683  12
   6  -3  -7 483.093 530.905   9
  -6   3   7 904.187 625.363   7
   6  -3  -6 1245.19 475.673   9
   6   3  -6 1306.92 575.510   9
   6   3  -6 909.303 660.855   6
   6  -3  -6 1459.78 782.259   6
   6   3  -6 1107.56 521.435  14
   6  -3  -6 746.988 555.655  14
  -6   3   6 1263.71 487.350   7
  -6  -3   6 1841.68 790.858   7
   6  -3  -5 1790.56 671.130   9
   6   3  -5 381.727 340.956   9
   6   3  -5 1630.85 651.117   6
   6  -3  -5 1724.14 826.091   6
   6   3  -5 1920.79 659.641  14
  -6   3   5 1967.99 635.430   7
  -6  -3   5 2371.78 800.036   7
   6  -3  -4 827.473 597.192   9
   6   3  -4 1153.47 555.252   9
   6   3  -4 1731.02 711.337   6
   6  -3  -4 651.606 343.581   6
   6   3  -4 686.785 382.699  14
  -6   3   4 169.649 308.373   7
  -6  -3   4 1865.69 735.553   7
   6   3  -3 7590.73 1078.91   9
   6  -3  -3 6486.83 1159.93   9
   6   3  -3 6909.56 1309.21   6
   6   3  -3 7015.74 972.362  14
  -6   3   3 7244.15 1364.09   8
  -6   3   3 6658.80 1202.09   7
  -6  -3   3 6460.14 1256.96   7
   6  -3  -3 8199.56 1286.38   6
   6  -3  -2 2381.64 693.876   9
   6   3  -2 1256.17 503.268   6
   6  -3  -2 202.487 320.585   6
   6   3  -2 3557.46 764.399   9
  -6   3   2 955.487 571.787   8
  -6   3   2 1357.45 555.145   7
  -6  -3   2 1854.43 677.021   7
   6   3  -1 1415.93 581.671   6
   6  -3  -1 1100.36 612.126   6
   6  -3  -1 1514.31 586.570   9
   6   3  -1 2149.91 632.179   9
  -6   3   1 1159.31 622.446   8
  -6   3   1 1289.72 577.625   7
  -6  -3   1 1214.34 580.724   7
   6   3   0 622.081 530.420   6
   6  -3   0 439.006 556.967   6
   6  -3   0 505.117 343.660   9
  -6   3   0-229.309 405.438   8
  -6   3   0-0.57858 363.911   7
  -6  -3   0 791.870 551.366   7
   6   3   1 768.904 715.124   6
   6  -3   1 1865.33 924.300   6
   6  -3   1 853.637 497.950   9
  -6   3  -1 2867.62 918.135   8
   6   3   1 544.950 363.716  12
  -6   3  -1 2323.83 989.817   7
  -6  -3  -1 3170.56 961.981   7
  -6  -3  -1 2153.20 691.746  10
   6  -3   2 8356.73 1212.93   9
  -6   3  -2 10762.5 1562.21   8
   6   3   2 10968.7 1505.90  12
  -6  -3  -2 9100.70 1482.44   7
   6   3   2 12791.5 1686.19   6
   6  -3   2 10180.5 1504.54   6
   6  -4  -6 802.176 526.001   9
   6   4  -6 1488.24 870.701   6
   6  -4  -6 813.784 543.927   6
   6   4  -6 1217.09 590.181  14
   6  -4  -5 105.909 404.434   9
   6   4  -5-334.508 324.159   9
   6   4  -5 38.1401 501.526   6
   6  -4  -5 531.273 550.492   6
   6   4  -5 91.8525 299.265  14
  -6   4   5-666.720 581.293   8
  -6   4   5 71.7785 301.425   7
  -6  -4   5 627.846 475.608   7
   6  -4  -4 1173.76 675.838   9
   6   4  -4 2432.77 690.905   9
   6   4  -4 1344.75 501.697   6
   6  -4  -4 1150.97 732.220   6
   6   4  -4 1236.79 471.200  14
  -6   4   4 1566.94 692.384   8
  -6   4   4 1712.94 582.307   7
  -6  -4   4 1495.67 690.728   7
   6   4  -3 5450.99 974.895   9
   6  -4  -3 4279.43 1005.48   9
   6   4  -3 4521.79 1025.72   6
   6  -4  -3 3741.17 945.723   6
   6   4  -3 4647.77 812.773  14
  -6   4   3 3514.21 949.477   8
  -6   4   3 3080.67 798.310   7
  -6  -4   3 3892.77 961.837   7
   6  -4  -2 3123.38 838.443   9
   6   4  -2 2856.17 815.420   6
   6  -4  -2 2558.31 757.986   6
  -6   4   2 2812.12 885.988   8
  -6   4   2 2525.82 694.871   7
  -6  -4   2 3980.93 966.286   7
   6   4  -1 1958.57 656.989   6
   6  -4  -1 1183.93 567.616   9
   6  -4  -1 1855.66 744.856   6
  -6   4   1 2824.11 934.346   8
  -6   4   1 2496.25 809.680   7
  -6  -4   1 2515.37 752.747   7
   6   4   0 372.392 471.419   6
   6  -4   0-205.885 479.618   6
   6  -4   0 4.39536 266.070   9
  -6   4   0 868.473 705.950   8
  -6   4   0-96.2394 367.379   7
  -6  -4   0 1113.27 663.685   7
  -6  -4   0 385.902 437.106  10
   6   4   1 4430.72 1117.95   6
   6  -4   1 5201.31 1293.74   6
   6  -4   1 2961.51 753.830   9
  -6   4  -1 5581.21 1170.14   8
   6   4   1 4135.83 945.957  12
  -6  -4  -1 5436.46 1126.59   7
  -6  -4  -1 4207.91 951.479  10
  -6   4  -2 3599.20 969.144   8
   6   4   2 3499.56 923.950  12
  -6  -4  -2 2634.00 843.854   7
   6   5  -6 1105.58 693.525   6
   6  -5  -6 348.414 378.421   6
   6  -5  -5-569.391 631.306   9
   6   5  -5 125.645 368.311   9
   6   5  -5 321.457 378.838   6
   6  -5  -5-645.174 538.609   6
   6   5  -5 325.608 315.906  14
  -6   5   5-304.466 499.665   8
  -6  -5   5 254.803 543.824   7
   6  -5  -4 218.865 400.080   9
   6   5  -4 1041.14 591.252   6
   6  -5  -4 512.180 371.715   6
   6   5  -4 1102.85 466.681  14
  -6   5   4 1103.03 581.787   8
  -6   5   4 890.371 500.349   7
  -6  -5   4 544.360 492.623   7
   6  -5  -3 6741.06 1238.89   9
   6   5  -3 6333.65 1106.35   6
   6  -5  -3 6349.09 1171.07   6
   6   5  -3 5967.73 864.278  14
  -6   5   3 6240.16 1292.58   8
  -6   5   3 6612.37 1179.57   7
  -6  -5   3 5599.35 1145.85   7
   6  -5  -2-490.140 486.537   9
   6   5  -2-450.548 459.918   6
   6  -5  -2 133.615 304.169   6
  -6   5   2-246.048 499.759   8
  -6   5   2-339.129 366.343   7
  -6  -5   2-713.508 547.908   7
   6  -5  -1 104.723 347.074   9
   6   5  -1-164.432 383.863   6
   6  -5  -1 134.297 321.711   6
  -6   5   1 365.757 436.561   8
  -6   5   1-84.1028 299.997   7
  -6  -5   1 311.729 398.055   7
   6   5   0-366.278 429.766   6
   6  -5   0 151.303 418.063   6
   6  -5   0 155.551 293.525   9
  -6   5   0 717.152 526.326   8
  -6   5   0 751.098 525.739   7
   6   5   0-482.546 439.997  12
  -6  -5   0 511.083 453.734   7
  -6  -5   0 703.877 457.958  10
   6   5   1 172.420 466.014   6
   6  -5   1 90.8677 373.547   6
   6  -5   1-183.086 281.104   9
   6   5   1-85.0273 460.923  12
  -6  -5  -1 412.389 386.264   7
  -6  -5  -2 4670.99 1102.48   7
   6   6  -6-289.957 591.019   6
   6   6  -5 407.865 407.898   9
   6   6  -5 595.742 506.088   6
   6  -6  -5 59.4852 385.597   6
   6   6  -4 8950.69 1449.22   6
   6  -6  -4 7388.28 1301.30   6
   6   6  -4 9186.33 1154.28  14
  -6  -6   4 9031.78 1474.78   7
   6  -6  -3 771.889 575.109   9
   6   6  -3-215.556 424.682   6
   6  -6  -3 785.569 541.124   6
   6   6  -3 372.901 309.138  14
  -6  -6   3 929.148 568.825   7
   6  -6  -2 1044.44 595.965   9
   6   6  -2 1029.72 558.257   6
   6  -6  -2 1235.34 603.276   6
  -6   6   2 612.715 388.762   7
  -6  -6   2 1126.90 604.653   7
   6  -6  -1 1170.82 512.097   9
   6   6  -1 1808.62 622.645   6
   6  -6  -1 938.354 524.209   6
  -6   6   1 2131.39 684.798   7
  -6  -6   1 2836.66 769.967   7
   6  -6   0 2822.78 777.822   9
   6   6   0 2395.13 785.423   6
   6  -6   0 2030.09 844.400   6
   6   6   0 2275.39 798.640  12
  -6   6   0 3049.00 873.524   1
  -6  -6   0 2316.11 724.364   7
   6   6   1 1757.56 788.918   6
   6  -6   1 1194.41 639.671   6
  -6   6  -1 1685.72 704.687   1
   6   6   1 1608.04 793.706  12
   6   7  -3 8092.68 1064.51  14
  -6  -7   3 9442.74 1489.23   7
  -6  -7   2 469.186 524.135   7
   7   0  -5 3915.03 1041.77   9
   7   0  -5 3987.46 958.048  14
   7   0  -4 4889.41 1133.59   9
   7   0  -4 5189.41 1232.61   6
   7   0  -4 6071.82 1106.01  14
  -7   0   4 6906.00 1305.08   7
   7   0  -3 3032.02 834.261   9
   7   0  -3 2502.99 822.953   6
  -7   0   3 3369.81 940.358   7
   7   0  -2 148.927 354.801   6
   7   0  -2 30.0421 331.795   9
  -7   0   2 656.558 494.474   7
   7   0  -1 4123.29 1057.34   6
   7   0  -1 3417.40 778.677   9
  -7   0   1 3006.55 852.017   8
  -7   0   1 4526.00 1095.36   7
  -7   0   0-373.825 422.767   8
   7  -1  -5 1117.69 617.599   9
   7   1  -5-293.753 596.828   9
   7   1  -5 1237.46 607.071  14
   7  -1  -5 1454.61 574.719  14
  -7   1   5 2156.09 854.380   7
   7  -1  -4 1159.63 671.462   9
   7   1  -4-300.608 554.380   9
   7   1  -4 951.505 667.320   6
   7  -1  -4 1105.75 686.537   6
   7   1  -4 675.811 420.010  14
   7  -1  -4-343.197 423.374  14
  -7   1   4 2577.92 940.095   7
  -7  -1   4 1810.69 814.692   7
   7  -1  -3 3387.85 943.639   9
   7   1  -3 652.613 441.992   9
   7   1  -3 2013.98 757.948   6
   7  -1  -3 2022.90 743.617   6
  -7   1   3 1679.53 795.837   7
  -7  -1   3 1997.56 793.006   7
   7  -1  -2 1439.18 685.979   9
   7   1  -2 30.5410 403.938   6
   7  -1  -2 327.999 356.667   6
   7   1  -2 1028.44 585.065   9
  -7   1   2 2060.70 788.507   8
  -7   1   2 1184.93 549.840   7
  -7  -1   2 803.293 483.783   7
   7   1  -1 826.259 579.232   6
   7  -1  -1 714.728 644.604   6
   7  -1  -1-120.328 448.734   9
   7   1  -1 350.270 347.414   9
  -7   1   1-0.63930 482.977   8
  -7   1   1-433.312 627.643   7
  -7  -1   1 383.206 530.919   7
   7  -1   0 1739.20 579.785   9
  -7   1   0 2486.92 849.851   8
  -7  -1   0 2445.82 833.172   8
  -7   1  -1 1743.37 595.468  10
   7   2  -5 69.8880 459.090  14
   7  -2  -5-188.874 341.266  14
  -7   2   5 67.8915 374.452   7
   7   2  -4 1702.37 506.604   9
   7   2  -4 1613.68 830.494   6
   7  -2  -4 4210.55 1121.82   6
   7   2  -4 2358.18 709.441  14
  -7   2   4 3547.69 1020.12   7
   7  -2  -3-479.620 519.313   9
   7   2  -3 422.862 389.121   9
   7   2  -3 658.186 528.119   6
   7  -2  -3-183.392 373.558   6
  -7   2   3-186.085 495.071   8
  -7   2   3 470.974 584.522   7
  -7  -2   3 83.6981 431.148   7
   7  -2  -2-114.904 441.054   9
   7   2  -2 320.081 359.792   6
   7  -2  -2 85.3769 437.347   6
   7   2  -2 413.788 432.833   9
  -7   2   2-369.083 541.758   8
  -7   2   2-452.561 395.718   7
  -7  -2   2-131.284 342.895   7
   7  -2  -1 696.251 548.946   9
  -7   2   1 494.035 356.441   8
  -7   2   0 967.049 582.869   8
   7   3  -5 22.1416 386.974  14
  -7   3   5 1287.47 674.613   7
   7   3  -4 519.734 430.325   6
  -7   3   4 886.922 577.095   7
   7   3  -3 1109.72 599.245   6
   7  -3  -3 643.731 566.533   6
  -7   3   3 398.561 453.211   7
   7  -3  -2 417.268 371.951   6
  -7   3   2-141.790 363.487   7
   7   4  -5-692.299 515.730  14
  -7   4   5 334.154 329.651   7
  -7   4   4 1753.25 738.577   7
   7   4  -3 1404.78 641.706   6
  -7   4   3 1239.62 682.526   7
  -7   4   2 94.4709 419.700   7
  -7   5   3 1166.80 711.525   7
   0   0   0    0.00    0.00   0
TITL lt200 in P2(1)/m
REM P2(1)/m (#11 in standard setting)
CELL 0.71073   5.764307   8.757614   7.017755  90.0000 108.2491  90.0000
ZERR    2.00   0.001101   0.001938   0.001422   0.0000   0.0221   0.0000
LATT  1
SYMM -x, y+1/2,-z
SFAC C H O
UNIT 12.00 24.00 2.00
TREF
HKLF 4
END
;
_shelx_hkl_checksum              88158
loop_
_space_group_symop_operation_xyz
'x, y, z'
'-x, y+1/2, -z'
'-x, -y, -z'
'x, -y-1/2, z'
loop_
_atom_site_label
_atom_site_type_symbol
_atom_site_fract_x
_atom_site_fract_y
_atom_site_fract_z
_atom_site_U_iso_or_equiv
_atom_site_adp_type
_atom_site_occupancy
_atom_site_site_symmetry_order
_atom_site_calc_flag
_atom_site_refinement_flags_posn
_atom_site_refinement_flags_adp
_atom_site_refinement_flags_occupancy
_atom_site_disorder_assembly
_atom_site_disorder_group
C3 C 0.6003(3) 0.2500 0.2788(3) 0.0357(5) Uani 1 2 d S T P . .
C2 C 0.5808(4) 0.2500 0.4900(3) 0.0419(5) Uani 1 2 d S T P . .
C4 C 0.3462(5) 0.2500 0.1226(4) 0.0582(7) Uani 1 2 d S T P . .
H4A H 0.266(4) 0.342(3) 0.143(3) 0.063(5) Uiso 1 1 d . . . . .
C1 C 0.8107(6) 0.2500 0.6647(4) 0.0715(10) Uani 1 2 d S T P . .
O4 O 0.3857(3) 0.2500 0.5195(3) 0.0744(8) Uani 1 2 d S T P . .
C5 C 0.7422(3) 0.39282(18) 0.2522(3) 0.0493(5) Uani 1 1 d . . . . .
H5A H 0.913(4) 0.391(2) 0.347(3) 0.059(5) Uiso 1 1 d . . . . .
H5B H 0.741(4) 0.393(3) 0.111(4) 0.071(6) Uiso 1 1 d . . . . .
H5C H 0.664(4) 0.487(3) 0.283(3) 0.062(6) Uiso 1 1 d . . . . .
H4B H 0.368(6) 0.2500 -0.014(6) 0.080(10) Uiso 1 2 d S T P . .
H1A H 0.803(7) 0.372(6) 0.678(7) 0.058(12) Uiso 0.5 1 d . . . . .
H1B H 0.805(9) 0.201(6) 0.785(9) 0.098(19) Uiso 0.5 1 d . . . . .
H1C H 0.947(7) 0.2500 0.633(6) 0.092(12) Uiso 1 2 d S T P . .
loop_
_atom_site_aniso_label
_atom_site_aniso_U_11
_atom_site_aniso_U_22
_atom_site_aniso_U_33
_atom_site_aniso_U_23
_atom_site_aniso_U_13
_atom_site_aniso_U_12
C3 0.0342(9) 0.0352(10) 0.0373(10) 0.000 0.0108(7) 0.000
C2 0.0428(11) 0.0424(11) 0.0436(11) 0.000 0.0178(9) 0.000
C4 0.0429(13) 0.0736(19) 0.0507(14) 0.000 0.0042(10) 0.000
C1 0.0605(17) 0.112(3) 0.0391(13) 0.000 0.0119(12) 0.000
O4 0.0527(11) 0.1157(19) 0.0661(13) 0.000 0.0347(9) 0.000
C5 0.0588(11) 0.0380(9) 0.0548(10) 0.0040(7) 0.0233(8) -0.0034(7)
loop_
_atom_type_symbol
_atom_type_description
_atom_type_scat_dispersion_real
_atom_type_scat_dispersion_imag
_atom_type_scat_source
C C 0.0033 0.0016 'International Tables Vol C Tables 4.2.6.8 and 6.1.1.4'
H H 0.0000 0.0000 'International Tables Vol C Tables 4.2.6.8 and 6.1.1.4'
O O 0.0106 0.0060 'International Tables Vol C Tables 4.2.6.8 and 6.1.1.4'
loop_
_citation_id
_citation_doi
_citation_year
1 10.1021/acs.cgd.5b01156 2015
loop_
_geom_angle_atom_site_label_1
_geom_angle_atom_site_label_2
_geom_angle_atom_site_label_3
_geom_angle
_geom_angle_site_symmetry_1
_geom_angle_site_symmetry_3
C2 C3 C4 110.58(19) . .
C2 C3 C5 108.83(11) . 4_565
C2 C3 C5 108.83(11) . .
C4 C3 C5 109.84(12) . .
C4 C3 C5 109.84(12) . 4_565
C5 C3 C5 108.88(17) . 4_565
C1 C2 C3 118.8(2) . .
O4 C2 C3 121.7(2) . .
O4 C2 C1 119.6(2) . .
loop_
_geom_bond_atom_site_label_1
_geom_bond_atom_site_label_2
_geom_bond_distance
_geom_bond_site_symmetry_2
C3 C2 1.521(3) .
C3 C4 1.530(3) .
C3 C5 1.5375(19) 4_565
C3 C5 1.5375(19) .
C2 C1 1.497(4) .
C2 O4 1.206(3) .
loop_
_geom_torsion_atom_site_label_1
_geom_torsion_atom_site_label_2
_geom_torsion_atom_site_label_3
_geom_torsion_atom_site_label_4
_geom_torsion
_geom_torsion_site_symmetry_1
_geom_torsion_site_symmetry_2
_geom_torsion_site_symmetry_3
_geom_torsion_site_symmetry_4
C4 C3 C2 C1 180.000(1) . . . .
C4 C3 C2 O4 0.000(1) . . . .
C5 C3 C2 C1 -59.26(11) . . . .
C5 C3 C2 C1 59.26(11) 4_565 . . .
C5 C3 C2 O4 120.74(11) . . . .
C5 C3 C2 O4 -120.74(11) 4_565 . . .
