#------------------------------------------------------------------------------
#$Date: 2017-12-11 01:28:22 +0200 (Mon, 11 Dec 2017) $
#$Revision: 204147 $
#$URL: file:///home/coder/svn-repositories/cod/cif/4/51/37/4513752.cif $
#------------------------------------------------------------------------------
#
# This file is available in the Crystallography Open Database (COD),
# http://www.crystallography.net/
#
# All data on this site have been placed in the public domain by the
# contributors.
#
data_4513752
loop_
_publ_author_name
'Hiramatsu, Kenichi'
'Honjo, Takashi'
'Rauniyar, Vivek'
'Toste, F. Dean'
_publ_section_title
;
 Enantioselective Synthesis of Fluoro-Dihydroquinazolones and
 -Benzooxazinones by Fluorination-Initiated Asymmetric Cyclization
 Reactions.
;
_journal_issue                   1
_journal_name_full               'ACS catalysis'
_journal_page_first              151
_journal_page_last               154
_journal_paper_doi               10.1021/acscatal.5b02182
_journal_volume                  6
_journal_year                    2015
_chemical_absolute_configuration ad
_chemical_formula_sum            'C12 H15 F N2 O'
_chemical_formula_weight         222.26
_chemical_name_common            ken4-150-3
_chemical_name_systematic
; 
 toste80 
;
_space_group.centring_type       P
_space_group_crystal_system      monoclinic
_space_group_IT_number           4
_space_group_name_Hall           'P 2yb'
_space_group_name_H-M_alt        'P 1 21 1'
_symmetry_space_group_name_Hall  'P 2yb'
_symmetry_space_group_name_H-M   'P 1 21 1'
_atom_sites_solution_hydrogens   geom
_atom_sites_solution_primary     iterative
_atom_sites_solution_secondary   difmap
_audit_creation_method           SHELXL-2013
_cell_angle_alpha                90
_cell_angle_beta                 103.6270(10)
_cell_angle_gamma                90
_cell_formula_units_Z            2
_cell_length_a                   7.6084(2)
_cell_length_b                   6.4312(2)
_cell_length_c                   11.7689(3)
_cell_measurement_reflns_used    9807
_cell_measurement_temperature    100(2)
_cell_measurement_theta_max      68.21
_cell_measurement_theta_min      5.98
_cell_volume                     559.66(3)
_computing_cell_refinement       'Bruker SAINT'
_computing_data_collection       'Bruker APEX2'
_computing_data_reduction        'Bruker SAINT'
_computing_molecular_graphics    ORTEP-32
_computing_publication_material  WinGX
_computing_structure_refinement  SHELXL-2013
_computing_structure_solution    SHELXT
_diffrn_ambient_temperature      100(2)
_diffrn_detector_area_resol_mean 8.366
_diffrn_measured_fraction_theta_full 1.000
_diffrn_measured_fraction_theta_max 1.000
_diffrn_measurement_device_type  'Bruker APEX-II CCD'
_diffrn_measurement_method       'phi and omega scans'
_diffrn_radiation_type           CuK\a
_diffrn_radiation_wavelength     1.54178
_diffrn_reflns_av_R_equivalents  0.0265
_diffrn_reflns_av_unetI/netI     0.0156
_diffrn_reflns_Laue_measured_fraction_full 1.000
_diffrn_reflns_Laue_measured_fraction_max 1.000
_diffrn_refln_scan_rate          5
_diffrn_refln_scan_width         2.0
_diffrn_reflns_limit_h_max       9
_diffrn_reflns_limit_h_min       -9
_diffrn_reflns_limit_k_max       7
_diffrn_reflns_limit_k_min       -7
_diffrn_reflns_limit_l_max       14
_diffrn_reflns_limit_l_min       -14
_diffrn_reflns_number            19143
_diffrn_reflns_point_group_measured_fraction_full 0.993
_diffrn_reflns_point_group_measured_fraction_max 0.993
_diffrn_reflns_theta_full        67.000
_diffrn_reflns_theta_max         68.289
_diffrn_reflns_theta_min         3.865
_diffrn_source                   'microfocus rotating anode'
_exptl_absorpt_coefficient_mu    0.799
_exptl_absorpt_correction_T_max  0.929
_exptl_absorpt_correction_T_min  0.858
_exptl_absorpt_correction_type   multi-scan
_exptl_absorpt_process_details   SADABS
_exptl_crystal_colour            colorless
_exptl_crystal_density_diffrn    1.319
_exptl_crystal_description       rod
_exptl_crystal_F_000             236
_exptl_crystal_size_max          0.140
_exptl_crystal_size_mid          0.040
_exptl_crystal_size_min          0.040
_refine_diff_density_max         0.211
_refine_diff_density_min         -0.136
_refine_diff_density_rms         0.029
_refine_ls_abs_structure_details
; 
 Flack x determined using 885 quotients [(I+)-(I-)]/[(I+)+(I-)] 
 (Parsons and Flack (2004), Acta Cryst. A60, s61). 
;
_refine_ls_abs_structure_Flack   0.01(7)
_refine_ls_extinction_method     none
_refine_ls_goodness_of_fit_ref   1.058
_refine_ls_hydrogen_treatment    constr
_refine_ls_matrix_type           full
_refine_ls_number_parameters     148
_refine_ls_number_reflns         2020
_refine_ls_number_restraints     1
_refine_ls_restrained_S_all      1.058
_refine_ls_R_factor_all          0.0258
_refine_ls_R_factor_gt           0.0255
_refine_ls_shift/su_max          0.000
_refine_ls_shift/su_mean         0.000
_refine_ls_structure_factor_coef Fsqd
_refine_ls_weighting_details
'w=1/[\s^2^(Fo^2^)+(0.0394P)^2^+0.1079P] where P=(Fo^2^+2Fc^2^)/3'
_refine_ls_weighting_scheme      calc
_refine_ls_wR_factor_gt          0.0685
_refine_ls_wR_factor_ref         0.0687
_reflns_Friedel_coverage         0.810
_reflns_Friedel_fraction_full    0.985
_reflns_Friedel_fraction_max     0.985
_reflns_number_gt                1998
_reflns_number_total             2020
_reflns_threshold_expression     'I > 2\s(I)'
_cod_data_source_file            cs5b02182_si_003.cif
_cod_data_source_block           toste80
_cod_depositor_comments
;Adding full bibliography for 4513751--4513752.cif.

 Adding full bibliography for 4513751--4513752.cif.

The following automatic conversions were performed:

'_space_group.centring_type' value 'primitive' was replaced with the
value 'P' as specified in the replacement file
'/home/antanas/src/cod-tools/trunk/data/replacement-values/replacement_values.lst'.

Automatic conversion script
Id: cif_fix_values 5642 2017-10-24 12:04:52Z antanas 
;
_cod_database_code               4513752
#BEGIN Tags that were not found in dictionaries:
_shelx_space_group_comment
; 
The symmetry employed for this shelxl refinement is uniquely defined 
by the following loop, which should always be used as a source of 
symmetry information in preference to the above space-group names. 
They are only intended as comments. 
;
_shelx_estimated_absorpt_t_min   0.896
_shelx_estimated_absorpt_t_max   0.969
_shelxl_version_number           2013-4
_shelx_res_file
; 
TITL toste80_0m in P2(1) 
CELL  1.54178   7.6084   6.4312  11.7689   90.000  103.627   90.000 
ZERR     2.00   0.0002   0.0002   0.0003    0.000    0.001    0.000 
LATT  -1 
SYMM  - X, 1/2 + Y, - Z 
SFAC  C    H    N    O    F 
UNIT  24   30   4    2    2 
MERG   2 
FMAP   2 
PLAN   20 
SIZE     0.040   0.040   0.140 
ACTA   134.00 
BOND   $H 
LIST   4 
WPDB  -2 
L.S.   8 
TEMP  -173.00 
WGHT    0.039400    0.107900 
FVAR       0.47519 
C1    1    0.716455    0.472636    0.761797    11.00000    0.02262    0.01940 = 
         0.01841    0.00099    0.00252   -0.00095 
AFIX  13 
H1    2    0.703637    0.319755    0.746595    11.00000   -1.20000 
AFIX   0 
C2    1    0.981335    0.665503    0.878028    11.00000    0.01922    0.02139 = 
         0.02055   -0.00348    0.00424    0.00430 
C3    1    0.957994    0.812120    0.779387    11.00000    0.01857    0.02206 = 
         0.02315   -0.00285    0.00601    0.00269 
C4    1    1.052321    0.999434    0.791905    11.00000    0.02257    0.02364 = 
         0.02984   -0.00558    0.00796   -0.00005 
AFIX  43 
H4    2    1.124226    1.037710    0.866398    11.00000   -1.20000 
AFIX   0 
C5    1    1.042945    1.130844    0.697426    11.00000    0.02609    0.02110 = 
         0.04088   -0.00105    0.01432   -0.00110 
AFIX  43 
H5    2    1.108269    1.258027    0.706284    11.00000   -1.20000 
AFIX   0 
C6    1    0.935904    1.072672    0.589348    11.00000    0.02726    0.02291 = 
         0.03215    0.00556    0.01472    0.00571 
AFIX  43 
H6    2    0.929322    1.161298    0.523900    11.00000   -1.20000 
AFIX   0 
C7    1    0.838945    0.889212    0.574847    11.00000    0.02264    0.02543 = 
         0.02278    0.00185    0.00742    0.00481 
AFIX  43 
H7    2    0.766156    0.853504    0.500170    11.00000   -1.20000 
AFIX   0 
C8    1    0.847717    0.755087    0.670401    11.00000    0.01818    0.02014 = 
         0.02301   -0.00082    0.00684    0.00364 
C9    1    0.659106    0.493614    0.545413    11.00000    0.02414    0.02565 = 
         0.02018   -0.00157    0.00235   -0.00128 
AFIX 137 
H9A   2    0.548850    0.576171    0.518621    11.00000   -1.50000 
H9B   2    0.626771    0.347182    0.551360    11.00000   -1.50000 
H9C   2    0.735526    0.507350    0.489434    11.00000   -1.50000 
AFIX   0 
C10   1    0.537580    0.549370    0.789585    11.00000    0.02092    0.03465 = 
         0.01883    0.00002    0.00054   -0.00152 
C11   1    0.522550    0.782633    0.799934    11.00000    0.02671    0.03685 = 
         0.03409    0.00043    0.01057    0.00814 
AFIX 137 
H11A  2    0.404296    0.817884    0.814214    11.00000   -1.50000 
H11B  2    0.535243    0.848445    0.727188    11.00000   -1.50000 
H11C  2    0.618367    0.832799    0.865108    11.00000   -1.50000 
AFIX   0 
C12   1    0.497873    0.433812    0.892588    11.00000    0.02759    0.04635 = 
         0.03053    0.00597    0.01093   -0.00035 
AFIX 137 
H12A  2    0.588528    0.470507    0.963734    11.00000   -1.50000 
H12B  2    0.501991    0.283737    0.879015    11.00000   -1.50000 
H12C  2    0.377360    0.472286    0.901782    11.00000   -1.50000 
AFIX   0 
N1    3    0.868208    0.501718    0.861994    11.00000    0.02213    0.02112 = 
         0.01826    0.00332    0.00081    0.00124 
AFIX  43 
H1A   2    0.887456    0.404725    0.916264    11.00000   -1.20000 
AFIX   0 
N2    3    0.757054    0.567826    0.659124    11.00000    0.02216    0.02186 = 
         0.01583    0.00003    0.00215   -0.00121 
O1    4    1.102066    0.683613    0.968951    11.00000    0.02519    0.02713 = 
         0.02257   -0.00432   -0.00171    0.00146 
F1    5    0.401489    0.489316    0.690221    11.00000    0.02165    0.05306 = 
         0.02617   -0.00373    0.00111   -0.00408 
HKLF    4 
  
REM  toste80_0m in P2(1) 
REM R1 =  0.0255 for    1998 Fo > 4sig(Fo)  and  0.0258 for all    2020 data 
REM    148 parameters refined using      1 restraints 
  
END 
  
WGHT      0.0394      0.1077 
  
REM Highest difference peak  0.211,  deepest hole -0.136,  1-sigma level  0.029 
Q1    1   0.6285  0.5071  0.7767  11.00000  0.05    0.21 
Q2    1   0.5195  0.4942  0.8428  11.00000  0.05    0.17 
Q3    1   0.7285  0.5312  0.7080  11.00000  0.05    0.15 
Q4    1   0.9511  0.9309  0.7978  11.00000  0.05    0.13 
Q5    1   0.8633  0.8042  0.7324  11.00000  0.05    0.13 
Q6    1   0.9591  0.7426  0.8237  11.00000  0.05    0.13 
Q7    1   0.9529  0.7515  0.7189  11.00000  0.05    0.13 
Q8    1   0.8236  0.8278  0.6218  11.00000  0.05    0.12 
Q9    1   0.7459  0.6827  0.6663  11.00000  0.05    0.11 
Q10   1   0.9586  0.5367  0.8410  11.00000  0.05    0.11 
Q11   1   0.8388  0.6371  0.6599  11.00000  0.05    0.11 
Q12   1   1.0898  1.0379  0.7315  11.00000  0.05    0.11 
Q13   1   0.9313  0.9556  0.5800  11.00000  0.05    0.11 
Q14   1   1.0468  0.8823  0.7677  11.00000  0.05    0.10 
Q15   1   0.7892  0.4982  0.8109  11.00000  0.05    0.10 
Q16   1   0.9387  1.1633  0.6389  11.00000  0.05    0.10 
Q17   1   0.5363  0.6611  0.7928  11.00000  0.05    0.09 
Q18   1   0.8768  0.6109  0.8811  11.00000  0.05    0.09 
Q19   1   0.8456  1.0253  0.5970  11.00000  0.05    0.09 
Q20   1   1.0359  1.0701  0.6343  11.00000  0.05    0.08 
;
_shelx_res_checksum              46480
_shelx_hkl_file
; 
   1   0   0  129.47    4.65 
   1   0   0  134.15    4.65 
  -1   0   0  134.77    5.17 
  -1   0   0  137.79    4.65 
  -2   0   0  411.07   14.26 
  -2   0   0  396.03   15.85 
   2   0   0  429.27   14.26 
   2   0   0  410.57   15.73 
   3   0   0   12.68    0.49 
   3   0   0   13.10    0.54 
   3   0   0   12.62    0.51 
  -3   0   0   12.08    0.54 
  -3   0   0   11.77    0.56 
  -3   0   0   12.23    0.68 
  -3   0   0   12.94    0.65 
   3   0   0   12.70    0.54 
   4   0   0    0.55    0.14 
   4   0   0    0.47    0.12 
   4   0   0    0.43    0.12 
   4   0   0    0.48    0.10 
  -4   0   0    0.42    0.13 
  -4   0   0    0.42    0.13 
  -4   0   0    0.52    0.15 
   4   0   0    0.51    0.13 
   4   0   0    0.35    0.12 
   4   0   0    0.37    0.09 
   4   0   0    0.41    0.09 
  -4   0   0    0.77    0.18 
   4   0   0    0.40    0.11 
   5   0   0   14.05    0.56 
   5   0   0   13.82    0.54 
   5   0   0   13.90    0.68 
  -5   0   0   13.27    0.57 
   5   0   0   13.22    0.56 
  -5   0   0   12.88    0.54 
   5   0   0   12.87    0.52 
   5   0   0   13.25    0.51 
  -5   0   0   13.43    0.62 
   5   0   0   13.34    0.63 
   5   0   0   13.57    0.64 
   5   0   0   13.46    0.58 
  -5   0   0   13.51    0.51 
  -5   0   0   13.61    0.62 
  -5   0   0   14.33    0.77 
  -5   0   0   12.19    0.74 
  -5   0   0   13.00    0.51 
   6   0   0    0.14    0.11 
   6   0   0    0.13    0.12 
   6   0   0    0.10    0.12 
   6   0   0    0.19    0.17 
  -6   0   0    0.07    0.11 
   6   0   0    0.11    0.10 
   6   0   0    0.14    0.11 
   6   0   0    0.08    0.14 
  -6   0   0    0.26    0.12 
  -6   0   0    0.05    0.08 
  -6   0   0   -0.03    0.11 
  -6   0   0    0.16    0.13 
   6   0   0    0.10    0.15 
  -6   0   0    0.17    0.16 
  -6   0   0    0.01    0.12 
  -6   0   0    0.24    0.23 
  -6   0   0   -0.08    0.12 
   6   0   0    0.05    0.14 
  -6   0   0   -0.01    0.18 
  -7   0   0    0.18    0.13 
  -7   0   0    0.24    0.09 
  -7   0   0    0.25    0.13 
  -7   0   0    0.12    0.12 
   7   0   0    0.20    0.09 
  -7   0   0    0.00    0.12 
  -7   0   0    0.06    0.14 
  -7   0   0    0.18    0.08 
  -7   0   0    0.25    0.11 
   7   0   0    0.25    0.18 
  -7   0   0    0.19    0.15 
   7   0   0    0.18    0.13 
  -7   0   0    0.26    0.13 
   7   0   0    0.33    0.12 
   7   0   0   -0.03    0.11 
  -7   0   0    0.25    0.14 
  -7   0   0    0.24    0.11 
  -7   0   0    0.13    0.08 
  -7   0   0    0.07    0.11 
  -8   0   0    2.86    0.21 
   8   0   0    2.53    0.17 
  -8   0   0    2.70    0.14 
  -8   0   0    2.67    0.18 
  -8   0   0    2.60    0.18 
  -8   0   0    2.40    0.14 
  -8   0   0    2.66    0.20 
   8   0   0    2.46    0.14 
   8   0   0    2.60    0.28 
  -8   0   0    2.67    0.18 
  -8   0   0    2.89    0.21 
  -8   0   0    2.61    0.18 
  -8   0   0    2.63    0.19 
   0  -1   0    0.01    0.03 
   0  -1   0    0.02    0.03 
   0   1   0    0.02    0.03 
   0   1   0    0.01    0.02 
   0   1   0    0.03    0.03 
   1  -1   0  188.01    6.50 
  -1  -1   0  188.58    7.19 
   1  -1   0  189.24    6.50 
  -1  -1   0  185.70    6.53 
   1   1   0  159.37    6.74 
   1   1   0  176.85    6.06 
  -1   1   0  183.76    6.72 
  -1   1   0  178.38    6.72 
  -2  -1   0    9.42    0.40 
  -2  -1   0    9.29    0.42 
   2  -1   0    8.99    0.38 
   2  -1   0    9.24    0.36 
   2   1   0    9.49    0.39 
  -2   1   0    9.32    0.39 
   2   1   0    9.58    0.41 
  -2   1   0    9.12    0.39 
  -3  -1   0   53.77    2.20 
  -3  -1   0   56.29    2.60 
   3  -1   0   55.29    1.99 
   3  -1   0   55.34    2.17 
   3  -1   0   54.02    2.14 
  -3  -1   0   53.06    2.17 
   3  -1   0   56.77    1.97 
   3   1   0   51.29    2.49 
   3   1   0   52.99    2.10 
   3   1   0   52.90    1.91 
  -3   1   0   53.49    2.46 
   3   1   0   54.41    1.93 
   3   1   0   52.70    2.07 
  -3   1   0   52.48    2.64 
  -3   1   0   55.69    2.06 
  -3   1   0   48.95    2.18 
   3   1   0   52.70    2.31 
  -3   1   0   50.87    2.09 
   4  -1   0   46.69    1.69 
   4  -1   0   47.98    1.87 
  -4  -1   0   47.90    2.27 
   4  -1   0   49.02    1.74 
   4  -1   0   45.58    1.64 
   4  -1   0   47.58    2.09 
  -4  -1   0   47.60    2.42 
   4  -1   0   47.45    1.90 
   4  -1   0   44.84    1.74 
  -4  -1   0   46.53    1.69 
   4  -1   0   46.79    1.67 
  -4  -1   0   47.39    2.00 
   4   1   0   45.18    1.73 
   4   1   0   48.12    1.68 
   4   1   0   45.70    1.66 
   4   1   0   47.29    2.07 
   4   1   0   43.07    1.62 
   4   1   0   45.63    1.67 
   4   1   0   47.85    1.89 
  -4   1   0   47.11    2.34 
   4   1   0   45.40    1.86 
  -4   1   0   46.99    1.84 
  -4   1   0   47.45    2.20 
  -4   1   0   47.53    1.87 
  -4   1   0   44.55    1.92 
   4   1   0   46.75    1.73 
   5  -1   0   17.35    0.64 
  -5  -1   0   17.62    0.51 
   5  -1   0   18.31    0.68 
  -5  -1   0   17.21    0.68 
   5  -1   0   18.69    0.69 
   5  -1   0   15.95    0.77 
   5  -1   0   17.23    0.70 
   5  -1   0   15.70    0.78 
   5  -1   0   18.46    0.72 
  -5  -1   0   17.23    0.81 
  -5  -1   0   18.16    0.99 
  -5  -1   0   19.31    0.97 
  -5  -1   0   17.22    0.65 
   5  -1   0   17.78    0.65 
   5  -1   0   17.46    0.84 
  -5  -1   0   17.63    0.73 
  -5  -1   0   17.14    0.69 
  -5  -1   0   17.35    0.64 
   5   1   0   16.95    0.79 
   5   1   0   17.72    0.69 
  -5   1   0   17.29    0.49 
   5   1   0   17.50    0.69 
   5   1   0   17.23    0.84 
  -5   1   0   16.99    0.65 
   5   1   0   16.55    0.68 
   5   1   0   17.21    0.68 
   5   1   0   16.91    0.70 
  -5   1   0   17.05    0.91 
  -5   1   0   17.29    0.63 
  -5   1   0   18.45    0.76 
   5   1   0   15.91    0.78 
  -5   1   0   17.74    0.70 
   5   1   0   17.56    0.64 
  -5   1   0   16.55    0.64 
   6  -1   0   11.82    0.47 
  -6  -1   0   12.27    0.58 
   6  -1   0   11.26    0.54 
   6  -1   0   11.40    0.48 
   6  -1   0   11.20    0.50 
  -6  -1   0   11.92    0.41 
  -6  -1   0   12.36    0.56 
  -6  -1   0   11.46    0.73 
   6  -1   0   10.77    0.62 
  -6  -1   0   12.04    0.49 
  -6  -1   0   11.87    0.49 
  -6  -1   0   11.93    0.49 
   6  -1   0   11.70    0.52 
  -6  -1   0   12.48    0.53 
   6   1   0   11.74    0.51 
  -6   1   0   12.01    0.56 
  -6   1   0   11.32    0.48 
  -6   1   0   11.28    0.51 
  -6   1   0   11.25    0.47 
   6   1   0   12.24    0.53 
  -6   1   0   10.96    0.33 
   6   1   0   12.44    0.53 
  -6   1   0   11.00    0.47 
   6   1   0   12.57    0.52 
   6   1   0   11.79    0.48 
   6   1   0   11.60    0.67 
  -6   1   0   11.82    0.47 
  -6   1   0   11.44    0.50 
   6   1   0    9.86    0.62 
  -7  -1   0   35.85    1.24 
  -7  -1   0   34.50    1.22 
  -7  -1   0   33.61    0.96 
  -7  -1   0   33.04    1.16 
  -7  -1   0   33.52    1.28 
  -7  -1   0   32.30    0.94 
  -7  -1   0   34.03    1.17 
   7  -1   0   34.51    1.19 
  -7  -1   0   33.03    0.93 
   7  -1   0   34.16    1.69 
   7  -1   0   32.86    1.31 
  -7  -1   0   33.57    1.08 
   7  -1   0   33.03    1.25 
  -7  -1   0   34.09    1.33 
   7  -1   0   33.19    1.07 
   7  -1   0   33.54    1.22 
  -7  -1   0   32.71    1.06 
  -7  -1   0   32.75    1.07 
  -7  -1   0   33.64    1.13 
  -7   1   0   33.18    1.18 
  -7   1   0   33.73    1.06 
   7   1   0   33.82    1.08 
  -7   1   0   33.93    1.10 
   7   1   0   34.42    1.13 
  -7   1   0   34.10    1.03 
  -7   1   0   33.99    1.21 
   7   1   0   35.30    1.71 
   7   1   0   34.87    1.33 
  -7   1   0   31.22    1.29 
  -7   1   0   34.27    0.91 
   7   1   0   33.98    1.28 
   7   1   0   31.86    1.20 
   7   1   0   34.37    1.28 
   7   1   0   33.86    0.96 
  -7   1   0   34.52    1.19 
  -7   1   0   33.24    1.21 
  -8  -1   0   10.64    0.50 
   8  -1   0   11.08    0.67 
  -8  -1   0   12.74    0.39 
  -8  -1   0   12.25    0.44 
   8  -1   0   12.12    0.43 
  -8  -1   0   12.50    0.37 
  -8  -1   0   12.69    0.50 
  -8  -1   0   12.99    0.44 
  -8  -1   0   12.67    0.34 
  -8  -1   0   12.69    0.46 
  -8  -1   0   12.77    0.36 
   8   1   0   14.31    0.72 
  -8   1   0   11.62    0.44 
   8   1   0   12.51    0.46 
  -8   1   0   12.22    0.45 
  -8   1   0   11.72    0.40 
   8   1   0   12.27    0.42 
  -8   1   0   12.18    0.42 
   8   1   0   12.04    0.37 
   0  -2   0  333.09   13.12 
   0  -2   0  353.73   11.90 
   0   2   0  334.27   12.67 
   0   2   0  324.03   12.67 
  -1  -2   0  272.73   11.01 
  -1  -2   0  275.12    9.84 
   1  -2   0  292.14   10.82 
  -1  -2   0  283.41   10.85 
   1  -2   0  292.50    9.81 
   1   2   0  276.17   10.14 
   1   2   0  249.23   12.09 
   2  -2   0   34.63    1.24 
  -2  -2   0   33.61    1.65 
   2  -2   0   32.79    1.22 
  -2  -2   0   34.06    1.28 
  -2  -2   0   34.34    1.54 
   2  -2   0   35.04    1.34 
  -2  -2   0   33.49    1.28 
  -2  -2   0   34.72    1.40 
  -2  -2   0   36.47    1.39 
   2   2   0   32.41    1.32 
   2   2   0   32.41    1.56 
  -3  -2   0   37.32    1.77 
  -3  -2   0   35.30    1.33 
   3  -2   0   36.66    1.33 
  -3  -2   0   35.71    1.50 
  -3  -2   0   36.67    1.48 
   3  -2   0   36.99    1.43 
  -3  -2   0   36.60    1.64 
   3  -2   0   34.99    1.32 
   3   2   0   35.76    1.68 
   3   2   0   33.85    1.48 
   3   2   0   33.60    1.41 
   3   2   0   33.40    1.54 
   3   2   0   35.28    1.40 
   3   2   0   33.21    1.78 
  -3   2   0   35.44    1.38 
  -4  -2   0    6.13    0.31 
  -4  -2   0    6.03    0.31 
  -4  -2   0    6.04    0.29 
  -4  -2   0    6.32    0.38 
  -4  -2   0    6.20    0.29 
   4  -2   0    6.12    0.25 
  -4  -2   0    6.54    0.39 
  -4  -2   0    6.32    0.32 
  -4  -2   0    6.33    0.30 
   4  -2   0    6.38    0.29 
  -4  -2   0    6.56    0.39 
  -4  -2   0    6.27    0.32 
  -4  -2   0    6.30    0.44 
   4   2   0    5.83    0.30 
   4   2   0    6.32    0.43 
   4   2   0    5.37    0.29 
   4   2   0    5.85    0.35 
   4   2   0    5.81    0.34 
  -4   2   0    6.38    0.29 
   4   2   0    6.07    0.29 
   4   2   0    5.53    0.33 
   4   2   0    5.84    0.29 
   4   2   0    5.83    0.28 
  -5  -2   0    0.17    0.17 
  -5  -2   0    0.08    0.11 
  -5  -2   0    0.00    0.12 
  -5  -2   0    0.16    0.09 
   5  -2   0    0.20    0.10 
  -5  -2   0   -0.14    0.22 
  -5  -2   0    0.25    0.13 
  -5  -2   0    0.13    0.11 
  -5  -2   0    0.04    0.07 
  -5  -2   0   -0.09    0.11 
   5  -2   0    0.15    0.07 
  -5   2   0    0.18    0.09 
   5   2   0    0.12    0.09 
  -5   2   0    0.03    0.10 
   5   2   0    0.12    0.12 
   5   2   0    0.11    0.11 
  -5   2   0    0.18    0.10 
   5   2   0    0.12    0.15 
   5   2   0   -0.03    0.14 
   5   2   0    0.05    0.09 
   5   2   0    0.07    0.20 
   5   2   0   -0.21    0.17 
   5   2   0    0.08    0.10 
   5   2   0    0.11    0.12 
   5   2   0    0.12    0.10 
  -5   2   0    0.07    0.12 
  -6  -2   0   24.95    1.38 
  -6  -2   0   24.38    0.89 
  -6  -2   0   22.45    1.12 
  -6  -2   0   24.57    0.96 
  -6  -2   0   24.98    0.70 
   6  -2   0   26.33    0.92 
  -6  -2   0   25.04    1.02 
  -6  -2   0   24.45    0.90 
  -6  -2   0   24.57    0.95 
  -6  -2   0   25.22    0.81 
   6   2   0   24.61    0.96 
   6   2   0   24.20    0.94 
  -6   2   0   22.77    0.98 
   6   2   0   23.57    0.80 
   6   2   0   24.68    0.93 
   6   2   0   22.27    0.87 
   6   2   0   23.78    0.94 
   6   2   0   23.60    0.92 
  -6   2   0   23.17    0.85 
  -6   2   0   24.03    0.83 
   6   2   0   22.99    1.22 
  -7  -2   0    1.46    0.24 
  -7  -2   0    1.36    0.17 
  -7  -2   0    1.13    0.21 
  -7  -2   0    1.27    0.16 
  -7  -2   0    1.40    0.21 
  -7  -2   0    1.25    0.11 
  -7  -2   0    1.20    0.24 
  -7  -2   0    1.00    0.24 
  -7  -2   0    1.37    0.14 
  -7  -2   0    1.19    0.20 
  -7  -2   0    1.14    0.08 
  -7  -2   0    1.42    0.22 
  -7  -2   0    1.44    0.19 
   7   2   0    0.98    0.18 
   7   2   0    0.73    0.18 
  -7   2   0    1.22    0.14 
   7   2   0    1.21    0.20 
  -7   2   0    0.97    0.17 
  -7   2   0    1.48    0.15 
  -7   2   0    1.39    0.17 
   7   2   0    1.27    0.12 
   7   2   0    1.32    0.20 
  -7   2   0    1.14    0.19 
   7   2   0    1.09    0.17 
  -8  -2   0    0.06    0.10 
  -8  -2   0   -0.09    0.08 
  -8  -2   0    0.00    0.08 
  -8  -2   0    0.05    0.07 
  -8  -2   0    0.04    0.10 
   8  -2   0    0.00    0.06 
  -8   2   0    0.09    0.07 
  -8   2   0   -0.13    0.07 
  -8   2   0    0.08    0.07 
   8   2   0    0.01    0.08 
   8   2   0    0.05    0.07 
   8   2   0   -0.03    0.09 
   0  -3   0    0.05    0.08 
   0  -3   0    0.03    0.07 
   0  -3   0    0.03    0.06 
   0  -3   0    0.02    0.08 
   0  -3   0    0.02    0.07 
   0   3   0    0.31    0.08 
   0   3   0    0.03    0.07 
   0   3   0   -0.01    0.04 
   0   3   0    0.03    0.04 
  -1  -3   0  132.66    5.24 
  -1  -3   0  127.10    4.71 
  -1  -3   0  134.72    4.71 
  -1  -3   0  138.83    5.17 
  -1  -3   0  133.45    4.80 
   1  -3   0  134.72    4.66 
  -1  -3   0  134.47    5.81 
   1  -3   0  133.16    4.77 
   1   3   0  119.98    5.91 
   1   3   0  121.11    4.60 
   1   3   0  116.09    4.90 
   1   3   0  118.18    4.67 
   1   3   0  115.75    5.49 
  -1   3   0  119.14    4.65 
  -2  -3   0   92.58    3.31 
   2  -3   0   95.08    3.31 
  -2  -3   0   95.69    4.05 
  -2  -3   0   91.87    3.29 
  -2  -3   0   91.25    3.24 
  -2  -3   0   96.13    3.67 
  -2  -3   0   89.05    3.38 
   2  -3   0   93.90    3.23 
  -2  -3   0   91.64    3.62 
  -2  -3   0   85.60    3.18 
  -2  -3   0   93.22    3.36 
   2   3   0   88.69    4.52 
   2   3   0   95.03    3.76 
   2   3   0   87.70    3.58 
   2   3   0   88.52    4.22 
  -3  -3   0    4.90    0.23 
  -3  -3   0    4.58    0.26 
  -3  -3   0    4.38    0.24 
  -3  -3   0    4.87    0.26 
   3  -3   0    5.22    0.22 
  -3  -3   0    5.21    0.34 
  -3  -3   0    4.84    0.27 
  -3  -3   0    4.49    0.26 
  -3  -3   0    5.15    0.34 
  -3  -3   0    4.84    0.33 
  -3  -3   0    4.92    0.30 
   3   3   0    4.85    0.29 
   3   3   0    5.04    0.37 
   3   3   0    4.99    0.36 
   3   3   0    4.93    0.30 
   3   3   0    4.50    0.25 
   3   3   0    4.58    0.26 
  -4  -3   0   20.88    0.76 
  -4  -3   0   20.42    1.02 
  -4  -3   0   20.93    0.80 
  -4  -3   0   21.33    0.84 
  -4  -3   0   20.55    0.77 
   4  -3   0   21.32    0.80 
  -4  -3   0   21.29    0.82 
  -4  -3   0   21.00    0.84 
  -4  -3   0   20.88    0.74 
  -4  -3   0   18.02    0.94 
  -4  -3   0   21.19    0.82 
  -4  -3   0   21.25    0.97 
   4   3   0   21.64    0.93 
   4   3   0   19.63    0.81 
   4   3   0   18.88    0.58 
   4   3   0   20.12    0.76 
   4   3   0   19.35    0.73 
   4   3   0   20.43    1.12 
   4   3   0   20.38    0.78 
   4   3   0   19.09    0.76 
   4   3   0   19.57    1.08 
   5  -3   0    2.32    0.17 
  -5  -3   0    2.35    0.22 
  -5  -3   0    2.25    0.18 
   5  -3   0    2.52    0.19 
  -5  -3   0    2.50    0.24 
  -5  -3   0    2.65    0.23 
  -5  -3   0    2.72    0.22 
  -5  -3   0    2.52    0.23 
   5   3   0    1.88    0.26 
   5   3   0    2.07    0.25 
   5   3   0    2.48    0.15 
   5   3   0    2.03    0.18 
   5   3   0    2.28    0.22 
   5   3   0    1.94    0.20 
   5   3   0    2.11    0.21 
  -6  -3   0   22.03    0.84 
  -6  -3   0   20.10    0.85 
  -6  -3   0   21.68    0.74 
  -6  -3   0   21.67    0.69 
  -6  -3   0   21.98    0.74 
  -6  -3   0   22.34    0.65 
  -6  -3   0   22.34    0.76 
  -6  -3   0   22.49    0.73 
   6  -3   0   21.55    0.81 
  -6  -3   0   23.33    0.81 
  -6  -3   0   21.64    0.82 
  -6  -3   0   21.34    0.88 
   6   3   0   20.87    0.63 
   6   3   0   20.70    0.73 
   6   3   0   21.56    0.79 
  -6   3   0   21.08    0.70 
   6   3   0   20.46    0.85 
  -6   3   0   21.15    0.70 
  -6   3   0   20.76    0.71 
  -6   3   0   20.84    0.63 
   6   3   0   21.86    0.71 
   6   3   0   21.91    0.82 
  -6   3   0   20.41    0.62 
   6   3   0   20.88    0.71 
   6   3   0   22.30    0.72 
  -7  -3   0    3.38    0.23 
  -7  -3   0    3.55    0.18 
  -7  -3   0    3.53    0.23 
  -7  -3   0    3.96    0.27 
  -7  -3   0    3.43    0.18 
  -7  -3   0    3.62    0.13 
  -7  -3   0    3.83    0.21 
  -7   3   0    3.25    0.19 
   7   3   0    3.63    0.22 
  -7   3   0    3.39    0.19 
   7   3   0    3.55    0.20 
   7   3   0    3.99    0.26 
   7   3   0    3.66    0.20 
   7   3   0    3.54    0.21 
  -7   3   0    3.59    0.19 
  -7   3   0    3.64    0.16 
   7   3   0    3.77    0.22 
  -8  -3   0    5.34    0.25 
  -8  -3   0    5.84    0.22 
  -8  -3   0    5.84    0.24 
   8   3   0    5.91    0.21 
  -8   3   0    6.20    0.22 
  -8   3   0    5.82    0.22 
   8   3   0    5.84    0.23 
   8   3   0    5.91    0.23 
   8   3   0    5.71    0.17 
   8   3   0    5.83    0.23 
   0  -4   0   77.92    2.78 
   0  -4   0   83.59    2.93 
   0   4   0   78.18    2.88 
   0   4   0   66.64    2.65 
  -1  -4   0   27.37    1.09 
  -1  -4   0   28.25    1.06 
  -1  -4   0   27.75    1.02 
  -1  -4   0   28.06    1.18 
  -1  -4   0   28.98    1.20 
  -1  -4   0   28.73    1.10 
  -1  -4   0   29.19    1.31 
  -1  -4   0   28.38    1.05 
   1  -4   0   29.60    1.07 
   1   4   0   25.57    1.01 
   1   4   0   26.52    1.10 
   1   4   0   27.02    1.36 
  -2  -4   0    1.14    0.16 
  -2  -4   0    1.29    0.20 
  -2  -4   0    1.04    0.15 
  -2  -4   0    1.34    0.17 
  -2  -4   0    1.11    0.17 
  -2  -4   0    1.03    0.17 
  -2  -4   0    1.24    0.19 
  -2  -4   0    1.10    0.13 
  -2  -4   0    1.30    0.16 
  -2  -4   0    1.08    0.17 
   2   4   0    0.98    0.16 
   2   4   0    1.04    0.16 
   2   4   0    1.29    0.16 
   2   4   0    1.23    0.16 
   2   4   0    1.13    0.18 
   2   4   0    0.96    0.12 
   2   4   0    1.21    0.18 
   2   4   0    1.02    0.11 
  -3  -4   0    2.09    0.21 
  -3  -4   0    1.93    0.23 
  -3  -4   0    2.15    0.21 
  -3  -4   0    1.99    0.19 
  -3  -4   0    1.87    0.23 
  -3  -4   0    2.26    0.21 
  -3  -4   0    2.19    0.18 
  -3  -4   0    2.19    0.27 
  -3  -4   0    2.15    0.20 
  -3  -4   0    1.97    0.26 
  -3  -4   0    2.29    0.18 
   3   4   0    2.21    0.18 
   3   4   0    1.82    0.18 
   3   4   0    2.06    0.26 
   3   4   0    1.78    0.20 
   3   4   0    2.21    0.25 
   3   4   0    2.04    0.19 
   3   4   0    1.91    0.18 
   3   4   0    1.92    0.21 
   3   4   0    2.25    0.21 
  -4  -4   0   27.02    0.95 
  -4  -4   0   26.00    1.33 
  -4  -4   0   23.79    1.00 
  -4  -4   0   26.42    0.99 
  -4  -4   0   25.08    1.03 
  -4  -4   0   27.05    0.96 
  -4  -4   0   26.21    1.05 
  -4  -4   0   25.63    1.01 
  -4  -4   0   25.18    0.91 
  -4  -4   0   26.99    1.27 
   4   4   0   24.44    0.91 
   4   4   0   24.68    0.97 
   4   4   0   24.24    0.89 
   4   4   0   24.73    0.95 
   4   4   0   21.95    1.32 
   4   4   0   24.53    0.87 
   4   4   0   23.62    0.78 
  -5  -4   0    4.06    0.31 
  -5  -4   0    4.86    0.39 
  -5  -4   0    4.74    0.33 
  -5  -4   0    4.75    0.29 
  -5  -4   0    4.14    0.30 
  -5  -4   0    5.19    0.30 
  -5  -4   0    4.69    0.30 
  -5  -4   0    4.87    0.33 
  -5  -4   0    4.89    0.28 
  -5  -4   0    4.51    0.29 
  -5  -4   0    4.67    0.19 
   5   4   0    4.55    0.25 
   5   4   0    4.41    0.28 
  -5   4   0    4.56    0.17 
   5   4   0    5.04    0.28 
   5   4   0    4.36    0.21 
   5   4   0    4.84    0.26 
   5   4   0    4.94    0.25 
  -5   4   0    4.55    0.21 
   5   4   0    4.58    0.28 
   5   4   0    4.85    0.29 
   5   4   0    4.78    0.17 
   5   4   0    4.52    0.27 
   5   4   0    4.70    0.29 
   5   4   0    4.65    0.22 
   5   4   0    4.46    0.18 
   5   4   0    4.86    0.32 
  -6  -4   0    2.75    0.22 
  -6  -4   0    2.61    0.15 
  -6  -4   0    2.75    0.25 
  -6  -4   0    2.81    0.20 
  -6  -4   0    2.61    0.21 
  -6  -4   0    2.56    0.22 
   6   4   0    2.63    0.24 
   6   4   0    2.91    0.12 
   6   4   0    2.66    0.20 
   6   4   0    3.03    0.25 
   6   4   0    2.84    0.16 
   6   4   0    2.80    0.18 
   6   4   0    2.45    0.20 
   6   4   0    2.66    0.23 
   6   4   0    3.06    0.20 
  -6   4   0    2.85    0.16 
   6   4   0    2.71    0.18 
   6   4   0    2.51    0.15 
  -7  -4   0    4.70    0.15 
  -7  -4   0    4.67    0.19 
  -7  -4   0    4.78    0.22 
  -7  -4   0    4.62    0.22 
  -7  -4   0    5.01    0.23 
   7   4   0    4.72    0.21 
   7   4   0    4.62    0.20 
   7   4   0    4.61    0.18 
  -7   4   0    4.74    0.17 
   7   4   0    4.35    0.22 
   0  -5   0    0.09    0.06 
   0  -5   0    0.02    0.10 
   0   5   0    0.25    0.06 
  -1  -5   0    5.17    0.26 
  -1  -5   0    5.43    0.30 
   1  -5   0    5.35    0.28 
  -1  -5   0    5.53    0.33 
  -1  -5   0    5.25    0.36 
  -1  -5   0    5.70    0.29 
  -1  -5   0    5.93    0.28 
   1   5   0    4.94    0.26 
   1   5   0    4.86    0.27 
   1   5   0    5.08    0.23 
   1   5   0    4.64    0.24 
  -2  -5   0    2.23    0.21 
  -2  -5   0    2.25    0.21 
  -2  -5   0    2.61    0.23 
  -2  -5   0    1.73    0.27 
  -2  -5   0    2.25    0.18 
  -2  -5   0    2.04    0.20 
  -2  -5   0    1.99    0.21 
  -2  -5   0    2.20    0.23 
  -2  -5   0    2.24    0.25 
  -2  -5   0    1.80    0.29 
   2   5   0    2.04    0.11 
   2   5   0    2.07    0.16 
   2   5   0    2.23    0.20 
   2   5   0    1.96    0.19 
   2   5   0    2.28    0.19 
   2   5   0    2.19    0.18 
   2   5   0    1.85    0.17 
  -3  -5   0    3.75    0.26 
  -3  -5   0    3.78    0.27 
  -3  -5   0    4.09    0.27 
  -3  -5   0    3.52    0.33 
  -3  -5   0    3.86    0.35 
  -3  -5   0    3.41    0.27 
  -3  -5   0    3.46    0.27 
  -3  -5   0    3.27    0.22 
   3   5   0    3.53    0.25 
   3   5   0    3.02    0.23 
   3   5   0    3.25    0.22 
   3   5   0    3.75    0.25 
   3   5   0    3.15    0.28 
   3   5   0    3.73    0.26 
   3   5   0    3.26    0.16 
   3   5   0    3.04    0.21 
   3   5   0    3.21    0.21 
  -4  -5   0   23.65    0.83 
  -4  -5   0   20.17    0.90 
  -4  -5   0   22.37    1.14 
  -4  -5   0   21.72    0.72 
  -4  -5   0   21.51    0.87 
  -4  -5   0   22.04    0.76 
  -4  -5   0   22.31    0.83 
  -4  -5   0   21.14    0.86 
   4   5   0   22.16    0.81 
   4   5   0   21.76    0.84 
   4   5   0   21.41    0.77 
   4   5   0   20.52    0.70 
  -4   5   0   21.74    0.68 
   4   5   0   21.54    0.75 
   4   5   0   21.03    0.71 
   4   5   0   22.12    0.83 
   4   5   0   22.14    0.88 
   4   5   0   21.46    0.62 
   4   5   0   21.21    0.70 
   4   5   0   20.44    0.58 
   4   5   0   20.66    0.63 
  -5  -5   0    8.84    0.33 
  -5  -5   0    9.25    0.42 
  -5  -5   0    9.33    0.29 
  -5  -5   0    9.34    0.38 
  -5  -5   0    8.26    0.42 
  -5  -5   0    8.84    0.54 
   5   5   0    9.11    0.34 
   5   5   0    9.25    0.35 
   5   5   0    9.31    0.37 
  -5   5   0    8.83    0.29 
   5   5   0    9.06    0.28 
   5   5   0    9.20    0.35 
   5   5   0    8.78    0.30 
   5   5   0    9.69    0.41 
   5   5   0    8.59    0.30 
   5   5   0    8.32    0.38 
   5   5   0    8.98    0.42 
   5   5   0    9.37    0.40 
  -6  -5   0    9.85    0.35 
  -6  -5   0    9.58    0.33 
  -6  -5   0    9.56    0.37 
   6   5   0    9.37    0.27 
   6   5   0    9.40    0.33 
   6   5   0    8.89    0.33 
   6   5   0    9.32    0.29 
   6   5   0    9.06    0.35 
   0  -6   0   19.65    0.74 
   0   6   0   17.72    0.61 
   0   6   0   17.41    0.59 
   0   6   0   18.51    0.60 
   0   6   0   18.23    0.54 
   0   6   0   18.47    0.53 
  -1  -6   0    6.88    0.32 
   1  -6   0    6.60    0.31 
  -1  -6   0    6.71    0.36 
   1   6   0    6.28    0.23 
   1   6   0    6.15    0.26 
  -1   6   0    6.13    0.24 
   1   6   0    6.21    0.23 
  -1   6   0    6.06    0.20 
   1   6   0    5.90    0.26 
   1   6   0    5.97    0.24 
  -2  -6   0    8.69    0.39 
  -2  -6   0    8.58    0.38 
  -2  -6   0    8.18    0.32 
  -2  -6   0    7.53    0.51 
  -2  -6   0    8.84    0.40 
  -2  -6   0    9.08    0.41 
   2   6   0    8.57    0.33 
   2   6   0    8.61    0.32 
   2   6   0    7.89    0.34 
   2   6   0    8.69    0.34 
   2   6   0    8.47    0.30 
   2   6   0    8.12    0.29 
  -2   6   0    8.55    0.29 
   2   6   0    8.17    0.24 
   2   6   0    8.28    0.31 
  -3  -6   0   30.00    0.97 
  -3  -6   0   30.04    1.08 
  -3  -6   0   30.96    1.53 
   3   6   0   30.62    1.05 
   3   6   0   30.74    0.96 
   3   6   0   29.85    0.94 
   3   6   0   29.83    0.90 
   3   6   0   29.86    0.93 
   3   6   0   27.30    1.07 
   3   6   0   29.64    0.80 
   3   6   0   30.66    0.96 
   3   6   0   29.08    1.06 
  -4  -6   0    7.03    0.27 
  -4  -6   0    6.52    0.24 
  -4  -6   0    6.81    0.43 
   4   6   0    6.73    0.26 
   4   6   0    6.18    0.27 
   4   6   0    6.09    0.26 
   4   6   0    6.77    0.21 
   4   6   0    6.24    0.25 
   4   6   0    6.41    0.21 
   4   6   0    6.80    0.27 
   4   6   0    6.68    0.25 
   4   6   0    6.74    0.24 
   4   6   0    5.28    0.28 
  -5  -6   0    0.54    0.14 
  -5  -6   0    0.48    0.08 
   5   6   0    0.34    0.08 
   5   6   0    0.61    0.07 
   5   6   0    0.32    0.07 
   5   6   0    0.55    0.06 
   5   6   0    0.45    0.11 
   5   6   0    0.46    0.08 
   5   6   0    0.30    0.08 
   0   7   0    0.04    0.03 
   0   7   0    0.02    0.05 
   0   7   0   -0.01    0.06 
   1   7   0    8.66    0.27 
   1   7   0    8.70    0.30 
   1   7   0    8.47    0.31 
   1   7   0    8.56    0.31 
  -1   7   0    8.63    0.29 
  -2  -7   0   13.67    0.46 
   2   7   0   13.12    0.44 
   2   7   0   12.85    0.39 
   2   7   0   13.21    0.44 
  -3  -7   0   13.42    0.44 
   3   7   0   13.27    0.44 
   3   7   0   13.38    0.39 
   3   7   0   13.05    0.44 
   3   7   0   12.99    0.39 
   3   7   0   13.45    0.42 
  -9   0   1   35.01    0.94 
  -9   0   1   35.65    0.97 
  -9   0   1   35.56    1.03 
  -9   0   1   35.65    1.07 
   9   0  -1   34.37    0.97 
  -8   0   1    3.66    0.25 
  -8   0   1    3.53    0.17 
   8   0  -1    3.80    0.17 
  -8   0   1    3.65    0.20 
  -8   0   1    3.39    0.23 
  -8   0   1    3.77    0.20 
  -8   0   1    3.57    0.18 
  -8   0   1    4.11    0.23 
  -8   0   1    3.45    0.22 
  -8   0   1    3.32    0.21 
  -8   0   1    3.54    0.14 
  -8   0   1    3.77    0.21 
   8   0  -1    3.95    0.33 
   8   0  -1    3.53    0.23 
  -8   0   1    3.34    0.23 
  -8   0   1    3.77    0.24 
   8   0  -1    3.76    0.20 
  -7   0   1   16.43    0.61 
  -7   0   1   17.38    0.67 
  -7   0   1   16.25    0.59 
  -7   0   1   17.00    0.53 
  -7   0   1   17.34    0.67 
   7   0  -1   15.38    0.69 
  -7   0   1   16.64    0.59 
  -7   0   1   17.42    0.51 
  -7   0   1   16.91    0.57 
  -7   0   1   18.33    0.69 
  -7   0   1   17.11    0.68 
  -7   0   1   16.85    0.73 
   7   0  -1   17.11    0.58 
  -7   0   1   17.90    0.63 
  -7   0   1   16.84    0.50 
   7   0  -1   17.29    0.93 
   7   0  -1   17.20    0.73 
  -7   0   1   17.10    0.63 
   7   0  -1   17.28    0.66 
  -7   0   1   16.83    0.60 
  -7   0   1   16.60    0.47 
   7   0  -1   15.97    0.71 
  -6   0   1   36.50    1.38 
  -6   0   1   36.61    1.34 
   6   0  -1   36.07    1.24 
  -6   0   1   36.23    1.22 
  -6   0   1   36.81    1.50 
  -6   0   1   36.63    1.00 
  -6   0   1   34.48    1.26 
   6   0  -1   35.80    1.51 
  -6   0   1   30.76    1.85 
   6   0  -1   31.41    1.62 
   6   0  -1   35.88    1.31 
   6   0  -1   32.80    1.38 
  -6   0   1   35.13    1.28 
  -6   0   1   36.64    1.52 
  -6   0   1   34.91    1.76 
  -6   0   1   35.91    1.22 
   6   0  -1   35.95    1.37 
   6   0  -1   36.30    1.33 
   6   0  -1   35.07    1.76 
   6   0  -1   35.20    1.27 
  -5   0   1   18.61    0.97 
  -5   0   1   16.93    0.77 
  -5   0   1   17.03    0.67 
   5   0  -1   16.81    0.72 
   5   0  -1   17.47    0.68 
   5   0  -1   17.77    0.71 
   5   0  -1   18.16    0.79 
   5   0  -1   17.55    0.66 
  -5   0   1   17.59    0.72 
   5   0  -1   17.75    0.79 
  -5   0   1   16.45    0.63 
   5   0  -1   17.99    0.85 
   5   0  -1   18.31    0.70 
  -5   0   1   16.58    0.93 
  -5   0   1   17.56    0.79 
   5   0  -1   17.16    0.64 
   4   0  -1    0.13    0.06 
   4   0  -1    0.20    0.11 
  -4   0   1    0.10    0.12 
   4   0  -1    0.04    0.07 
  -4   0   1    0.21    0.12 
  -4   0   1    0.04    0.10 
   4   0  -1    0.19    0.08 
   4   0  -1    0.09    0.09 
   4   0  -1    0.23    0.08 
   4   0  -1    0.12    0.09 
  -4   0   1    0.11    0.17 
   4   0  -1    0.10    0.09 
   4   0  -1    0.19    0.09 
   3   0  -1  146.78    5.64 
  -3   0   1  145.16    5.68 
   3   0  -1  149.58    5.72 
   3   0  -1  143.27    5.24 
   3   0  -1  141.84    5.13 
  -3   0   1  151.40    6.78 
   2   0  -1  509.70   19.18 
   2   0  -1  499.78   17.38 
  -2   0   1  490.87   19.33 
  -2   0   1  496.14   19.19 
  -2   0   1  514.33   17.39 
   1   0  -1  369.63   12.54 
  -1   0   1  355.42   12.54 
   0   0   1    0.13    0.03 
   0   0   1    0.16    0.04 
   0   0  -1    0.13    0.04 
   1   0   1  206.35    7.31 
   1   0   1  214.32    7.31 
  -1   0  -1  208.97    8.12 
  -1   0  -1  214.16    7.31 
   2   0   1   39.87    1.45 
   2   0   1   41.28    1.58 
  -2   0  -1   40.52    1.90 
  -2   0  -1   40.34    1.59 
  -3   0  -1    1.36    0.13 
  -3   0  -1    1.39    0.17 
   3   0   1    1.22    0.12 
   3   0   1    1.51    0.14 
  -3   0  -1    1.32    0.15 
  -3   0  -1    1.33    0.14 
   3   0   1    1.37    0.13 
   3   0   1    1.29    0.13 
   3   0   1    1.43    0.13 
  -3   0  -1    1.22    0.13 
   4   0   1    6.66    0.34 
  -4   0  -1    6.38    0.34 
  -4   0  -1    6.16    0.40 
   4   0   1    6.63    0.32 
   4   0   1    6.47    0.35 
  -4   0  -1    6.56    0.33 
   4   0   1    6.74    0.36 
  -4   0  -1    6.60    0.40 
   4   0   1    6.28    0.29 
  -4   0  -1    6.68    0.31 
  -4   0  -1    6.85    0.33 
   4   0   1    6.41    0.29 
   4   0   1    6.50    0.30 
   4   0   1    6.02    0.27 
   5   0   1   36.88    1.29 
  -5   0  -1   36.61    1.32 
   5   0   1   36.76    1.56 
  -5   0  -1   37.19    1.26 
   5   0   1   37.58    1.42 
  -5   0  -1   35.22    1.27 
  -5   0  -1   35.01    1.93 
   5   0   1   36.73    1.33 
   5   0   1   39.46    1.37 
  -5   0  -1   37.44    1.83 
   5   0   1   38.71    1.70 
  -5   0  -1   39.13    1.55 
  -5   0  -1   34.98    1.02 
   5   0   1   38.41    1.43 
   5   0   1   39.39    1.39 
  -5   0  -1   37.45    1.42 
   5   0   1   36.16    1.54 
  -5   0  -1   38.09    1.58 
  -6   0  -1   39.08    1.31 
  -6   0  -1   37.73    1.47 
   6   0   1   40.31    1.43 
   6   0   1   38.88    1.37 
   6   0   1   39.83    1.47 
  -6   0  -1   38.48    1.04 
  -6   0  -1   38.36    1.59 
   6   0   1   35.73    1.75 
  -6   0  -1   36.29    1.29 
  -6   0  -1   38.33    1.36 
   6   0   1   37.38    1.89 
   6   0   1   38.49    1.41 
  -6   0  -1   37.29    1.35 
  -6   0  -1   35.11    1.96 
   6   0   1   38.36    1.33 
  -6   0  -1   37.61    1.36 
   6   0   1   37.80    1.48 
   7   0   1    9.67    0.36 
  -7   0  -1    9.60    0.39 
   7   0   1    9.15    0.44 
  -7   0  -1    9.46    0.38 
  -7   0  -1    9.22    0.31 
   7   0   1    9.24    0.42 
  -7   0  -1    9.21    0.34 
  -7   0  -1    9.13    0.38 
  -7   0  -1    9.15    0.41 
   7   0   1   10.18    0.48 
  -7   0  -1   10.13    0.41 
  -7   0  -1    9.77    0.44 
  -7   0  -1    9.01    0.40 
  -7   0  -1    9.84    0.36 
  -7   0  -1    9.19    0.46 
  -7   0  -1    9.78    0.28 
  -7   0  -1    9.68    0.28 
   7   0   1    9.51    0.57 
  -7   0  -1    8.99    0.37 
  -7   0  -1    9.45    0.43 
   8   0   1    6.77    0.48 
  -8   0  -1    8.34    0.33 
  -8   0  -1    8.51    0.30 
  -8   0  -1    7.96    0.26 
  -8   0  -1    8.28    0.32 
   8   0   1    8.25    0.30 
  -8   0  -1    8.37    0.29 
  -8   0  -1    8.51    0.24 
  -8   0  -1    8.13    0.30 
   8   0   1    8.40    0.27 
  -8   0  -1    8.12    0.32 
  -8  -1   1    1.67    0.18 
  -8  -1   1    2.26    0.20 
  -8  -1   1    1.64    0.22 
  -8  -1   1    2.16    0.16 
   8  -1  -1    1.58    0.15 
  -8  -1   1    2.19    0.19 
  -8  -1   1    2.14    0.16 
  -8  -1   1    2.24    0.19 
  -8  -1   1    1.90    0.18 
  -8  -1   1    1.73    0.20 
   8  -1  -1    1.97    0.26 
  -8  -1   1    1.94    0.12 
  -8  -1   1    2.05    0.13 
  -8   1   1    1.54    0.18 
  -8   1   1    2.17    0.17 
   8   1  -1    2.72    0.29 
  -8   1   1    1.73    0.16 
  -8   1   1    1.96    0.19 
   8   1  -1    2.04    0.12 
   8   1  -1    2.22    0.20 
  -8   1   1    1.73    0.15 
  -8   1   1    1.65    0.16 
  -8   1   1    1.64    0.17 
   7  -1  -1    7.70    0.40 
  -7  -1   1    8.79    0.38 
  -7  -1   1    8.23    0.41 
  -7  -1   1    7.31    0.30 
   7  -1  -1    7.75    0.36 
   7  -1  -1    7.50    0.36 
  -7  -1   1    8.33    0.39 
  -7  -1   1    8.13    0.40 
  -7  -1   1    8.26    0.43 
  -7  -1   1    7.90    0.28 
   7  -1  -1    7.72    0.51 
  -7  -1   1    7.91    0.36 
   7  -1  -1    7.12    0.38 
  -7  -1   1    8.11    0.35 
  -7  -1   1    7.44    0.33 
  -7  -1   1    7.67    0.32 
   7  -1  -1    7.45    0.31 
  -7  -1   1    7.86    0.39 
  -7   1   1    7.46    0.31 
  -7   1   1    7.26    0.26 
   7   1  -1    7.87    0.40 
  -7   1   1    7.18    0.36 
  -7   1   1    7.67    0.33 
   7   1  -1    7.78    0.31 
  -7   1   1    7.35    0.37 
  -7   1   1    7.72    0.33 
  -7   1   1    7.31    0.32 
   7   1  -1    7.87    0.27 
   7   1  -1    7.87    0.41 
   7   1  -1    7.78    0.35 
   7   1  -1    7.70    0.37 
  -7   1   1    7.92    0.36 
   7   1  -1    7.19    0.38 
   7   1  -1    8.33    0.39 
  -7   1   1    6.38    0.38 
   7   1  -1    8.32    0.51 
  -7   1   1    7.13    0.34 
  -7   1   1    7.56    0.39 
  -7   1   1    7.45    0.23 
  -7   1   1    7.19    0.34 
   6  -1  -1    1.29    0.20 
  -6  -1   1    1.08    0.28 
  -6  -1   1    1.39    0.21 
  -6  -1   1    1.39    0.19 
   6  -1  -1    1.16    0.19 
   6  -1  -1    1.29    0.18 
   6  -1  -1    1.12    0.20 
   6  -1  -1    1.34    0.18 
   6  -1  -1    1.44    0.16 
  -6  -1   1    1.27    0.14 
  -6  -1   1    1.38    0.21 
   6  -1  -1    1.39    0.18 
   6  -1  -1    1.00    0.21 
  -6  -1   1    1.19    0.27 
   6  -1  -1    1.14    0.22 
  -6  -1   1    1.39    0.20 
  -6  -1   1    1.31    0.22 
  -6  -1   1    1.32    0.18 
  -6  -1   1    1.30    0.24 
  -6   1   1    1.74    0.19 
  -6   1   1    1.38    0.21 
   6   1  -1    1.34    0.22 
  -6   1   1    1.38    0.18 
   6   1  -1    0.87    0.20 
   6   1  -1    1.41    0.19 
   6   1  -1    1.36    0.21 
   6   1  -1    1.41    0.18 
   6   1  -1    1.56    0.17 
   6   1  -1    1.45    0.28 
   6   1  -1    1.34    0.20 
   6   1  -1    1.28    0.20 
  -6   1   1    1.10    0.18 
  -6   1   1    1.45    0.17 
  -6   1   1    1.31    0.20 
  -6   1   1    1.23    0.12 
  -6   1   1    1.17    0.18 
  -6   1   1    1.12    0.21 
   5  -1  -1    3.32    0.24 
   5  -1  -1    3.36    0.20 
  -5  -1   1    3.62    0.23 
   5  -1  -1    3.45    0.21 
   5  -1  -1    3.37    0.19 
  -5  -1   1    3.54    0.24 
  -5  -1   1    3.39    0.21 
  -5  -1   1    3.26    0.22 
   5  -1  -1    3.52    0.23 
   5  -1  -1    3.53    0.25 
   5  -1  -1    3.49    0.22 
   5  -1  -1    3.35    0.25 
  -5  -1   1    3.49    0.32 
  -5  -1   1    3.62    0.23 
   5  -1  -1    3.13    0.20 
  -5  -1   1    3.25    0.15 
  -5  -1   1    3.05    0.24 
  -5  -1   1    3.39    0.32 
  -5  -1   1    3.69    0.26 
  -5  -1   1    3.60    0.22 
   5   1  -1    3.49    0.27 
   5   1  -1    3.25    0.23 
   5   1  -1    3.28    0.22 
   5   1  -1    3.13    0.22 
  -5   1   1    3.03    0.16 
   5   1  -1    3.32    0.22 
  -5   1   1    3.23    0.18 
  -5   1   1    3.23    0.20 
   5   1  -1    3.20    0.26 
  -5   1   1    3.43    0.26 
  -5   1   1    3.08    0.23 
  -5   1   1    3.84    0.21 
  -5   1   1    3.11    0.23 
   5   1  -1    3.33    0.20 
   5   1  -1    3.00    0.22 
  -5   1   1    2.74    0.27 
  -5   1   1    3.10    0.22 
   5   1  -1    3.14    0.25 
   4  -1  -1    5.06    0.25 
   4  -1  -1    5.15    0.23 
   4  -1  -1    5.20    0.28 
  -4  -1   1    4.92    0.36 
  -4  -1   1    5.01    0.29 
  -4  -1   1    4.94    0.36 
  -4  -1   1    4.80    0.27 
   4  -1  -1    5.28    0.28 
   4  -1  -1    4.98    0.23 
   4  -1  -1    5.54    0.26 
   4  -1  -1    5.17    0.29 
   4  -1  -1    4.91    0.22 
   4   1  -1    4.69    0.29 
  -4   1   1    5.15    0.33 
   4   1  -1    5.46    0.30 
  -4   1   1    4.76    0.33 
   4   1  -1    4.85    0.25 
   4   1  -1    4.50    0.24 
   4   1  -1    4.95    0.25 
  -4   1   1    4.78    0.27 
  -4   1   1    5.81    0.25 
  -4   1   1    4.91    0.27 
   4   1  -1    4.86    0.36 
   4   1  -1    4.72    0.26 
   4   1  -1    4.94    0.30 
   3  -1  -1  122.84    4.48 
   3  -1  -1  126.28    4.39 
   3  -1  -1  121.95    4.89 
   3  -1  -1  128.71    4.82 
  -3  -1   1  125.40    4.92 
  -3  -1   1  128.76    5.82 
  -3  -1   1  122.27    4.85 
   3   1  -1  117.96    5.64 
   3   1  -1  126.55    4.69 
  -3   1   1  117.21    4.78 
  -3   1   1  120.78    4.70 
  -3   1   1  116.36    5.02 
  -3   1   1  120.35    6.04 
   3   1  -1  124.04    4.76 
  -3   1   1  126.95    5.62 
   2  -1  -1  395.67   15.32 
  -2  -1   1  403.01   15.34 
  -2  -1   1  397.00   13.91 
   2  -1  -1  408.17   13.89 
  -2  -1   1  401.48   15.58 
   2   1  -1  401.07   15.01 
   2   1  -1  392.49   18.06 
   2   1  -1  403.02   13.62 
  -2   1   1  372.73   15.11 
  -2   1   1  390.88   15.11 
   2   1  -1  395.69   15.13 
   1  -1  -1  574.54   18.97 
  -1  -1   1  546.57   20.93 
   1  -1  -1  487.57   18.96 
  -1  -1   1  582.70   18.97 
   1  -1  -1  550.61   20.94 
  -1   1   1  534.90   20.31 
  -1   1   1  536.69   20.31 
   1   1  -1  517.04   20.30 
   1   1  -1  522.56   18.25 
   0  -1   1  491.50   17.09 
   0  -1  -1  497.83   17.11 
   0   1  -1  492.99   18.53 
   0   1   1  476.89   16.67 
   0   1  -1  491.34   18.53 
   0   1   1  466.73   18.54 
   1  -1   1  390.14   13.51 
  -1  -1  -1  386.28   14.94 
   1  -1   1  395.24   13.51 
  -1  -1  -1  392.19   13.55 
   1   1   1  372.43   14.27 
   1   1   1  377.97   12.84 
   1   1   1  361.37   14.16 
  -2  -1  -1   20.21    0.85 
  -2  -1  -1   20.02    0.86 
  -2  -1  -1   19.88    1.01 
  -2  -1  -1   21.78    0.80 
   2  -1   1   20.49    0.82 
   2  -1   1   22.00    0.76 
   2   1   1   19.64    0.80 
  -2   1  -1   21.03    0.78 
   2   1   1   18.30    0.75 
  -2   1  -1   19.70    0.78 
   2   1   1   20.20    0.82 
   2   1   1   19.31    0.97 
  -3  -1  -1   36.59    1.57 
   3  -1   1   36.84    1.35 
   3  -1   1   36.30    1.34 
  -3  -1  -1   36.62    1.51 
   3  -1   1   35.32    1.48 
   3  -1   1   36.36    1.63 
  -3  -1  -1   36.57    1.90 
   3  -1   1   37.82    1.46 
  -3  -1  -1   40.20    1.79 
   3   1   1   36.53    1.37 
  -3   1  -1   35.45    1.48 
  -3   1  -1   37.25    1.45 
   3   1   1   38.84    1.48 
   3   1   1   37.71    1.50 
   3   1   1   37.42    1.65 
   3   1   1   36.67    1.37 
  -3   1  -1   36.29    1.74 
  -3   1  -1   35.92    1.86 
   3   1   1   37.03    1.78 
   4  -1   1   20.07    0.82 
   4  -1   1   20.10    0.76 
   4  -1   1   19.64    0.72 
  -4  -1  -1   18.62    0.85 
   4  -1   1   18.57    0.70 
  -4  -1  -1   19.85    1.01 
   4  -1   1   18.49    0.83 
   4  -1   1   20.01    0.73 
  -4  -1  -1   20.23    1.06 
  -4  -1  -1   19.88    0.74 
   4  -1   1   18.19    0.75 
  -4  -1  -1   18.41    0.77 
  -4  -1  -1   19.72    0.87 
   4  -1   1   20.11    0.90 
  -4   1  -1   18.91    0.79 
   4   1   1   19.19    0.83 
  -4   1  -1   18.73    0.77 
  -4   1  -1   18.16    0.72 
   4   1   1   19.29    0.89 
   4   1   1   17.79    0.74 
   4   1   1   18.40    0.68 
   4   1   1   18.26    0.71 
   4   1   1   18.65    0.75 
   4   1   1   18.55    0.72 
   4   1   1   19.18    0.82 
  -4   1  -1   18.69    0.97 
   4   1   1   18.54    0.71 
  -5  -1  -1   11.03    0.44 
   5  -1   1   10.41    0.48 
  -5  -1  -1   10.73    0.66 
   5  -1   1   11.48    0.45 
  -5  -1  -1   10.51    0.46 
  -5  -1  -1    9.94    0.54 
  -5  -1  -1   10.04    0.38 
  -5  -1  -1   10.54    0.31 
  -5  -1  -1   11.20    0.46 
   5  -1   1   11.44    0.56 
  -5  -1  -1   10.76    0.44 
  -5  -1  -1   10.53    0.50 
   5  -1   1   10.91    0.45 
   5  -1   1   10.69    0.47 
  -5  -1  -1   10.57    0.53 
  -5  -1  -1   10.55    0.65 
   5  -1   1   11.04    0.53 
   5  -1   1   10.64    0.42 
   5  -1   1   11.28    0.43 
   5  -1   1   10.93    0.52 
   5   1   1   11.46    0.57 
   5   1   1   10.63    0.47 
  -5   1  -1   11.45    0.48 
   5   1   1   10.34    0.48 
  -5   1  -1   11.14    0.45 
  -5   1  -1   10.99    0.44 
   5   1   1   11.48    0.65 
   5   1   1   10.96    0.49 
  -5   1  -1   10.98    0.43 
   5   1   1   11.52    0.60 
  -5   1  -1   11.06    0.32 
   5   1   1   11.19    0.48 
  -5   1  -1   10.90    0.46 
   5   1   1   10.39    0.55 
   5   1   1   11.07    0.45 
  -5   1  -1   11.19    0.52 
   6  -1   1   20.13    0.76 
  -6  -1  -1   20.94    0.79 
  -6  -1  -1   20.60    0.77 
  -6  -1  -1   21.02    0.77 
  -6  -1  -1   21.45    0.94 
   6  -1   1   20.37    0.81 
  -6  -1  -1   18.83    1.15 
  -6  -1  -1   21.80    0.88 
   6  -1   1   21.35    0.85 
  -6  -1  -1   21.16    0.81 
   6  -1   1   21.23    1.02 
   6  -1   1   21.64    0.79 
   6  -1   1   21.02    0.82 
  -6  -1  -1   19.76    0.94 
   6   1   1   20.70    0.82 
   6   1   1   20.50    0.77 
  -6   1  -1   20.54    0.82 
   6   1   1   20.96    0.85 
   6   1   1   20.18    0.83 
   6   1   1   21.02    1.02 
  -6   1  -1   20.21    0.76 
  -6   1  -1   20.43    0.89 
   6   1   1   20.13    0.82 
  -6   1  -1   19.90    0.76 
  -6   1  -1   20.65    0.77 
   6   1   1   20.42    1.08 
  -6   1  -1   20.03    0.75 
  -7  -1  -1   21.50    0.76 
  -7  -1  -1   22.26    0.74 
  -7  -1  -1   21.78    0.69 
   7  -1   1   21.13    0.78 
  -7  -1  -1   19.98    0.61 
  -7  -1  -1   20.97    0.77 
  -7  -1  -1   21.61    0.60 
  -7  -1  -1   21.76    0.80 
  -7  -1  -1   20.42    0.57 
  -7  -1  -1   21.52    0.63 
  -7  -1  -1   18.90    0.81 
  -7  -1  -1   21.15    0.71 
   7  -1   1   20.42    0.69 
  -7  -1  -1   21.08    0.70 
  -7  -1  -1   19.20    0.86 
   7   1   1   21.15    0.62 
  -7   1  -1   20.43    0.71 
  -7   1  -1   21.33    0.66 
  -7   1  -1   21.25    0.76 
   7   1   1   22.18    1.10 
   7   1   1   20.58    0.83 
  -7   1  -1   20.12    0.77 
  -7   1  -1   20.92    0.57 
   7   1   1   21.70    0.70 
  -7   1  -1   20.78    0.68 
  -7   1  -1   20.06    0.78 
   7   1   1   21.19    0.73 
  -8  -1  -1   44.41    1.44 
  -8  -1  -1   43.95    1.18 
  -8  -1  -1   44.56    1.19 
  -8  -1  -1   43.74    1.12 
  -8  -1  -1   44.45    1.23 
   8  -1   1   44.72    1.38 
  -8  -1  -1   45.51    1.38 
  -8  -1  -1   43.89    1.36 
  -8   1  -1   44.36    1.31 
   8   1   1   44.08    1.39 
  -8   1  -1   44.71    1.26 
  -8   1  -1   45.39    1.41 
  -8   1  -1   45.60    1.35 
   8   1   1   45.51    1.44 
  -8   1  -1   45.06    1.40 
   8   1   1   43.68    1.24 
   8  -2  -1    6.97    0.27 
  -8  -2   1    7.06    0.30 
  -8  -2   1    7.01    0.28 
  -8  -2   1    6.55    0.30 
  -8  -2   1    7.27    0.25 
  -8   2   1    6.92    0.25 
   8   2  -1    6.89    0.27 
  -8   2   1    7.27    0.28 
  -8   2   1    7.00    0.26 
   8   2  -1    7.23    0.29 
   8   2  -1    6.80    0.29 
  -8   2   1    7.04    0.24 
  -8   2   1    6.72    0.27 
  -7  -2   1    0.08    0.10 
  -7  -2   1    0.13    0.10 
  -7  -2   1    0.03    0.14 
  -7  -2   1    0.24    0.14 
  -7  -2   1    0.27    0.12 
  -7  -2   1    0.25    0.21 
  -7  -2   1    0.20    0.06 
  -7  -2   1    0.19    0.12 
   7  -2  -1    0.40    0.11 
  -7  -2   1    0.12    0.15 
  -7  -2   1    0.16    0.08 
  -7  -2   1    0.31    0.08 
  -7  -2   1    0.25    0.06 
  -7  -2   1    0.19    0.14 
   7   2  -1    0.23    0.11 
   7   2  -1    0.39    0.11 
  -7   2   1    0.42    0.10 
   7   2  -1    0.35    0.12 
  -7   2   1    0.51    0.11 
  -7   2   1    0.67    0.16 
   7   2  -1    0.32    0.10 
  -7   2   1    0.16    0.12 
  -7   2   1    0.24    0.11 
   7   2  -1    0.32    0.11 
   7   2  -1    0.30    0.06 
  -7   2   1    0.47    0.09 
  -6  -2   1    9.75    0.48 
  -6  -2   1    9.68    0.45 
   6  -2  -1   10.08    0.41 
  -6  -2   1    9.12    0.54 
  -6  -2   1   10.11    0.44 
   6  -2  -1    9.96    0.54 
   6  -2  -1   10.12    0.42 
  -6  -2   1    9.91    0.43 
  -6  -2   1    9.34    0.37 
   6  -2  -1    9.48    0.47 
  -6  -2   1    9.93    0.43 
  -6  -2   1   10.52    0.47 
  -6  -2   1    9.81    0.32 
   6  -2  -1    9.59    0.43 
   6  -2  -1   10.80    0.46 
   6   2  -1    9.80    0.44 
  -6   2   1   10.09    0.39 
   6   2  -1    9.30    0.46 
  -6   2   1    9.70    0.40 
  -6   2   1    9.30    0.46 
   6   2  -1   10.06    0.47 
  -6   2   1    8.81    0.44 
   6   2  -1    9.36    0.38 
   5  -2  -1    4.63    0.31 
  -5  -2   1    5.05    0.25 
  -5  -2   1    5.63    0.32 
   5  -2  -1    5.53    0.29 
  -5  -2   1    5.44    0.29 
   5  -2  -1    5.65    0.26 
   5  -2  -1    5.62    0.26 
  -5  -2   1    5.13    0.44 
   5  -2  -1    5.74    0.27 
   5  -2  -1    5.81    0.33 
   5  -2  -1    5.83    0.30 
  -5  -2   1    6.58    0.30 
  -5  -2   1    5.32    0.30 
  -5  -2   1    5.10    0.28 
  -5   2   1    5.60    0.25 
  -5   2   1    5.33    0.27 
  -5   2   1    5.16    0.29 
  -5   2   1    5.19    0.25 
   5   2  -1    4.42    0.33 
   5   2  -1    5.01    0.25 
   5   2  -1    4.90    0.41 
   5   2  -1    4.82    0.34 
   5   2  -1    4.95    0.28 
  -5   2   1    5.12    0.28 
   5   2  -1    5.31    0.28 
   5   2  -1    5.08    0.28 
  -4  -2   1   48.89    2.10 
   4  -2  -1   53.12    2.29 
  -4  -2   1   51.78    1.90 
   4  -2  -1   51.34    1.86 
  -4  -2   1   52.22    1.76 
  -4  -2   1   52.71    2.14 
   4  -2  -1   50.90    1.80 
  -4  -2   1   52.00    1.87 
  -4  -2   1   53.70    1.94 
  -4  -2   1   56.56    2.34 
   4  -2  -1   51.90    1.90 
   4  -2  -1   51.02    2.08 
   4  -2  -1   49.67    1.92 
   4  -2  -1   50.43    2.05 
  -4  -2   1   51.44    2.51 
  -4  -2   1   52.61    1.87 
   4   2  -1   50.49    1.79 
   4   2  -1   51.25    2.42 
  -4   2   1   47.55    1.95 
  -4   2   1   51.70    2.00 
  -4   2   1   49.31    1.84 
   4   2  -1   49.64    1.81 
   4   2  -1   48.61    2.03 
   3  -2  -1  228.69    9.93 
   3  -2  -1  232.14    8.81 
  -3  -2   1  231.41   10.64 
  -3  -2   1  245.35    8.87 
   3  -2  -1  228.12    8.01 
  -3  -2   1  223.75    8.09 
  -3  -2   1  230.69    8.24 
  -3  -2   1  220.11    9.96 
  -3  -2   1  233.29    9.00 
   3  -2  -1  227.22    8.20 
   3  -2  -1  228.31    8.95 
   3   2  -1  229.61   10.33 
   3   2  -1  215.39    9.24 
  -3   2   1  222.08   11.07 
  -3   2   1  223.24    8.76 
   3   2  -1  220.81   11.12 
  -3   2   1  227.54    8.60 
  -2  -2   1   41.00    1.71 
   2  -2  -1   36.49    1.36 
  -2  -2   1   39.02    1.52 
   2  -2  -1   37.70    1.38 
  -2  -2   1   38.59    1.54 
   2  -2  -1   36.56    1.51 
   2  -2  -1   37.95    1.49 
  -2  -2   1   37.39    1.41 
  -2  -2   1   37.19    1.40 
   2   2  -1   38.52    1.45 
  -2   2   1   36.28    1.41 
   2   2  -1   37.47    1.73 
  -2   2   1   36.48    1.41 
  -2   2   1   33.53    1.69 
  -2   2   1   34.06    1.44 
  -1  -2   1   25.20    1.02 
   1  -2  -1   26.07    0.93 
   1  -2  -1   26.07    1.01 
  -1  -2   1   24.99    1.04 
  -1  -2   1   25.70    0.94 
  -1   2   1   23.91    0.95 
  -1   2   1   24.86    0.95 
   1   2  -1   23.52    1.15 
   1   2  -1   24.06    0.97 
   0  -2   1   57.58    1.94 
   0  -2  -1   54.26    2.15 
   0  -2  -1   55.23    1.97 
   0  -2  -1   53.57    2.18 
   0  -2   1   55.85    2.13 
   0   2   1   51.29    2.45 
   0   2  -1   51.39    2.03 
   0   2  -1   52.90    2.03 
   0   2   1   54.81    2.06 
  -1  -2  -1   41.64    1.60 
  -1  -2  -1   43.49    1.77 
   1  -2   1   45.30    1.54 
  -1  -2  -1   45.16    1.74 
   1  -2   1   45.17    1.54 
   1   2   1   40.65    1.94 
   1   2   1   41.42    1.63 
  -2  -2  -1    6.17    0.29 
  -2  -2  -1    6.16    0.33 
  -2  -2  -1    6.07    0.32 
  -2  -2  -1    6.16    0.34 
  -2  -2  -1    6.29    0.38 
  -2  -2  -1    5.66    0.32 
   2  -2   1    6.21    0.24 
   2   2   1    5.74    0.30 
   2   2   1    6.22    0.37 
   2   2   1    6.08    0.30 
  -3  -2  -1    5.47    0.32 
  -3  -2  -1    5.55    0.33 
  -3  -2  -1    5.39    0.27 
  -3  -2  -1    5.96    0.38 
  -3  -2  -1    5.41    0.27 
   3  -2   1    5.53    0.24 
   3  -2   1    4.93    0.24 
  -3  -2  -1    5.47    0.33 
   3   2   1    5.46    0.27 
  -3   2  -1    5.47    0.24 
   3   2   1    5.37    0.37 
   3   2   1    5.75    0.31 
   3   2   1    5.58    0.31 
   3   2   1    5.16    0.27 
   3   2   1    5.48    0.32 
  -4  -2  -1    2.92    0.21 
   4  -2   1    3.23    0.18 
  -4  -2  -1    3.04    0.31 
  -4  -2  -1    3.54    0.21 
  -4  -2  -1    3.25    0.21 
  -4  -2  -1    3.39    0.20 
   4   2   1    3.04    0.24 
   4   2   1    2.98    0.21 
   4   2   1    2.95    0.21 
   4   2   1    3.07    0.21 
   4   2   1    3.37    0.31 
   4   2   1    2.96    0.22 
   4   2   1    3.72    0.26 
   4   2   1    3.68    0.27 
   4   2   1    3.23    0.22 
  -4   2  -1    3.17    0.18 
   4   2   1    2.89    0.19 
   5  -2   1    0.12    0.10 
  -5  -2  -1    0.27    0.15 
  -5  -2  -1    0.11    0.08 
  -5  -2  -1    0.33    0.14 
  -5  -2  -1    0.23    0.18 
  -5  -2  -1    0.11    0.12 
  -5  -2  -1    0.25    0.25 
  -5  -2  -1    0.10    0.17 
  -5  -2  -1    0.15    0.11 
   5  -2   1    0.22    0.07 
  -5  -2  -1    0.23    0.11 
  -5  -2  -1    0.17    0.12 
  -5  -2  -1    0.12    0.07 
   5   2   1    0.23    0.12 
  -5   2  -1    0.30    0.08 
   5   2   1    0.14    0.10 
   5   2   1    0.07    0.10 
  -5   2  -1    0.25    0.09 
   5   2   1    0.17    0.17 
   5   2   1    0.26    0.13 
   5   2   1    0.04    0.14 
   5   2   1    0.00    0.16 
   5   2   1    0.09    0.12 
   5   2   1    0.16    0.11 
  -6  -2  -1   47.51    1.47 
  -6  -2  -1   47.57    2.03 
  -6  -2  -1   47.60    1.81 
  -6  -2  -1   45.80    1.68 
  -6  -2  -1   47.48    1.69 
  -6  -2  -1   47.51    2.46 
  -6  -2  -1   46.83    1.71 
  -6  -2  -1   46.88    1.58 
   6  -2   1   46.66    1.66 
  -6  -2  -1   48.13    1.61 
  -6  -2  -1   46.99    1.28 
  -6  -2  -1   42.69    1.56 
  -6  -2  -1   45.66    1.13 
   6   2   1   43.40    1.67 
   6   2   1   42.36    2.06 
  -6   2  -1   43.83    1.28 
   6   2   1   39.34    1.25 
   6   2   1   46.73    2.21 
   6   2   1   46.66    1.72 
   6   2   1   46.01    1.66 
   6   2   1   46.39    1.56 
   6   2   1   46.58    1.65 
   6   2   1   45.90    1.65 
  -7  -2  -1   25.04    0.86 
  -7  -2  -1   22.44    0.93 
  -7  -2  -1   24.44    0.71 
  -7  -2  -1   22.80    0.78 
  -7  -2  -1   25.70    0.92 
  -7  -2  -1   25.35    0.89 
  -7  -2  -1   25.53    0.80 
  -7  -2  -1   25.37    0.68 
  -7  -2  -1   24.45    0.82 
  -7  -2  -1   24.66    0.89 
  -7   2  -1   24.66    0.72 
   7   2   1   24.82    0.82 
   7   2   1   24.37    0.93 
  -7   2  -1   24.08    0.79 
   7   2   1   24.17    0.68 
  -7   2  -1   24.21    0.70 
   7   2   1   24.68    0.81 
   7   2   1   21.13    0.87 
  -7   2  -1   23.35    0.78 
  -8  -2  -1   12.55    0.36 
  -8  -2  -1   12.18    0.41 
  -8  -2  -1   12.39    0.34 
  -8  -2  -1   12.35    0.45 
  -8  -2  -1   12.63    0.38 
   8  -2   1   12.51    0.42 
   8   2   1   12.59    0.44 
   8   2   1   12.53    0.42 
  -8   2  -1   11.82    0.42 
  -8   2  -1   12.54    0.36 
  -8   2  -1   11.69    0.43 
   8   2   1   12.40    0.40 
  -8   2  -1   12.23    0.41 
  -8  -3   1    2.08    0.15 
   8  -3  -1    2.31    0.13 
  -8  -3   1    2.17    0.17 
  -8  -3   1    2.19    0.18 
  -8  -3   1    2.21    0.13 
   8   3  -1    2.38    0.14 
   8   3  -1    2.42    0.15 
   8   3  -1    2.32    0.13 
   8   3  -1    2.31    0.09 
  -8   3   1    2.26    0.13 
  -8   3   1    2.23    0.14 
  -8   3   1    2.21    0.10 
   8   3  -1    2.16    0.15 
  -8   3   1    1.99    0.13 
  -7  -3   1   15.54    0.50 
  -7  -3   1   14.74    0.53 
  -7  -3   1   15.69    0.61 
  -7  -3   1   15.53    0.53 
  -7  -3   1   15.72    0.58 
  -7  -3   1   14.96    0.55 
  -7  -3   1   15.84    0.40 
  -7  -3   1   16.22    0.54 
   7   3  -1   14.96    0.55 
   7   3  -1   15.73    0.41 
   7   3  -1   14.37    0.45 
  -7   3   1   16.15    0.53 
   7   3  -1   15.79    0.54 
   7   3  -1   14.90    0.54 
   7   3  -1   16.07    0.51 
   7   3  -1   15.51    0.53 
  -7   3   1   15.89    0.53 
   7   3  -1   15.77    0.61 
  -7   3   1   15.72    0.47 
   6  -3  -1    3.19    0.20 
  -6  -3   1    3.03    0.26 
  -6  -3   1    2.50    0.22 
  -6  -3   1    3.07    0.21 
  -6  -3   1    2.72    0.23 
  -6  -3   1    2.60    0.27 
  -6  -3   1    2.94    0.17 
  -6  -3   1    3.04    0.25 
  -6  -3   1    2.94    0.21 
  -6  -3   1    2.72    0.24 
  -6  -3   1    3.09    0.28 
  -6   3   1    3.38    0.20 
   6   3  -1    3.12    0.21 
   6   3  -1    3.14    0.17 
   6   3  -1    2.99    0.25 
   6   3  -1    2.74    0.22 
   6   3  -1    3.00    0.23 
  -6   3   1    2.91    0.20 
   6   3  -1    2.77    0.25 
   6   3  -1    3.03    0.22 
  -6   3   1    3.07    0.17 
  -6   3   1    2.70    0.17 
   6   3  -1    3.03    0.21 
   6   3  -1    2.66    0.22 
   6   3  -1    2.86    0.16 
   6   3  -1    2.53    0.22 
  -5  -3   1    4.23    0.25 
  -5  -3   1    4.16    0.35 
  -5  -3   1    4.15    0.29 
  -5  -3   1    4.08    0.30 
  -5  -3   1    3.77    0.27 
  -5  -3   1    3.71    0.34 
  -5  -3   1    3.87    0.28 
  -5  -3   1    4.55    0.38 
  -5  -3   1    4.38    0.28 
  -5  -3   1    4.00    0.23 
  -5  -3   1    4.21    0.27 
  -5  -3   1    3.77    0.27 
   5  -3  -1    3.65    0.24 
   5  -3  -1    4.17    0.22 
   5   3  -1    4.08    0.25 
   5   3  -1    4.65    0.33 
   5   3  -1    3.22    0.38 
  -5   3   1    3.82    0.16 
   5   3  -1    4.58    0.40 
   5   3  -1    4.19    0.25 
   5   3  -1    4.63    0.29 
   5   3  -1    4.22    0.18 
   5   3  -1    3.93    0.27 
   5   3  -1    4.15    0.23 
   4  -3  -1    5.28    0.24 
  -4  -3   1    5.39    0.30 
  -4  -3   1    5.17    0.30 
  -4  -3   1    5.30    0.30 
  -4  -3   1    5.56    0.38 
  -4  -3   1    5.69    0.31 
  -4  -3   1    4.97    0.36 
  -4  -3   1    5.11    0.27 
   4  -3  -1    5.39    0.27 
  -4  -3   1    5.55    0.38 
  -4  -3   1    5.57    0.28 
  -4  -3   1    4.92    0.27 
  -4  -3   1    5.42    0.28 
   4   3  -1    5.18    0.41 
  -4   3   1    5.15    0.21 
   4   3  -1    5.08    0.19 
   4   3  -1    5.29    0.28 
   4   3  -1    4.91    0.26 
   4   3  -1    5.38    0.29 
  -4   3   1    5.29    0.25 
   4   3  -1    5.08    0.40 
   4   3  -1    5.09    0.26 
   4   3  -1    5.18    0.30 
   4   3  -1    5.64    0.33 
  -3  -3   1   88.06    3.10 
   3  -3  -1   88.05    3.12 
  -3  -3   1   88.14    3.19 
  -3  -3   1   87.89    3.82 
  -3  -3   1   84.10    3.42 
  -3  -3   1   89.32    3.47 
  -3  -3   1   89.43    3.06 
  -3  -3   1   84.10    2.88 
  -3  -3   1   78.90    2.99 
  -3  -3   1   86.93    3.17 
   3   3  -1   80.88    2.97 
   3   3  -1   84.42    4.26 
   3   3  -1   78.70    3.97 
   3   3  -1   85.65    3.37 
   3   3  -1   80.81    3.10 
   3   3  -1   91.99    3.54 
  -3   3   1   87.07    3.33 
   2  -3  -1   70.41    2.56 
  -2  -3   1   74.49    2.88 
   2  -3  -1   73.51    2.60 
  -2  -3   1   69.39    2.64 
  -2  -3   1   69.06    2.48 
  -2  -3   1   77.90    2.84 
  -2  -3   1   68.95    2.57 
  -2  -3   1   72.65    2.54 
  -2  -3   1   73.69    2.63 
  -2  -3   1   73.40    3.17 
  -2  -3   1   68.13    2.59 
   2   3  -1   67.97    2.61 
   2   3  -1   68.07    3.30 
   2   3  -1   65.50    2.73 
  -2   3   1   67.40    2.58 
   2   3  -1   57.59    2.58 
   2   3  -1   64.60    3.07 
  -1  -3   1   68.47    3.07 
   1  -3  -1   69.44    2.53 
  -1  -3   1   66.76    2.54 
  -1  -3   1   69.05    2.78 
   1  -3  -1   70.63    3.06 
   1  -3  -1   72.75    2.72 
  -1  -3   1   71.54    2.74 
   1  -3  -1   69.75    2.76 
  -1  -3   1   72.24    2.50 
   1  -3  -1   69.82    2.49 
  -1   3   1   69.02    2.59 
   1   3  -1   66.81    3.34 
   1   3  -1   67.68    2.61 
   1   3  -1   64.93    2.65 
  -1   3   1   67.15    2.59 
   1   3  -1   68.36    3.12 
  -1   3   1   63.21    2.64 
   0  -3  -1  253.24    9.76 
   0  -3  -1  252.63    9.08 
   0  -3   1  259.54    9.74 
   0  -3   1  256.61    8.84 
   0  -3  -1  249.51    8.86 
   0  -3  -1  255.30   10.99 
   0  -3   1  255.74    9.06 
   0  -3  -1  252.43    9.91 
   0   3   1  230.55   11.88 
   0   3   1  238.56    9.39 
   0   3   1  240.68    9.86 
   0   3   1  249.37    9.24 
   0   3   1  240.32   11.02 
   0   3  -1  235.49    9.38 
  -1  -3  -1   40.58    1.61 
  -1  -3  -1   39.94    1.45 
  -1  -3  -1   39.78    1.63 
  -1  -3  -1   39.85    1.50 
   1  -3   1   41.55    1.41 
  -1  -3  -1   38.72    1.49 
  -1  -3  -1   40.32    1.79 
   1   3   1   38.95    1.52 
   1   3   1   36.71    1.52 
   1   3   1   38.01    1.81 
   1   3   1   37.03    1.92 
   1   3   1   37.45    1.59 
  -2  -3  -1   35.92    1.57 
  -2  -3  -1   44.00    1.58 
  -2  -3  -1   42.20    1.53 
  -2  -3  -1   42.04    1.72 
  -2  -3  -1   41.12    1.57 
  -2  -3  -1   43.50    1.89 
  -2  -3  -1   42.47    1.51 
  -2  -3  -1   42.29    1.47 
  -2  -3  -1   42.66    1.70 
   2   3   1   42.54    1.97 
   2   3   1   38.99    1.66 
   2   3   1   39.41    1.46 
   2   3   1   41.24    2.10 
   2   3   1   41.24    1.74 
  -3  -3  -1   27.66    1.06 
  -3  -3  -1   28.67    1.07 
  -3  -3  -1   27.13    0.96 
  -3  -3  -1   28.82    1.06 
  -3  -3  -1   29.90    1.10 
  -3  -3  -1   28.38    1.21 
  -3  -3  -1   28.15    0.99 
  -3  -3  -1   28.47    1.32 
  -3  -3  -1   28.63    1.00 
  -3  -3  -1   27.04    1.21 
  -3  -3  -1   27.04    1.04 
   3   3   1   26.95    0.99 
   3   3   1   26.36    0.76 
   3   3   1   28.63    1.36 
   3   3   1   24.83    1.17 
   3   3   1   26.82    1.42 
   3   3   1   26.20    1.04 
   3   3   1   26.14    0.98 
  -4  -3  -1    8.21    0.51 
  -4  -3  -1    8.26    0.53 
  -4  -3  -1    9.05    0.43 
  -4  -3  -1    9.72    0.52 
  -4  -3  -1    8.70    0.52 
  -4  -3  -1    9.18    0.40 
  -4  -3  -1    8.79    0.42 
  -4  -3  -1    9.28    0.42 
  -4  -3  -1    9.24    0.40 
  -4  -3  -1    9.18    0.43 
  -4  -3  -1    9.17    0.39 
  -4  -3  -1    8.68    0.39 
   4   3   1    7.11    0.54 
   4   3   1    8.89    0.29 
   4   3   1    9.26    0.58 
   4   3   1    8.11    0.33 
   4   3   1    7.99    0.38 
   4   3   1    7.53    0.46 
   4   3   1    8.14    0.36 
   4   3   1    8.30    0.37 
   4   3   1    8.72    0.39 
  -5  -3  -1    3.00    0.24 
  -5  -3  -1    2.74    0.17 
  -5  -3  -1    2.82    0.20 
  -5  -3  -1    2.57    0.26 
  -5  -3  -1    2.84    0.23 
  -5  -3  -1    3.05    0.26 
  -5  -3  -1    2.78    0.25 
   5   3   1    3.16    0.17 
   5   3   1    2.87    0.23 
   5   3   1    2.66    0.22 
   5   3   1    2.69    0.24 
   5   3   1    2.90    0.20 
  -6  -3  -1    8.02    0.33 
  -6  -3  -1    7.45    0.37 
  -6  -3  -1    7.65    0.40 
  -6  -3  -1    7.70    0.39 
  -6  -3  -1    7.15    0.35 
  -6  -3  -1    7.57    0.30 
  -6  -3  -1    7.75    0.37 
  -6  -3  -1    7.84    0.25 
  -6  -3  -1    7.96    0.32 
  -6  -3  -1    7.64    0.34 
   6  -3   1    7.87    0.34 
   6   3   1    7.70    0.33 
  -6   3  -1    7.65    0.31 
  -6   3  -1    7.17    0.31 
   6   3   1    7.44    0.33 
  -6   3  -1    8.07    0.31 
  -6   3  -1    7.74    0.26 
   6   3   1    8.09    0.34 
   6   3   1    7.49    0.37 
   6   3   1    7.65    0.40 
   6   3   1    7.85    0.39 
   6   3   1    8.02    0.28 
  -7  -3  -1    0.85    0.12 
  -7  -3  -1    0.93    0.06 
  -7  -3  -1    0.56    0.12 
  -7  -3  -1    0.89    0.17 
  -7  -3  -1    0.73    0.17 
  -7  -3  -1    0.92    0.15 
  -7   3  -1    0.83    0.13 
  -7   3  -1    1.01    0.09 
  -7   3  -1    0.98    0.14 
   7   3   1    0.97    0.15 
   7   3   1    0.58    0.14 
   7   3   1    0.60    0.14 
   7   3   1    0.86    0.16 
  -8  -3  -1    0.25    0.07 
  -8  -3  -1    0.56    0.12 
  -8   3  -1    0.57    0.06 
   8   3   1    0.38    0.09 
   8   3   1    0.41    0.06 
   8   3   1    0.28    0.05 
  -7  -4   1    7.29    0.29 
  -7  -4   1    7.27    0.29 
  -7  -4   1    7.00    0.21 
  -7  -4   1    7.04    0.30 
  -7  -4   1    7.18    0.26 
   7   4  -1    7.41    0.29 
   7   4  -1    6.98    0.27 
   7   4  -1    7.20    0.29 
   7   4  -1    6.94    0.30 
  -7   4   1    7.11    0.26 
  -7   4   1    7.50    0.26 
  -6  -4   1   18.48    0.72 
  -6  -4   1   18.67    0.61 
  -6  -4   1   19.84    0.66 
  -6  -4   1   19.33    0.55 
  -6  -4   1   19.50    0.65 
  -6  -4   1   18.90    0.75 
  -6  -4   1   19.71    0.68 
   6   4  -1   19.61    0.68 
   6   4  -1   19.10    0.47 
   6   4  -1   19.00    0.59 
   6   4  -1   19.33    0.64 
   6   4  -1   19.35    0.64 
   6   4  -1   19.01    0.56 
   6   4  -1   19.18    0.65 
  -6   4   1   19.46    0.64 
   6   4  -1   18.07    0.75 
   6   4  -1   17.76    0.77 
   6   4  -1   18.84    0.63 
  -6   4   1   19.60    0.55 
   6   4  -1   19.70    0.72 
  -6   4   1   19.40    0.63 
  -5  -4   1   34.40    1.17 
  -5  -4   1   37.81    1.41 
  -5  -4   1   36.42    1.33 
  -5  -4   1   36.29    1.28 
  -5  -4   1   35.49    1.43 
  -5  -4   1   37.52    1.23 
  -5  -4   1   37.86    1.38 
  -5  -4   1   38.16    1.32 
  -5  -4   1   37.16    1.45 
   5  -4  -1   38.86    1.33 
  -5  -4   1   37.08    1.41 
  -5  -4   1   39.20    1.86 
   5   4  -1   35.11    1.13 
   5   4  -1   35.89    1.00 
   5   4  -1   35.56    0.97 
  -5   4   1   35.24    1.00 
   5   4  -1   36.40    1.30 
   5   4  -1   35.87    1.19 
   5   4  -1   34.94    1.05 
   5   4  -1   33.67    1.38 
   5   4  -1   36.37    1.36 
  -5   4   1   34.77    1.14 
   5   4  -1   34.77    1.11 
   5   4  -1   35.64    1.28 
   5   4  -1   34.31    1.12 
   5   4  -1   38.36    1.25 
   5   4  -1   35.00    1.14 
   5   4  -1   35.44    0.86 
  -4  -4   1    3.69    0.27 
  -4  -4   1    3.98    0.35 
  -4  -4   1    3.79    0.26 
  -4  -4   1    3.68    0.26 
  -4  -4   1    3.63    0.33 
  -4  -4   1    3.66    0.27 
  -4  -4   1    3.50    0.33 
  -4  -4   1    4.17    0.26 
  -4  -4   1    3.58    0.29 
   4   4  -1    3.58    0.26 
   4   4  -1    3.66    0.37 
   4   4  -1    3.27    0.23 
   4   4  -1    3.32    0.21 
   4   4  -1    3.54    0.27 
   4   4  -1    3.70    0.34 
   4   4  -1    3.39    0.25 
   4   4  -1    3.29    0.23 
   4   4  -1    3.31    0.24 
  -3  -4   1   37.42    1.39 
  -3  -4   1   38.42    1.69 
  -3  -4   1   35.37    1.27 
  -3  -4   1   37.99    1.35 
  -3  -4   1   33.00    1.54 
  -3  -4   1   36.63    1.26 
   3  -4  -1   34.43    1.34 
  -3  -4   1   37.88    1.37 
  -3  -4   1   37.35    1.30 
  -3  -4   1   34.92    1.41 
  -3  -4   1   34.61    1.79 
   3   4  -1   33.37    1.74 
   3   4  -1   34.09    1.14 
   3   4  -1   35.00    1.39 
   3   4  -1   33.71    1.28 
   3   4  -1   33.81    1.20 
   3   4  -1   30.69    1.42 
   3   4  -1   32.28    1.18 
   3   4  -1   32.91    0.92 
   3   4  -1   33.24    1.25 
  -2  -4   1   13.37    0.64 
  -2  -4   1   14.59    0.60 
  -2  -4   1   13.78    0.69 
  -2  -4   1   13.80    0.55 
  -2  -4   1   13.27    0.57 
  -2  -4   1   13.58    0.56 
  -2  -4   1   13.81    0.52 
  -2  -4   1   13.42    0.65 
  -2  -4   1   13.03    0.52 
  -2  -4   1   13.61    0.52 
   2  -4  -1   13.77    0.55 
   2   4  -1   12.99    0.57 
   2   4  -1   13.16    0.50 
   2   4  -1   12.45    0.52 
   2   4  -1   12.73    0.37 
  -2   4   1   11.82    0.43 
   2   4  -1   12.70    0.70 
  -1  -4   1   22.88    0.98 
  -1  -4   1   21.79    1.04 
   1  -4  -1   22.09    0.80 
  -1  -4   1   21.58    0.86 
  -1  -4   1   22.20    0.80 
  -1  -4   1   22.22    0.88 
   1  -4  -1   23.36    0.86 
  -1  -4   1   22.46    0.94 
  -1   4   1   21.44    0.86 
   1   4  -1   20.48    0.87 
   1   4  -1   20.74    0.80 
   0  -4  -1   44.82    1.83 
   0  -4   1   45.90    1.65 
   0  -4  -1   43.41    1.67 
   0  -4  -1   44.34    1.60 
   0  -4  -1   46.19    1.67 
   0  -4  -1   43.26    1.57 
   0  -4  -1   46.50    1.80 
   0  -4  -1   45.10    1.63 
   0  -4  -1   44.44    2.00 
   0   4   1   41.37    1.64 
   0   4  -1   40.48    1.61 
   0   4   1   41.20    1.51 
   0   4   1   38.75    1.60 
  -1  -4  -1   49.32    1.76 
  -1  -4  -1   49.91    1.98 
  -1  -4  -1   46.55    1.62 
  -1  -4  -1   50.99    2.01 
  -1  -4  -1   50.32    1.72 
  -1  -4  -1   50.87    2.20 
  -1  -4  -1   48.71    1.84 
  -1  -4  -1   46.85    1.67 
  -1  -4  -1   49.42    1.84 
  -1  -4  -1   48.50    1.79 
   1   4   1   42.98    2.14 
   1   4   1   44.58    1.68 
   1   4   1   45.74    1.82 
   1   4   1   44.78    1.87 
   1   4   1   45.81    2.28 
  -2  -4  -1    8.62    0.48 
  -2  -4  -1    9.70    0.43 
  -2  -4  -1    9.19    0.39 
  -2  -4  -1    9.56    0.40 
  -2  -4  -1    9.59    0.52 
  -2  -4  -1    9.70    0.44 
  -2  -4  -1   10.18    0.52 
  -2  -4  -1    9.43    0.46 
  -2  -4  -1    9.11    0.39 
  -2  -4  -1    9.57    0.42 
   2   4   1    9.84    0.56 
   2   4   1    9.69    0.56 
   2   4   1    8.83    0.30 
   2   4   1    8.40    0.44 
   2   4   1    8.74    0.41 
   2   4   1    8.83    0.39 
   2   4   1    8.97    0.37 
   2   4   1    9.92    0.46 
  -3  -4  -1   10.37    0.59 
  -3  -4  -1    9.03    0.55 
  -3  -4  -1   10.21    0.44 
  -3  -4  -1    9.85    0.46 
  -3  -4  -1   10.00    0.47 
  -3  -4  -1    9.77    0.57 
  -3  -4  -1   10.30    0.41 
  -3  -4  -1   10.73    0.46 
  -3  -4  -1   10.55    0.43 
  -3  -4  -1    9.57    0.50 
   3   4   1    9.52    0.36 
   3   4   1    9.60    0.44 
   3   4   1   10.13    0.63 
   3   4   1   10.12    0.51 
   3   4   1   10.72    0.51 
   3   4   1    9.95    0.42 
   3   4   1    9.56    0.44 
   3   4   1    9.50    0.62 
   3   4   1   10.52    0.47 
   3   4   1    9.64    0.40 
  -4  -4  -1   -0.02    0.16 
  -4  -4  -1    0.18    0.16 
  -4  -4  -1   -0.09    0.13 
  -4  -4  -1    0.08    0.15 
  -4  -4  -1    0.22    0.16 
  -4  -4  -1    0.22    0.12 
  -4  -4  -1    0.07    0.18 
  -4  -4  -1   -0.06    0.17 
  -4  -4  -1   -0.01    0.11 
  -4  -4  -1    0.09    0.12 
   4   4   1    0.01    0.09 
   4   4   1    0.10    0.12 
   4   4   1   -0.06    0.11 
   4   4   1    0.02    0.11 
   4   4   1   -0.05    0.10 
   4   4   1    0.05    0.12 
   4   4   1    0.08    0.13 
   4   4   1    0.04    0.15 
   4   4   1   -0.09    0.13 
  -5  -4  -1    4.10    0.27 
  -5  -4  -1    4.09    0.25 
  -5  -4  -1    4.06    0.27 
  -5  -4  -1    4.13    0.29 
  -5  -4  -1    4.31    0.17 
  -5  -4  -1    4.56    0.23 
  -5  -4  -1    4.18    0.28 
  -5  -4  -1    4.22    0.31 
   5   4   1    3.95    0.23 
   5   4   1    3.91    0.27 
   5   4   1    4.51    0.26 
   5   4   1    4.60    0.28 
   5   4   1    4.19    0.20 
   5   4   1    4.53    0.17 
   5   4   1    4.26    0.24 
   5   4   1    4.20    0.28 
   5   4   1    4.49    0.16 
   5   4   1    4.99    0.27 
  -5   4  -1    4.08    0.19 
   5   4   1    4.63    0.31 
   5   4   1    4.07    0.28 
   5   4   1    4.37    0.22 
  -6  -4  -1   12.49    0.44 
  -6  -4  -1   12.69    0.42 
  -6  -4  -1   12.11    0.46 
  -6  -4  -1   11.94    0.37 
  -6  -4  -1   12.79    0.44 
  -6  -4  -1   10.68    0.51 
  -6  -4  -1   12.66    0.47 
   6   4   1   11.97    0.43 
   6   4   1   11.64    0.43 
   6   4   1   11.85    0.32 
   6   4   1   11.96    0.44 
   6   4   1   12.20    0.42 
   6   4   1   12.07    0.40 
   6   4   1   11.99    0.46 
   6   4   1   11.22    0.49 
  -6   4  -1   12.15    0.40 
  -7  -4  -1    0.75    0.06 
  -7  -4  -1    0.54    0.14 
  -7  -4  -1    0.99    0.12 
  -7  -4  -1    0.75    0.10 
   7   4   1    0.61    0.11 
   7   4   1    0.63    0.12 
   7   4   1    0.71    0.13 
   7   4   1    0.62    0.09 
  -6  -5   1    0.86    0.16 
  -6  -5   1    0.76    0.15 
  -6  -5   1    0.88    0.16 
   6   5  -1    0.68    0.10 
   6   5  -1    0.58    0.13 
   6   5  -1    0.57    0.13 
   6   5  -1    0.66    0.12 
  -5  -5   1    0.28    0.13 
  -5  -5   1    0.01    0.12 
  -5  -5   1    0.07    0.08 
  -5  -5   1    0.22    0.15 
  -5  -5   1    0.11    0.10 
  -5  -5   1    0.04    0.06 
   5   5  -1    0.15    0.08 
   5   5  -1    0.26    0.06 
   5   5  -1    0.25    0.11 
   5   5  -1    0.39    0.12 
   5   5  -1    0.09    0.10 
   5   5  -1    0.12    0.11 
   5   5  -1    0.25    0.10 
   5   5  -1    0.24    0.09 
   5   5  -1    0.02    0.08 
  -5   5   1    0.17    0.06 
   5   5  -1    0.19    0.08 
   5   5  -1    0.24    0.10 
   5   5  -1    0.09    0.09 
   5   5  -1    0.17    0.09 
  -4  -5   1    4.98    0.40 
  -4  -5   1    5.48    0.31 
  -4  -5   1    4.67    0.30 
  -4  -5   1    4.77    0.31 
  -4  -5   1    4.30    0.24 
  -4  -5   1    4.45    0.30 
  -4  -5   1    4.72    0.33 
  -4   5   1    4.61    0.16 
   4   5  -1    4.50    0.25 
   4   5  -1    4.16    0.21 
   4   5  -1    4.47    0.24 
   4   5  -1    4.48    0.26 
   4   5  -1    4.32    0.24 
   4   5  -1    4.85    0.20 
   4   5  -1    4.63    0.23 
   4   5  -1    4.69    0.24 
  -4   5   1    4.60    0.20 
   4   5  -1    4.81    0.29 
   4   5  -1    4.81    0.22 
   4   5  -1    4.74    0.24 
   4   5  -1    4.70    0.29 
   4   5  -1    4.57    0.26 
   4   5  -1    4.51    0.24 
   4   5  -1    4.81    0.19 
  -3  -5   1   25.65    0.93 
  -3  -5   1   25.24    1.22 
  -3  -5   1   25.17    0.92 
  -3  -5   1   22.54    1.00 
  -3  -5   1   25.57    1.28 
  -3  -5   1   26.83    0.98 
  -3  -5   1   23.27    0.98 
  -3  -5   1   25.99    0.93 
   3   5  -1   23.95    0.86 
   3   5  -1   23.99    0.94 
   3   5  -1   23.99    0.88 
   3   5  -1   23.32    0.90 
   3   5  -1   24.28    0.65 
   3   5  -1   23.59    0.87 
   3   5  -1   21.20    1.01 
  -2  -5   1    4.10    0.24 
  -2  -5   1    4.52    0.33 
  -2  -5   1    4.39    0.27 
  -2  -5   1    4.41    0.27 
  -2  -5   1    4.51    0.27 
  -2  -5   1    3.99    0.29 
  -2  -5   1    4.40    0.28 
   2  -5  -1    4.37    0.24 
  -2  -5   1    4.05    0.34 
  -2  -5   1    4.34    0.26 
   2   5  -1    3.72    0.21 
   2   5  -1    3.73    0.22 
   2   5  -1    3.79    0.23 
   2   5  -1    3.36    0.23 
   2   5  -1    3.56    0.22 
  -1  -5   1    2.12    0.16 
  -1  -5   1    2.14    0.21 
   1  -5  -1    2.25    0.15 
   1  -5  -1    2.51    0.20 
   1   5  -1    2.19    0.14 
   1   5  -1    2.25    0.16 
   0  -5  -1    6.15    0.28 
   0  -5  -1    5.81    0.33 
   0  -5  -1    5.94    0.31 
   0  -5   1    6.13    0.31 
   0   5   1    5.45    0.25 
   0   5   1    5.76    0.25 
   0   5   1    5.56    0.29 
  -1  -5  -1    3.18    0.25 
  -1  -5  -1    3.17    0.19 
  -1  -5  -1    2.80    0.21 
  -1  -5  -1    2.87    0.26 
  -1  -5  -1    2.65    0.21 
  -1  -5  -1    2.98    0.21 
  -1  -5  -1    2.60    0.24 
  -1  -5  -1    2.45    0.21 
  -1  -5  -1    2.82    0.27 
   1   5   1    2.84    0.18 
   1   5   1    2.35    0.20 
   1   5   1    2.75    0.18 
   1   5   1    2.46    0.20 
   1   5   1    2.61    0.09 
   1   5   1    2.49    0.21 
   1   5   1    2.59    0.16 
  -2  -5  -1    8.26    0.42 
  -2  -5  -1    8.48    0.37 
  -2  -5  -1    8.23    0.38 
  -2  -5  -1    8.67    0.40 
  -2  -5  -1    8.29    0.38 
  -2  -5  -1    8.23    0.52 
  -2  -5  -1    7.27    0.43 
  -2  -5  -1    8.45    0.51 
  -2  -5  -1    8.66    0.41 
   2   5   1    7.98    0.36 
   2   5   1    7.84    0.36 
   2   5   1    7.90    0.42 
   2   5   1    7.83    0.48 
   2   5   1    7.93    0.36 
   2   5   1    8.04    0.26 
   2   5   1    8.14    0.37 
   2   5   1    8.22    0.40 
  -3  -5  -1    1.15    0.20 
  -3  -5  -1    1.11    0.20 
  -3  -5  -1    1.10    0.21 
  -3  -5  -1    1.05    0.20 
  -3  -5  -1    0.98    0.21 
  -3  -5  -1    1.18    0.24 
  -3  -5  -1    1.52    0.21 
  -3  -5  -1    1.48    0.29 
   3   5   1    1.20    0.13 
   3   5   1    1.20    0.20 
   3   5   1    0.94    0.17 
   3   5   1    1.43    0.19 
   3   5   1    1.39    0.20 
   3   5   1    0.76    0.18 
   3   5   1    0.72    0.19 
   3   5   1    1.33    0.18 
   3   5   1    1.29    0.23 
  -4  -5  -1   23.58    0.81 
  -4  -5  -1   21.37    0.92 
  -4  -5  -1   23.92    0.88 
  -4  -5  -1   22.95    0.76 
  -4  -5  -1   23.60    0.68 
  -4  -5  -1   24.55    0.85 
  -4  -5  -1   25.40    0.97 
  -4  -5  -1   22.67    0.87 
  -4  -5  -1   24.65    1.22 
  -4  -5  -1   21.97    0.91 
   4   5   1   22.44    0.89 
   4   5   1   22.76    0.75 
   4   5   1   22.26    0.64 
   4   5   1   23.12    0.79 
   4   5   1   22.22    0.92 
   4   5   1   22.47    0.74 
   4   5   1   23.17    0.82 
   4   5   1   22.65    0.66 
   4   5   1   23.18    0.67 
   4   5   1   21.72    0.86 
   4   5   1   22.06    0.74 
   4   5   1   23.93    0.85 
  -5  -5  -1    3.10    0.14 
  -5  -5  -1    2.78    0.22 
   5   5   1    2.88    0.17 
   5   5   1    2.79    0.20 
   5   5   1    2.61    0.23 
   5   5   1    2.90    0.21 
   5   5   1    2.85    0.21 
   5   5   1    3.08    0.19 
   5   5   1    3.25    0.17 
   5   5   1    2.99    0.21 
   5   5   1    3.02    0.12 
   5   5   1    3.16    0.22 
  -6  -5  -1    0.17    0.07 
  -6  -5  -1    0.07    0.10 
  -6  -5  -1    0.04    0.08 
   6   5   1    0.09    0.08 
   6   5   1    0.02    0.07 
   6   5   1    0.14    0.06 
  -5  -6   1    1.55    0.10 
  -5  -6   1    1.63    0.12 
  -5  -6   1    1.71    0.15 
   5   6  -1    1.54    0.09 
   5   6  -1    1.44    0.08 
   5   6  -1    1.54    0.14 
   5   6  -1    1.35    0.13 
   5   6  -1    1.69    0.14 
   5   6  -1    1.20    0.12 
   5   6  -1    1.51    0.12 
   5   6  -1    1.35    0.11 
  -4  -6   1    6.66    0.43 
  -4  -6   1    7.01    0.27 
   4   6  -1    6.24    0.26 
   4   6  -1    6.19    0.25 
   4   6  -1    6.44    0.29 
   4   6  -1    6.01    0.25 
   4   6  -1    6.03    0.28 
   4   6  -1    6.34    0.20 
   4   6  -1    6.19    0.23 
   4   6  -1    6.46    0.26 
   4   6  -1    6.28    0.26 
  -3  -6   1    8.82    0.39 
  -3  -6   1    6.85    0.50 
  -3  -6   1    9.64    0.33 
   3   6  -1    9.04    0.34 
   3   6  -1    9.33    0.33 
  -3   6   1    9.25    0.32 
   3   6  -1    9.16    0.38 
   3   6  -1    9.27    0.26 
   3   6  -1    9.07    0.35 
   3   6  -1    9.62    0.35 
  -2  -6   1    0.25    0.10 
   2  -6  -1    0.51    0.12 
  -2  -6   1    0.42    0.18 
  -2   6   1    0.60    0.07 
   2   6  -1    0.26    0.08 
  -2   6   1    0.52    0.10 
   2   6  -1    0.51    0.08 
   2   6  -1    0.44    0.08 
   2   6  -1    0.58    0.09 
   2   6  -1    0.57    0.13 
   2   6  -1    0.22    0.07 
   1  -6  -1   17.66    0.67 
  -1  -6   1   17.78    0.68 
  -1   6   1   16.59    0.56 
  -1   6   1   16.57    0.55 
   1   6  -1   16.43    0.56 
  -1   6   1   16.92    0.49 
   1   6  -1   16.22    0.51 
   1   6  -1   16.76    0.56 
   1   6  -1   17.07    0.50 
  -1   6   1   16.71    0.55 
   0  -6   1   15.44    0.59 
   0  -6  -1   15.49    0.60 
   0   6   1   13.64    0.46 
   0   6   1   13.86    0.47 
   0   6   1   13.53    0.43 
   0   6  -1   13.22    0.46 
   0   6  -1   13.28    0.40 
   0   6   1   13.73    0.42 
   0   6   1   13.76    0.47 
   0   6  -1   13.70    0.46 
  -1  -6  -1   46.95    1.66 
  -1  -6  -1   49.57    1.72 
  -1   6  -1   44.42    1.39 
   1   6   1   44.17    1.35 
   1   6   1   44.21    1.39 
   1   6   1   44.08    1.51 
   1   6   1   44.76    1.40 
   1   6   1   43.94    1.25 
   1   6   1   43.98    1.31 
  -2  -6  -1    2.20    0.21 
  -2  -6  -1    2.01    0.16 
  -2  -6  -1    1.76    0.23 
  -2  -6  -1    1.81    0.28 
   2   6   1    2.06    0.16 
   2   6   1    2.11    0.17 
   2   6   1    1.82    0.16 
   2   6   1    1.64    0.18 
   2   6   1    1.92    0.16 
   2   6   1    1.84    0.11 
  -2   6  -1    1.86    0.08 
   2   6   1    1.96    0.16 
   2   6   1    1.88    0.16 
  -3  -6  -1    0.08    0.07 
  -3  -6  -1    0.03    0.12 
  -3  -6  -1    0.09    0.16 
   3   6   1   -0.02    0.08 
   3   6   1    0.12    0.10 
   3   6   1    0.10    0.08 
   3   6   1   -0.06    0.09 
   3   6   1   -0.05    0.09 
   3   6   1    0.06    0.08 
   3   6   1    0.05    0.04 
   3   6   1    0.12    0.09 
   3   6   1    0.06    0.07 
   3   6   1    0.08    0.09 
   3   6   1    0.10    0.09 
   3   6   1    0.07    0.06 
  -4  -6  -1    2.65    0.27 
  -4  -6  -1    2.81    0.20 
  -4  -6  -1    2.99    0.14 
  -4  -6  -1    2.94    0.16 
   4   6   1    2.73    0.10 
   4   6   1    2.56    0.18 
   4   6   1    2.91    0.17 
   4   6   1    2.74    0.17 
   4   6   1    2.74    0.13 
   4   6   1    2.84    0.13 
   4   6   1    2.83    0.16 
   4   6   1    2.77    0.17 
   4   6   1    2.77    0.18 
   4   6   1    2.73    0.16 
  -5  -6  -1    1.19    0.14 
  -5  -6  -1    1.34    0.08 
   5   6   1    1.30    0.13 
   5   6   1    1.23    0.08 
   5   6   1    1.34    0.10 
   5   6   1    1.25    0.11 
   5   6   1    1.16    0.11 
  -3  -7   1    2.69    0.14 
   3   7  -1    2.59    0.12 
   3   7  -1    2.48    0.13 
   3   7  -1    2.42    0.13 
   3   7  -1    2.55    0.10 
  -2  -7   1    8.74    0.31 
   2   7  -1    8.85    0.30 
  -2   7   1    8.10    0.27 
   2   7  -1    8.72    0.31 
   2   7  -1    8.81    0.27 
   1   7  -1    2.08    0.13 
   1   7  -1    1.95    0.09 
   1   7  -1    2.09    0.12 
   1   7  -1    2.02    0.13 
  -1   7   1    2.01    0.12 
  -1   7   1    2.06    0.12 
   0   7   1    0.66    0.08 
   0   7  -1    0.68    0.08 
   0   7   1    0.64    0.11 
   0   7   1    0.85    0.10 
   0   7   1    0.78    0.10 
  -1  -7  -1    3.38    0.17 
   1   7   1    3.58    0.17 
   1   7   1    3.50    0.17 
   1   7   1    3.44    0.14 
  -2  -7  -1   13.47    0.45 
   2   7   1   12.32    0.41 
   2   7   1   13.18    0.39 
   2   7   1   12.85    0.39 
   2   7   1   12.66    0.43 
   2   7   1   12.92    0.43 
  -3  -7  -1    2.18    0.12 
  -3  -7  -1    1.95    0.10 
   3   7   1    2.12    0.13 
   3   7   1    2.01    0.12 
   3   7   1    1.89    0.10 
   3   7   1    2.19    0.12 
   3   7   1    2.15    0.11 
   3   7   1    1.72    0.12 
   3   7   1    1.96    0.11 
  -9   0   2   22.54    0.69 
  -9   0   2   20.88    0.66 
   9   0  -2   20.03    0.68 
  -9   0   2   20.86    0.56 
  -9   0   2   20.00    0.63 
   9   0  -2   20.74    0.58 
  -9   0   2   20.94    0.65 
  -9   0   2   20.49    0.59 
  -8   0   2    6.12    0.23 
  -8   0   2    6.02    0.25 
  -8   0   2    6.06    0.28 
   8   0  -2    6.19    0.22 
  -8   0   2    5.72    0.28 
   8   0  -2    6.30    0.42 
  -8   0   2    5.62    0.29 
  -8   0   2    5.99    0.31 
   8   0  -2    5.71    0.25 
  -8   0   2    5.48    0.31 
  -8   0   2    5.96    0.30 
   8   0  -2    6.20    0.29 
  -8   0   2    6.26    0.21 
  -8   0   2    5.63    0.22 
  -8   0   2    5.99    0.29 
  -8   0   2    6.06    0.19 
   7   0  -2    2.21    0.32 
   7   0  -2    2.31    0.23 
  -7   0   2    2.14    0.22 
  -7   0   2    2.47    0.21 
  -7   0   2    2.23    0.26 
  -7   0   2    2.40    0.26 
   7   0  -2    2.26    0.22 
   7   0  -2    2.21    0.23 
   7   0  -2    2.41    0.22 
  -7   0   2    1.96    0.19 
   7   0  -2    2.42    0.22 
  -7   0   2    2.24    0.22 
  -7   0   2    1.91    0.16 
  -7   0   2    2.01    0.22 
   7   0  -2    2.37    0.25 
  -7   0   2    2.16    0.25 
  -7   0   2    2.33    0.24 
  -7   0   2    2.09    0.22 
   7   0  -2    1.95    0.18 
  -7   0   2    2.23    0.20 
  -6   0   2    0.91    0.27 
   6   0  -2    1.46    0.22 
   6   0  -2    1.19    0.19 
  -6   0   2    1.39    0.25 
  -6   0   2    1.57    0.21 
   6   0  -2    1.29    0.18 
  -6   0   2    1.32    0.21 
  -6   0   2    1.34    0.21 
  -6   0   2    1.54    0.19 
  -6   0   2    1.24    0.20 
  -6   0   2    1.12    0.20 
  -6   0   2    1.53    0.19 
   6   0  -2    1.46    0.26 
  -6   0   2    1.32    0.18 
  -6   0   2    1.16    0.22 
   6   0  -2    1.52    0.18 
   6   0  -2    1.24    0.20 
   6   0  -2    1.37    0.19 
   6   0  -2    1.27    0.20 
  -5   0   2    0.69    0.16 
  -5   0   2    0.63    0.16 
   5   0  -2    0.69    0.14 
  -5   0   2    0.83    0.15 
  -5   0   2    0.70    0.16 
   5   0  -2    0.50    0.15 
   5   0  -2    0.61    0.15 
   5   0  -2    0.50    0.15 
  -5   0   2    0.97    0.22 
  -5   0   2    0.47    0.15 
   5   0  -2    0.63    0.17 
  -5   0   2    0.58    0.16 
  -5   0   2    0.59    0.08 
   5   0  -2    0.58    0.12 
   5   0  -2    0.65    0.13 
   5   0  -2    0.86    0.14 
   5   0  -2    0.48    0.12 
  -5   0   2    0.85    0.21 
  -4   0   2  113.38    5.13 
   4   0  -2  109.38    3.84 
   4   0  -2  114.28    4.33 
   4   0  -2  107.32    3.88 
   4   0  -2  108.23    3.78 
   4   0  -2  111.02    3.91 
  -4   0   2  103.79    4.35 
   4   0  -2  102.16    4.00 
   4   0  -2  118.40    4.28 
   4   0  -2  110.60    3.96 
   4   0  -2  110.24    4.78 
  -4   0   2  112.66    5.51 
  -4   0   2  107.82    3.85 
  -4   0   2  107.75    4.57 
  -3   0   2   22.01    1.08 
   3   0  -2   21.58    0.83 
   3   0  -2   21.71    0.91 
  -3   0   2   22.76    0.91 
   3   0  -2   22.26    0.90 
  -3   0   2   22.14    0.92 
   3   0  -2   21.77    1.08 
   3   0  -2   21.30    0.84 
  -2   0   2  303.78   12.31 
  -2   0   2  315.49   12.22 
  -2   0   2  322.79   11.08 
   2   0  -2  330.71   11.08 
   2   0  -2  324.26   12.22 
   1   0  -2   11.64    0.43 
  -1   0   2   11.06    0.43 
   1   0  -2   10.87    0.46 
   0   0   2  350.32   12.01 
   0   0  -2  345.13   13.35 
   0   0  -2  345.80   12.01 
  -1   0  -2  128.67    4.47 
   1   0   2  121.79    4.46 
   1   0   2  132.34    4.91 
  -1   0  -2  125.26    4.94 
  -1   0  -2  123.01    4.95 
   1   0   2  136.78    4.46 
   2   0   2    0.43    0.09 
  -2   0  -2    0.41    0.11 
   2   0   2    0.30    0.09 
  -2   0  -2    0.34    0.10 
   2   0   2    0.41    0.10 
   2   0   2    0.44    0.08 
   3   0   2   78.15    3.04 
   3   0   2   81.46    2.75 
  -3   0  -2   75.80    3.01 
   3   0   2   77.40    2.99 
   3   0   2   75.34    2.72 
  -3   0  -2   75.00    3.05 
  -3   0  -2   77.11    3.59 
  -3   0  -2   73.79    3.85 
   3   0   2   78.81    2.78 
  -3   0  -2   74.95    3.20 
   3   0   2   77.65    3.36 
  -4   0  -2   25.91    1.03 
   4   0   2   26.29    1.00 
  -4   0  -2   26.67    1.12 
  -4   0  -2   27.54    1.15 
   4   0   2   28.23    1.04 
   4   0   2   26.46    1.11 
   4   0   2   27.88    1.13 
  -4   0  -2   25.66    1.32 
   4   0   2   26.72    0.98 
  -4   0  -2   25.49    1.11 
   4   0   2   27.85    1.23 
  -4   0  -2   27.79    1.40 
   4   0   2   25.90    1.02 
   4   0   2   26.22    0.96 
  -5   0  -2   22.77    1.17 
   5   0   2   22.60    0.81 
  -5   0  -2   21.09    0.62 
  -5   0  -2   21.53    0.77 
  -5   0  -2   21.09    0.80 
  -5   0  -2   22.13    0.81 
  -5   0  -2   21.55    0.87 
   5   0   2   20.75    1.12 
   5   0   2   21.66    0.79 
  -5   0  -2   21.35    0.80 
  -5   0  -2   22.82    0.95 
  -5   0  -2   22.19    0.78 
   5   0   2   20.83    1.04 
  -5   0  -2   21.50    0.94 
   5   0   2   23.63    0.85 
   5   0   2   22.22    0.87 
   5   0   2   22.35    0.83 
   5   0   2   19.64    0.96 
  -6   0  -2    4.24    0.28 
   6   0   2    4.03    0.26 
  -6   0  -2    3.91    0.28 
   6   0   2    3.73    0.31 
   6   0   2    4.19    0.25 
  -6   0  -2    4.41    0.31 
  -6   0  -2    3.94    0.17 
   6   0   2    3.86    0.26 
   6   0   2    4.00    0.34 
  -6   0  -2    3.84    0.27 
   6   0   2    3.95    0.26 
  -6   0  -2    3.91    0.25 
   6   0   2    3.91    0.27 
  -6   0  -2    3.83    0.25 
  -7   0  -2    5.28    0.24 
  -7   0  -2    5.29    0.27 
  -7   0  -2    5.00    0.25 
  -7   0  -2    5.17    0.25 
  -7   0  -2    5.29    0.20 
  -7   0  -2    5.16    0.16 
  -7   0  -2    4.63    0.29 
   7   0   2    5.02    0.38 
   7   0   2    5.18    0.24 
  -7   0  -2    5.25    0.32 
  -7   0  -2    4.85    0.26 
   7   0   2    4.85    0.28 
  -7   0  -2    5.51    0.27 
  -7   0  -2    5.04    0.27 
  -7   0  -2    5.49    0.25 
  -8   0  -2    0.90    0.13 
  -8   0  -2    1.21    0.12 
  -8   0  -2    0.95    0.10 
  -8   0  -2    1.08    0.12 
   8   0   2    0.96    0.11 
  -8   0  -2    0.92    0.16 
   8   0   2    1.01    0.10 
  -8   0  -2    0.87    0.14 
   9  -1  -2    5.46    0.21 
  -9  -1   2    6.16    0.19 
  -9  -1   2    5.98    0.23 
   9  -1  -2    5.93    0.19 
  -9  -1   2    6.01    0.24 
  -9  -1   2    6.17    0.20 
  -9   1   2    6.27    0.22 
   9   1  -2    6.33    0.24 
  -9   1   2    6.16    0.21 
  -9   1   2    5.89    0.24 
  -9   1   2    5.90    0.21 
  -9   1   2    5.83    0.19 
  -8  -1   2    1.88    0.17 
  -8  -1   2    2.16    0.15 
  -8  -1   2    2.13    0.19 
  -8  -1   2    2.06    0.12 
  -8  -1   2    1.59    0.20 
  -8  -1   2    2.04    0.18 
   8  -1  -2    2.19    0.29 
  -8  -1   2    1.65    0.22 
  -8  -1   2    1.90    0.21 
  -8  -1   2    2.05    0.22 
   8  -1  -2    2.45    0.16 
  -8  -1   2    1.76    0.21 
  -8  -1   2    1.97    0.15 
  -8   1   2    2.00    0.20 
  -8   1   2    2.51    0.19 
  -8   1   2    1.90    0.18 
  -8   1   2    2.23    0.21 
  -8   1   2    2.23    0.17 
  -8   1   2    2.28    0.12 
  -8   1   2    2.12    0.18 
  -8   1   2    2.31    0.17 
   8   1  -2    2.05    0.12 
   8   1  -2    2.19    0.19 
  -8   1   2    2.06    0.18 
  -7  -1   2    6.58    0.33 
  -7  -1   2    7.40    0.41 
   7  -1  -2    6.91    0.47 
  -7  -1   2    7.10    0.30 
  -7  -1   2    6.61    0.36 
  -7  -1   2    7.07    0.35 
   7  -1  -2    5.16    0.35 
   7  -1  -2    6.95    0.37 
  -7  -1   2    6.25    0.30 
  -7  -1   2    6.66    0.19 
  -7  -1   2    6.75    0.37 
   7  -1  -2    6.90    0.35 
  -7  -1   2    6.67    0.24 
  -7  -1   2    7.10    0.39 
  -7  -1   2    7.11    0.34 
   7  -1  -2    7.14    0.29 
  -7  -1   2    6.31    0.27 
   7  -1  -2    7.01    0.34 
  -7  -1   2    6.63    0.26 
   7  -1  -2    7.47    0.34 
  -7  -1   2    7.25    0.37 
  -7   1   2    7.19    0.35 
  -7   1   2    6.36    0.30 
   7   1  -2    6.99    0.47 
  -7   1   2    6.92    0.38 
  -7   1   2    6.73    0.31 
   7   1  -2    6.95    0.39 
  -7   1   2    6.84    0.36 
  -7   1   2    6.78    0.23 
  -7   1   2    7.14    0.31 
  -7   1   2    6.83    0.33 
   7   1  -2    6.44    0.29 
   7   1  -2    7.00    0.38 
  -7   1   2    7.25    0.32 
   7   1  -2    6.61    0.37 
  -7   1   2    6.82    0.33 
  -7   1   2    7.47    0.32 
   7   1  -2    6.67    0.26 
  -7   1   2    7.51    0.34 
  -7   1   2    6.69    0.25 
   7   1  -2    6.58    0.33 
  -7   1   2    7.17    0.36 
   7   1  -2    6.93    0.37 
   7   1  -2    7.16    0.37 
   7   1  -2    6.80    0.35 
  -7   1   2    7.21    0.22 
   6  -1  -2    6.30    0.31 
  -6  -1   2    6.53    0.21 
  -6  -1   2    5.18    0.47 
   6  -1  -2    6.37    0.34 
  -6  -1   2    6.26    0.38 
   6  -1  -2    5.44    0.35 
  -6  -1   2    6.30    0.34 
   6  -1  -2    6.24    0.30 
   6  -1  -2    5.82    0.42 
   6  -1  -2    6.44    0.40 
  -6  -1   2    6.10    0.26 
  -6  -1   2    6.12    0.36 
  -6  -1   2    6.15    0.32 
   6  -1  -2    6.30    0.33 
  -6  -1   2    5.97    0.47 
  -6  -1   2    6.07    0.34 
  -6  -1   2    6.23    0.32 
   6  -1  -2    6.16    0.39 
   6  -1  -2    6.17    0.32 
  -6  -1   2    6.74    0.35 
  -6  -1   2    6.11    0.32 
   6   1  -2    6.15    0.33 
   6   1  -2    5.96    0.32 
   6   1  -2    6.05    0.34 
   6   1  -2    6.23    0.40 
  -6   1   2    6.23    0.31 
  -6   1   2    6.16    0.36 
  -6   1   2    6.79    0.34 
   6   1  -2    6.23    0.32 
  -6   1   2    6.36    0.32 
  -6   1   2    6.47    0.35 
   6   1  -2    5.84    0.33 
  -6   1   2    5.75    0.29 
  -6   1   2    5.70    0.31 
   6   1  -2    6.09    0.34 
   6   1  -2    5.26    0.39 
  -6   1   2    5.84    0.40 
  -6   1   2    6.37    0.32 
   6   1  -2    5.93    0.44 
  -6   1   2    6.38    0.23 
  -5  -1   2   15.52    0.59 
  -5  -1   2   15.02    0.60 
   5  -1  -2   15.41    0.57 
   5  -1  -2   16.77    0.64 
  -5  -1   2   15.04    0.65 
  -5  -1   2   14.06    0.56 
   5  -1  -2   15.41    0.64 
   5  -1  -2   15.56    0.59 
  -5  -1   2   14.32    0.59 
  -5  -1   2   16.20    0.88 
   5  -1  -2   15.79    0.75 
  -5  -1   2   15.06    0.88 
   5  -1  -2   15.22    0.61 
  -5  -1   2   14.74    0.47 
   5  -1  -2   16.86    0.71 
   5  -1  -2   16.70    0.72 
   5  -1  -2   15.37    0.60 
  -5  -1   2   15.60    0.62 
  -5  -1   2   14.93    0.73 
   5   1  -2   14.53    0.62 
  -5   1   2   14.57    0.56 
  -5   1   2   14.95    0.55 
  -5   1   2   15.70    0.82 
  -5   1   2   14.43    0.80 
   5   1  -2   14.98    0.59 
  -5   1   2   15.51    0.67 
   5   1  -2   14.29    0.59 
  -5   1   2   14.16    0.66 
  -5   1   2   14.85    0.57 
  -5   1   2   15.13    0.62 
  -5   1   2   14.95    0.58 
   5   1  -2   14.82    0.60 
   5   1  -2   15.79    0.71 
   5   1  -2   14.13    0.56 
   5   1  -2   14.47    0.69 
   5   1  -2   13.92    0.73 
   5   1  -2   15.39    0.61 
   4  -1  -2   49.39    1.78 
   4  -1  -2   47.00    1.86 
  -4  -1   2   50.73    2.25 
   4  -1  -2   49.08    2.22 
  -4  -1   2   51.19    2.58 
  -4  -1   2   52.47    2.04 
   4  -1  -2   49.99    2.02 
   4  -1  -2   50.07    1.80 
  -4  -1   2   52.04    2.05 
  -4  -1   2   49.82    1.80 
   4  -1  -2   50.36    1.99 
   4  -1  -2   47.96    1.74 
   4  -1  -2   52.22    1.85 
  -4  -1   2   53.08    2.42 
  -4  -1   2   46.88    1.82 
  -4   1   2   52.06    2.38 
   4   1  -2   48.60    1.80 
   4   1  -2   51.09    1.79 
  -4   1   2   46.95    2.09 
   4   1  -2   51.44    2.00 
   4   1  -2   50.22    1.78 
   4   1  -2   48.14    1.86 
   4   1  -2   52.72    2.41 
  -4   1   2   47.67    2.01 
  -4   1   2   47.33    2.53 
   4   1  -2   49.72    2.02 
  -4   1   2   51.53    1.99 
   4   1  -2   51.53    2.22 
  -3  -1   2  483.76   18.26 
   3  -1  -2  463.62   18.23 
  -3  -1   2  477.11   17.97 
   3  -1  -2  458.23   16.29 
   3  -1  -2  479.23   17.95 
  -3  -1   2  464.89   21.60 
   3  -1  -2  464.19   20.23 
  -3  -1   2  477.71   20.26 
   3  -1  -2  456.20   16.70 
   3   1  -2  463.12   17.56 
   3   1  -2  458.66   17.83 
  -3   1   2  462.51   17.68 
  -3   1   2  440.58   18.92 
   3   1  -2  476.54   21.13 
  -3   1   2  458.60   22.77 
  -3   1   2  448.31   17.99 
  -3   1   2  463.14   21.11 
   2  -1  -2  963.69   32.68 
  -2  -1   2  962.19   36.08 
  -2  -1   2  951.55   36.64 
   2  -1  -2  931.84   36.07 
  -2  -1   2  965.41   32.68 
   2  -1  -2  894.84   36.64 
   2   1  -2  947.27   36.04 
   2   1  -2  924.33   43.34 
   2   1  -2 1000.00   36.33 
  -2   1   2  899.80   43.32 
  -2   1   2  947.77   36.31 
  -1  -1   2  403.11   14.25 
   1  -1  -2  416.23   15.73 
  -1  -1   2  409.08   15.73 
   1  -1  -2  421.30   14.26 
  -1  -1   2  408.80   14.25 
   1   1  -2  403.06   15.42 
   1   1  -2  407.30   15.42 
  -1   1   2  382.39   15.42 
  -1   1   2  395.84   13.87 
   1   1  -2  414.87   13.87 
   0  -1   2  102.37    4.04 
   0  -1  -2  102.31    4.06 
   0  -1   2  106.39    3.67 
   0  -1   2  108.36    3.67 
   0  -1  -2  108.53    3.70 
   0   1   2   98.26    3.90 
   0   1   2  100.58    3.94 
   0   1   2  104.09    3.55 
   0   1  -2   99.39    3.91 
   0   1  -2  105.34    3.91 
  -1  -1  -2   14.23    0.56 
   1  -1   2   13.82    0.56 
  -1  -1  -2   14.53    0.60 
  -1  -1  -2   14.19    0.60 
   1  -1   2   14.40    0.52 
   1  -1   2   14.90    0.52 
   1   1   2   14.30    0.59 
   1   1   2   14.14    0.55 
  -2  -1  -2   22.13    0.89 
  -2  -1  -2   21.74    1.06 
   2  -1   2   21.73    0.85 
  -2  -1  -2   21.13    1.06 
   2  -1   2   21.05    0.87 
   2  -1   2   21.16    0.79 
   2  -1   2   21.95    0.79 
  -2  -1  -2   21.61    0.90 
   2   1   2   22.06    0.81 
   2   1   2   22.23    0.81 
   2   1   2   20.52    0.88 
   2   1   2   20.59    0.87 
   2   1   2   19.93    1.05 
  -2   1  -2   21.68    0.83 
  -2   1  -2   21.38    0.83 
  -3  -1  -2   40.59    1.90 
  -3  -1  -2   37.45    1.67 
   3  -1   2   38.42    1.74 
  -3  -1  -2   38.09    1.60 
   3  -1   2   41.36    1.44 
   3  -1   2   39.85    1.55 
   3  -1   2   39.73    1.58 
   3  -1   2   37.97    1.43 
  -3  -1  -2   40.76    2.03 
   3   1   2   37.02    1.42 
   3   1   2   39.46    1.57 
   3   1   2   40.37    1.75 
  -3   1  -2   40.43    1.53 
  -3   1  -2   39.14    1.57 
   3   1   2   37.56    1.46 
   3   1   2   40.30    1.60 
  -3   1  -2   38.36    1.96 
   3   1   2   38.92    1.46 
  -4  -1  -2   12.71    0.56 
  -4  -1  -2   13.24    0.39 
  -4  -1  -2   13.20    0.61 
  -4  -1  -2   13.17    0.52 
  -4  -1  -2   13.30    0.50 
   4  -1   2   12.12    0.53 
   4  -1   2   13.54    0.58 
  -4  -1  -2   14.42    0.74 
   4  -1   2   13.90    0.55 
   4  -1   2   12.97    0.52 
   4  -1   2   13.01    0.51 
   4  -1   2   13.03    0.49 
   4  -1   2   13.46    0.64 
  -4  -1  -2   13.43    0.76 
  -4  -1  -2   13.02    0.60 
   4  -1   2   12.77    0.59 
   4   1   2   12.49    0.53 
  -4   1  -2   12.76    0.55 
  -4   1  -2   12.64    0.53 
   4   1   2   12.03    0.59 
   4   1   2   12.93    0.60 
   4   1   2   12.69    0.49 
   4   1   2   13.04    0.55 
   4   1   2   12.78    0.49 
  -4   1  -2   12.80    0.51 
   4   1   2   12.22    0.51 
   4   1   2   12.71    0.52 
   4   1   2   13.08    0.64 
   5  -1   2   90.35    3.42 
   5  -1   2   92.35    3.10 
  -5  -1  -2   97.64    3.90 
  -5  -1  -2   91.43    3.03 
   5  -1   2   93.27    3.40 
  -5  -1  -2   94.25    3.74 
  -5  -1  -2   91.20    3.20 
  -5  -1  -2   94.22    3.45 
  -5  -1  -2   92.15    3.08 
   5  -1   2   88.99    3.31 
   5  -1   2   95.61    3.28 
  -5  -1  -2   97.74    4.42 
   5  -1   2   92.46    3.22 
   5  -1   2   86.13    4.08 
  -5  -1  -2   97.93    4.71 
  -5  -1  -2   91.77    2.87 
  -5   1  -2   94.71    3.67 
   5   1   2   93.43    3.27 
  -5   1  -2   91.51    3.16 
  -5   1  -2   87.66    3.38 
  -5   1  -2   88.87    3.15 
   5   1   2   95.24    4.07 
  -5   1  -2   90.43    3.12 
   5   1   2   91.91    3.40 
   5   1   2   94.63    3.71 
   5   1   2   88.92    4.44 
   5   1   2   93.13    3.20 
   5   1   2   92.64    3.39 
   5   1   2   93.53    3.09 
   5   1   2   92.04    3.30 
  -6  -1  -2   39.09    1.38 
   6  -1   2   40.71    1.38 
   6  -1   2   35.19    1.46 
  -6  -1  -2   36.92    1.63 
  -6  -1  -2   38.46    1.07 
   6  -1   2   37.01    1.41 
  -6  -1  -2   40.22    1.33 
  -6  -1  -2   38.89    1.31 
  -6  -1  -2   37.67    1.39 
  -6  -1  -2   38.15    2.01 
   6  -1   2   38.84    1.33 
  -6  -1  -2   38.59    1.49 
  -6   1  -2   34.97    1.40 
  -6   1  -2   36.79    1.30 
   6   1   2   36.26    1.40 
   6   1   2   37.03    1.84 
   6   1   2   37.72    1.39 
  -6   1  -2   38.12    1.28 
   6   1   2   37.41    1.43 
   6   1   2   34.02    1.36 
   6   1   2   37.42    1.30 
  -6   1  -2   36.40    1.51 
  -7  -1  -2    3.52    0.20 
  -7  -1  -2    3.66    0.16 
   7  -1   2    3.30    0.19 
  -7  -1  -2    3.58    0.22 
   7  -1   2    2.52    0.28 
  -7  -1  -2    3.99    0.24 
  -7  -1  -2    3.45    0.15 
  -7  -1  -2    3.49    0.23 
  -7  -1  -2    3.69    0.20 
  -7  -1  -2    2.63    0.26 
  -7  -1  -2    3.50    0.18 
  -7  -1  -2    4.17    0.28 
  -7  -1  -2    3.65    0.24 
   7   1   2    3.62    0.20 
  -7   1  -2    3.86    0.20 
  -7   1  -2    3.48    0.21 
   7   1   2    3.86    0.35 
   7   1   2    3.54    0.25 
  -7   1  -2    3.51    0.17 
  -7   1  -2    3.74    0.20 
   7   1   2    3.82    0.24 
   7   1   2    3.71    0.18 
  -7   1  -2    3.44    0.22 
   7   1   2    3.42    0.26 
  -8  -1  -2    0.00    0.07 
   8  -1   2    0.11    0.06 
  -8  -1  -2   -0.07    0.07 
  -8  -1  -2    0.22    0.10 
  -8  -1  -2    0.08    0.07 
  -8  -1  -2   -0.06    0.08 
  -8  -1  -2   -0.03    0.05 
  -8  -1  -2   -0.04    0.05 
  -8  -1  -2    0.08    0.07 
  -8   1  -2    0.00    0.04 
   8   1   2    0.05    0.04 
   8   1   2    0.02    0.06 
  -8   1  -2    0.11    0.07 
  -8   1  -2    0.18    0.07 
  -8   1  -2    0.21    0.07 
  -8   1  -2    0.19    0.07 
   8   1   2    0.16    0.06 
  -8  -2   2    5.59    0.23 
   8  -2  -2    5.76    0.24 
  -8  -2   2    5.43    0.27 
  -8  -2   2    5.48    0.25 
  -8  -2   2    5.86    0.31 
  -8  -2   2    5.73    0.28 
   8   2  -2    5.71    0.25 
  -8   2   2    5.83    0.26 
  -8   2   2    5.69    0.25 
  -8   2   2    6.05    0.24 
   8   2  -2    5.76    0.26 
   8   2  -2    5.45    0.25 
   8   2  -2    5.85    0.26 
  -8   2   2    5.94    0.22 
  -8   2   2    5.70    0.23 
  -7  -2   2   24.49    1.08 
  -7  -2   2   27.88    0.98 
  -7  -2   2   27.47    1.02 
  -7  -2   2   26.65    0.97 
  -7  -2   2   27.36    0.86 
  -7  -2   2   26.33    0.89 
  -7  -2   2   27.08    0.93 
   7  -2  -2   27.43    1.00 
  -7  -2   2   26.86    0.81 
  -7  -2   2   26.32    1.04 
   7  -2  -2   24.42    1.36 
  -7  -2   2   28.75    0.87 
   7  -2  -2   26.87    0.87 
  -7  -2   2   27.14    0.66 
  -7  -2   2   27.06    0.78 
  -7  -2   2   26.86    0.87 
  -7  -2   2   26.48    0.95 
   7  -2  -2   26.89    1.02 
   7  -2  -2   25.50    0.96 
   7   2  -2   26.02    0.88 
   7   2  -2   25.64    1.04 
  -7   2   2   27.10    0.87 
  -7   2   2   26.08    0.84 
   7   2  -2   25.34    0.78 
  -7   2   2   26.77    0.70 
   7   2  -2   26.76    0.86 
   7   2  -2   26.81    0.82 
   7   2  -2   23.53    1.00 
  -7   2   2   26.73    0.81 
  -7   2   2   26.95    0.87 
  -7   2   2   27.64    0.96 
  -7   2   2   26.75    0.93 
   7   2  -2   26.82    0.74 
   7   2  -2   26.47    0.90 
   6  -2  -2    4.77    0.27 
  -6  -2   2    5.16    0.32 
  -6  -2   2    5.40    0.25 
   6  -2  -2    4.79    0.31 
   6  -2  -2    5.44    0.31 
   6  -2  -2    5.11    0.35 
  -6  -2   2    5.68    0.33 
  -6  -2   2    5.54    0.31 
  -6  -2   2    5.12    0.22 
  -6  -2   2    4.73    0.28 
   6  -2  -2    5.17    0.29 
   6  -2  -2    5.02    0.28 
  -6  -2   2    5.40    0.30 
   6  -2  -2    5.38    0.27 
  -6   2   2    4.76    0.27 
  -6   2   2    4.45    0.30 
  -6   2   2    4.70    0.26 
  -6   2   2    4.89    0.26 
   6   2  -2    4.92    0.31 
   6   2  -2    4.64    0.25 
  -6   2   2    5.16    0.28 
  -6   2   2    4.67    0.30 
   6   2  -2    5.34    0.30 
  -5  -2   2   56.11    1.83 
   5  -2  -2   54.15    1.80 
  -5  -2   2   52.09    1.76 
  -5  -2   2   48.79    2.21 
   5  -2  -2   48.75    2.16 
   5  -2  -2   55.53    1.99 
  -5  -2   2   56.48    1.92 
   5  -2  -2   55.53    1.91 
  -5  -2   2   55.26    1.94 
   5  -2  -2   47.42    2.12 
   5  -2  -2   55.69    1.87 
  -5  -2   2   54.20    1.97 
  -5  -2   2   54.71    1.82 
   5  -2  -2   54.73    1.93 
  -5  -2   2   48.80    2.60 
  -5  -2   2   49.98    1.68 
   5  -2  -2   53.21    1.98 
   5  -2  -2   56.65    2.38 
   5   2  -2   55.08    1.90 
  -5   2   2   51.49    1.81 
  -5   2   2   52.30    2.11 
  -5   2   2   53.79    1.95 
  -5   2   2   52.34    1.80 
  -5   2   2   52.90    1.74 
  -5   2   2   51.20    1.82 
  -5   2   2   52.87    1.91 
  -5   2   2   51.66    1.39 
   5   2  -2   51.19    1.77 
   5   2  -2   51.07    1.65 
   5   2  -2   51.68    1.88 
   5   2  -2   49.75    2.55 
  -4  -2   2   37.87    1.87 
  -4  -2   2   36.55    1.39 
  -4  -2   2   36.45    1.30 
  -4  -2   2   39.00    1.74 
  -4  -2   2   36.78    1.38 
   4  -2  -2   38.39    1.54 
   4  -2  -2   37.04    1.35 
  -4  -2   2   36.85    1.40 
  -4  -2   2   38.57    1.44 
   4  -2  -2   40.29    1.42 
   4  -2  -2   39.92    1.53 
  -4  -2   2   37.62    1.57 
   4  -2  -2   38.96    1.69 
   4  -2  -2   36.91    1.37 
   4  -2  -2   36.53    1.42 
   4  -2  -2   36.46    1.33 
  -4  -2   2   38.85    1.60 
   4   2  -2   35.79    1.32 
   4   2  -2   36.94    1.79 
   4   2  -2   33.78    1.37 
  -4   2   2   34.86    1.35 
   4   2  -2   36.31    1.89 
  -4   2   2   38.45    1.47 
   4   2  -2   35.42    1.57 
  -4   2   2   37.32    1.44 
  -4   2   2   36.10    1.83 
  -4   2   2   34.95    1.24 
  -3  -2   2   16.81    0.75 
   3  -2  -2   17.26    0.72 
   3  -2  -2   17.26    0.71 
  -3  -2   2   17.20    0.69 
  -3  -2   2   17.02    0.66 
   3  -2  -2   16.98    0.64 
   3  -2  -2   16.80    0.78 
  -3  -2   2   17.41    0.82 
  -3  -2   2   17.82    0.76 
  -3  -2   2   16.75    0.71 
   3  -2  -2   16.16    0.66 
   3  -2  -2   17.05    0.68 
  -3   2   2   16.66    0.71 
  -3   2   2   17.47    0.90 
  -3   2   2   17.28    0.72 
   3   2  -2   18.18    0.90 
   3   2  -2   16.76    0.93 
  -3   2   2   16.69    0.73 
   3   2  -2   17.29    0.78 
   3   2  -2   16.58    0.74 
  -3   2   2   18.22    0.86 
   2  -2  -2   14.88    0.59 
  -2  -2   2   15.32    0.62 
  -2  -2   2   15.54    0.67 
   2  -2  -2   15.43    0.64 
   2  -2  -2   15.59    0.61 
  -2  -2   2   15.52    0.61 
  -2  -2   2   15.38    0.66 
   2  -2  -2   15.13    0.64 
  -2  -2   2   15.28    0.72 
  -2   2   2   14.12    0.75 
   2   2  -2   14.79    0.74 
  -2   2   2   14.25    0.60 
  -2   2   2   14.53    0.60 
   2   2  -2   14.24    0.77 
   2   2  -2   14.56    0.61 
  -2   2   2   13.88    0.62 
   2   2  -2   14.55    0.62 
  -2   2   2   14.16    0.72 
   2   2  -2   14.75    0.64 
  -1  -2   2    4.25    0.24 
  -1  -2   2    4.77    0.23 
   1  -2  -2    4.18    0.23 
  -1  -2   2    4.62    0.21 
   1  -2  -2    4.27    0.23 
   1  -2  -2    4.40    0.23 
  -1  -2   2    4.42    0.22 
   1  -2  -2    4.39    0.21 
  -1   2   2    3.88    0.26 
   1   2  -2    4.11    0.21 
  -1   2   2    4.25    0.22 
   1   2  -2    4.45    0.21 
   1   2  -2    4.23    0.25 
   0  -2  -2   28.30    1.05 
   0  -2  -2   27.98    1.13 
   0  -2  -2   28.36    1.15 
   0  -2   2   29.02    1.01 
   0  -2   2   27.97    1.10 
   0   2   2   24.96    1.17 
   0   2   2   23.43    0.98 
  -1  -2  -2   28.84    1.07 
  -1  -2  -2   27.94    1.07 
  -1  -2  -2   27.45    1.37 
  -1  -2  -2   28.85    1.15 
  -1  -2  -2   29.23    1.17 
   1   2   2   27.38    1.12 
   1   2   2   27.41    1.11 
   1   2   2   27.46    1.33 
   2  -2   2    8.01    0.29 
  -2  -2  -2    7.71    0.40 
  -2  -2  -2    8.07    0.47 
  -2  -2  -2    7.35    0.41 
  -2  -2  -2    8.21    0.40 
   2   2   2    7.32    0.44 
   2   2   2    7.04    0.37 
   2   2   2    7.13    0.38 
   2   2   2    7.55    0.37 
   2   2   2    7.28    0.45 
   2   2   2    7.47    0.36 
  -3  -2  -2   21.69    1.01 
  -3  -2  -2   22.38    0.92 
  -3  -2  -2   24.39    1.03 
   3  -2   2   24.69    0.88 
  -3  -2  -2   24.32    0.89 
  -3  -2  -2   23.57    1.11 
  -3  -2  -2   23.48    0.89 
  -3  -2  -2   25.01    1.21 
  -3  -2  -2   24.37    0.91 
   3   2   2   23.60    1.20 
   3   2   2   23.50    1.00 
   3   2   2   24.10    0.88 
   3   2   2   23.20    1.09 
   3   2   2   23.14    0.89 
   3   2   2   23.10    0.87 
   3   2   2   24.73    1.01 
   3   2   2   22.57    0.91 
  -4  -2  -2   35.13    1.38 
  -4  -2  -2   36.81    1.32 
  -4  -2  -2   35.05    1.01 
  -4  -2  -2   35.71    1.79 
  -4  -2  -2   35.98    1.21 
  -4  -2  -2   34.66    1.23 
  -4  -2  -2   38.42    1.90 
  -4  -2  -2   35.04    1.56 
   4  -2   2   35.88    1.33 
  -4  -2  -2   35.38    1.30 
   4   2   2   34.98    1.30 
   4   2   2   36.01    1.34 
   4   2   2   34.78    1.28 
   4   2   2   36.47    1.60 
   4   2   2   35.69    1.46 
   4   2   2   34.08    1.21 
   4   2   2   33.81    1.75 
   4   2   2   34.59    1.47 
   4   2   2   35.33    1.29 
  -4   2  -2   32.62    1.18 
  -5  -2  -2   20.89    0.73 
   5  -2   2   19.07    0.73 
  -5  -2  -2   19.59    0.74 
  -5  -2  -2   20.15    0.79 
  -5  -2  -2   20.93    0.84 
  -5  -2  -2   18.57    0.92 
  -5  -2  -2   21.47    1.15 
  -5  -2  -2   20.93    0.58 
  -5  -2  -2   20.27    0.79 
  -5  -2  -2   20.32    0.67 
   5  -2   2   17.93    0.79 
   5   2   2   19.95    0.80 
   5   2   2   18.93    0.76 
   5   2   2   20.03    0.77 
   5   2   2   19.25    0.72 
   5   2   2   15.58    0.88 
   5   2   2   19.45    1.01 
   5   2   2   19.65    0.77 
   5   2   2   19.65    0.78 
   5   2   2   19.56    0.96 
  -6  -2  -2   75.46    2.40 
  -6  -2  -2   75.13    2.48 
   6  -2   2   75.50    2.58 
  -6  -2  -2   73.14    2.29 
  -6  -2  -2   75.41    2.58 
  -6  -2  -2   72.49    2.58 
  -6  -2  -2   72.63    2.03 
  -6  -2  -2   73.23    2.29 
  -6  -2  -2   74.09    2.26 
  -6  -2  -2   75.88    2.44 
  -6  -2  -2   72.19    2.12 
  -6  -2  -2   72.49    1.98 
  -6  -2  -2   71.11    2.24 
  -6  -2  -2   74.07    2.78 
   6   2   2   73.78    3.47 
   6   2   2   70.00    2.28 
   6   2   2   69.59    2.67 
  -6   2  -2   69.99    2.21 
   6   2   2   66.11    2.57 
  -6   2  -2   68.91    1.98 
   6   2   2   71.68    2.57 
   6   2   2   74.76    2.43 
   6   2   2   74.31    2.57 
   6   2   2   71.06    2.20 
  -6   2  -2   70.40    2.07 
   6   2   2   71.87    1.97 
   6   2   2   73.46    2.61 
  -7  -2  -2    9.22    0.28 
  -7  -2  -2    9.63    0.39 
  -7  -2  -2    8.95    0.37 
  -7  -2  -2    9.46    0.44 
  -7  -2  -2    9.39    0.31 
  -7  -2  -2    9.29    0.41 
  -7  -2  -2    9.00    0.39 
  -7  -2  -2    9.11    0.32 
  -7  -2  -2    9.03    0.35 
   7   2   2    8.50    0.28 
  -7   2  -2    8.89    0.33 
   7   2   2    8.48    0.36 
  -7   2  -2    9.21    0.34 
  -7   2  -2    8.87    0.29 
   8  -2   2    6.50    0.23 
  -8  -2  -2    6.24    0.21 
  -8  -2  -2    6.30    0.25 
  -8  -2  -2    6.24    0.25 
  -8  -2  -2    6.14    0.20 
  -8  -2  -2    6.17    0.17 
  -8  -2  -2    5.77    0.25 
   8   2   2    6.41    0.26 
  -8   2  -2    6.32    0.23 
  -8   2  -2    6.71    0.24 
   8   2   2    6.33    0.24 
   8   2   2    6.38    0.25 
  -8   2  -2    6.51    0.24 
  -8   2  -2    6.72    0.19 
  -8  -3   2   14.65    0.48 
   8  -3  -2   15.16    0.48 
  -8  -3   2   14.50    0.53 
  -8  -3   2   14.43    0.49 
  -8   3   2   14.16    0.49 
   8   3  -2   14.49    0.36 
  -8   3   2   14.73    0.42 
  -8   3   2   14.52    0.47 
   8   3  -2   14.47    0.47 
  -8   3   2   14.40    0.48 
   8   3  -2   14.27    0.49 
   8   3  -2   14.26    0.48 
   8   3  -2   14.18    0.44 
  -7  -3   2    8.65    0.36 
  -7  -3   2    9.41    0.36 
  -7  -3   2    8.85    0.27 
  -7  -3   2    8.46    0.41 
  -7  -3   2    8.66    0.34 
  -7  -3   2    9.34    0.32 
  -7  -3   2    8.72    0.36 
  -7  -3   2    8.90    0.26 
   7   3  -2    9.04    0.42 
   7   3  -2    8.77    0.37 
   7   3  -2    9.09    0.34 
  -7   3   2    9.58    0.36 
   7   3  -2    9.11    0.35 
  -7   3   2    9.60    0.36 
   7   3  -2    9.13    0.27 
  -7   3   2    9.08    0.32 
   7   3  -2    9.74    0.36 
   7   3  -2    9.52    0.37 
  -7   3   2    9.44    0.31 
  -7   3   2    9.30    0.34 
  -6  -3   2    1.88    0.19 
  -6  -3   2    1.23    0.23 
   6  -3  -2    1.42    0.17 
  -6  -3   2    1.71    0.21 
  -6  -3   2    1.46    0.12 
  -6  -3   2    1.52    0.24 
  -6  -3   2    1.43    0.23 
  -6  -3   2    1.84    0.18 
  -6  -3   2    1.84    0.20 
  -6  -3   2    1.66    0.20 
  -6   3   2    1.96    0.18 
   6   3  -2    1.97    0.21 
   6   3  -2    1.30    0.17 
   6   3  -2    1.82    0.15 
  -6   3   2    1.50    0.19 
  -6   3   2    1.19    0.15 
  -6   3   2    1.54    0.10 
   6   3  -2    2.02    0.20 
   6   3  -2    1.47    0.23 
   6   3  -2    1.66    0.10 
   6   3  -2    2.07    0.21 
   6   3  -2    1.55    0.18 
   6   3  -2    1.43    0.20 
   6   3  -2    1.75    0.12 
   6   3  -2    1.10    0.21 
   6   3  -2    1.66    0.19 
  -6   3   2    1.02    0.18 
  -6   3   2    1.44    0.16 
  -5  -3   2   14.97    0.60 
   5  -3  -2   14.31    0.62 
  -5  -3   2   14.01    0.81 
  -5  -3   2   15.14    0.61 
  -5  -3   2   15.23    0.60 
  -5  -3   2   12.47    0.78 
  -5  -3   2   15.40    0.64 
  -5  -3   2   15.43    0.66 
  -5  -3   2   15.40    0.65 
   5  -3  -2   15.74    0.58 
  -5  -3   2   15.09    0.77 
  -5  -3   2   14.96    0.64 
   5   3  -2   14.90    0.62 
   5   3  -2   13.78    0.59 
   5   3  -2   14.68    0.50 
   5   3  -2   13.72    0.59 
  -5   3   2   13.73    0.61 
   5   3  -2   13.16    0.69 
   5   3  -2   12.76    0.58 
  -5   3   2   14.48    0.51 
   5   3  -2   11.03    0.80 
   5   3  -2   13.95    0.55 
   5   3  -2   15.15    0.57 
   5   3  -2   14.71    0.42 
   5   3  -2   14.47    0.85 
  -4  -3   2    9.60    0.43 
   4  -3  -2    8.74    0.35 
  -4  -3   2    8.78    0.39 
  -4  -3   2    7.21    0.47 
  -4  -3   2    8.96    0.38 
  -4  -3   2    8.83    0.51 
  -4  -3   2    8.83    0.39 
   4  -3  -2    9.32    0.40 
  -4  -3   2    8.70    0.42 
  -4  -3   2    8.68    0.42 
  -4  -3   2    8.78    0.41 
  -4  -3   2    8.58    0.50 
   4   3  -2    8.04    0.44 
  -4   3   2    8.33    0.38 
   4   3  -2    8.14    0.36 
  -4   3   2    8.17    0.32 
   4   3  -2    8.09    0.37 
   4   3  -2    7.07    0.50 
   4   3  -2    8.52    0.38 
   4   3  -2    7.99    0.25 
   4   3  -2    7.88    0.34 
   4   3  -2    7.71    0.52 
  -3  -3   2   81.76    3.67 
  -3  -3   2   81.38    3.28 
  -3  -3   2   86.85    3.34 
  -3  -3   2   83.72    2.87 
  -3  -3   2   81.19    2.77 
  -3  -3   2   83.93    2.98 
  -3  -3   2   81.92    2.94 
  -3  -3   2   83.10    3.06 
   3  -3  -2   82.90    3.23 
  -3  -3   2   85.50    3.05 
   3  -3  -2   84.57    3.01 
   3  -3  -2   80.01    2.86 
  -3   3   2   80.93    3.15 
   3   3  -2   81.38    4.01 
   3   3  -2   78.08    3.17 
  -3   3   2   79.12    3.07 
   3   3  -2   73.29    2.92 
   3   3  -2   86.19    3.33 
  -3   3   2   75.76    2.90 
   3   3  -2   78.25    2.80 
   3   3  -2   80.18    3.75 
  -2  -3   2    0.62    0.12 
  -2  -3   2    0.56    0.15 
  -2  -3   2    0.66    0.16 
   2  -3  -2    0.39    0.09 
   2  -3  -2    0.36    0.11 
  -2  -3   2    0.48    0.12 
   2  -3  -2    0.40    0.08 
   2  -3  -2    0.35    0.11 
  -2  -3   2    0.63    0.13 
  -2  -3   2    0.40    0.09 
   2  -3  -2    0.48    0.10 
   2  -3  -2    0.38    0.11 
  -2  -3   2    0.42    0.11 
  -2  -3   2    0.45    0.12 
  -2   3   2    0.29    0.09 
   2   3  -2    0.45    0.14 
  -2   3   2    0.36    0.08 
   2   3  -2    0.51    0.14 
   2   3  -2    0.51    0.10 
  -2   3   2    0.35    0.09 
   2   3  -2    0.56    0.11 
   2   3  -2    0.47    0.12 
   1  -3  -2   43.28    1.90 
   1  -3  -2   42.99    1.73 
  -1  -3   2   44.90    1.70 
  -1  -3   2   43.67    1.73 
   1  -3  -2   42.38    1.58 
   1  -3  -2   42.78    1.70 
   1  -3  -2   41.76    1.54 
  -1  -3   2   43.08    1.56 
  -1  -3   2   41.74    1.90 
   1  -3  -2   43.47    1.58 
  -1  -3   2   43.01    1.58 
  -1   3   2   40.02    1.85 
  -1   3   2   36.61    1.57 
   1   3  -2   39.35    1.53 
  -1   3   2   39.14    1.54 
   1   3  -2   39.25    1.95 
  -1   3   2   39.66    1.97 
  -1   3   2   38.33    1.62 
   1   3  -2   39.00    1.56 
   0  -3  -2   35.79    1.29 
   0  -3  -2   33.02    1.25 
   0  -3  -2   34.29    1.28 
   0  -3  -2   35.82    1.41 
   0  -3  -2   33.90    1.38 
   0  -3   2   34.22    1.23 
   0  -3  -2   34.73    1.54 
   0  -3   2   33.18    1.25 
   0   3   2   31.18    1.37 
   0   3   2   32.07    1.31 
   0   3   2   33.80    1.56 
   0   3   2   33.45    1.31 
   0   3   2   32.20    1.66 
   0   3  -2   31.17    1.28 
  -1  -3  -2   28.08    1.08 
  -1  -3  -2   27.59    1.00 
  -1  -3  -2   29.12    1.17 
  -1  -3  -2   27.64    1.03 
  -1  -3  -2   27.35    1.07 
  -1  -3  -2   28.99    1.11 
  -1  -3  -2   27.91    1.28 
  -1  -3  -2   28.53    1.05 
  -1  -3  -2   28.90    1.19 
   1   3   2   26.22    1.43 
   1   3   2   27.07    1.14 
   1   3   2   27.35    1.18 
   1   3   2   29.12    1.36 
  -2  -3  -2   41.34    1.66 
  -2  -3  -2   39.81    1.51 
  -2  -3  -2   40.79    1.41 
  -2  -3  -2   37.89    1.44 
  -2  -3  -2   39.45    1.46 
  -2  -3  -2   41.19    1.80 
  -2  -3  -2   37.08    1.44 
  -2  -3  -2   41.01    1.63 
  -2  -3  -2   40.17    1.51 
   2   3   2   34.92    1.40 
   2   3   2   36.91    1.34 
   2   3   2   36.41    1.53 
   2   3   2   38.26    1.59 
   2   3   2   37.65    1.81 
   2   3   2   37.33    1.92 
  -3  -3  -2   11.10    0.57 
  -3  -3  -2   11.20    0.43 
  -3  -3  -2   10.64    0.56 
  -3  -3  -2   11.36    0.47 
  -3  -3  -2   10.98    0.47 
  -3  -3  -2   11.18    0.59 
  -3  -3  -2   10.77    0.45 
  -3  -3  -2   11.22    0.48 
  -3  -3  -2   10.84    0.49 
  -3  -3  -2   11.25    0.45 
  -3  -3  -2   10.39    0.46 
   3   3   2   11.62    0.66 
   3   3   2   10.11    0.47 
   3   3   2   10.45    0.45 
   3   3   2   10.18    0.65 
   3   3   2   10.47    0.34 
   3   3   2   10.98    0.55 
   3   3   2   11.09    0.46 
  -4  -3  -2   11.58    0.44 
  -4  -3  -2   12.63    0.54 
  -4  -3  -2   10.99    0.63 
  -4  -3  -2   12.25    0.53 
  -4  -3  -2   10.88    0.73 
  -4  -3  -2   12.72    0.48 
  -4  -3  -2   12.29    0.50 
   4   3   2   11.50    0.51 
   4   3   2   11.84    0.49 
   4   3   2   11.82    0.44 
   4   3   2   12.52    0.74 
   4   3   2   11.53    0.38 
   4   3   2   11.72    0.50 
  -5  -3  -2   57.41    1.85 
  -5  -3  -2   58.40    2.14 
  -5  -3  -2   60.03    2.11 
  -5  -3  -2   59.71    1.96 
  -5  -3  -2   58.45    1.64 
  -5  -3  -2   58.56    2.00 
   5   3   2   58.08    2.07 
   5   3   2   56.41    1.61 
   5   3   2   57.12    2.08 
   5   3   2   55.89    1.95 
   5   3   2   57.81    1.81 
  -6  -3  -2    5.74    0.27 
  -6  -3  -2    5.61    0.24 
  -6  -3  -2    5.76    0.30 
  -6  -3  -2    5.37    0.25 
  -6  -3  -2    5.30    0.23 
  -6  -3  -2    5.56    0.29 
  -6  -3  -2    5.71    0.31 
  -6  -3  -2    5.48    0.31 
  -6  -3  -2    5.83    0.32 
   6   3   2    5.20    0.27 
  -6   3  -2    5.50    0.19 
   6   3   2    5.35    0.23 
   6   3   2    4.90    0.26 
   6   3   2    5.38    0.27 
  -6   3  -2    5.67    0.23 
   6   3   2    5.15    0.30 
  -7  -3  -2    7.13    0.29 
  -7  -3  -2    6.95    0.27 
  -7  -3  -2    7.11    0.31 
  -7  -3  -2    7.49    0.31 
   7   3   2    6.85    0.29 
  -7   3  -2    7.28    0.26 
   7   3   2    6.64    0.29 
   7   3   2    7.17    0.30 
  -7   3  -2    7.32    0.26 
  -7  -4   2   20.75    0.66 
  -7  -4   2   19.69    0.64 
  -7  -4   2   18.79    0.66 
  -7  -4   2   19.27    0.60 
  -7   4   2   18.49    0.51 
   7   4  -2   18.44    0.63 
   7   4  -2   18.55    0.60 
  -7   4   2   18.19    0.59 
  -7   4   2   18.18    0.60 
  -7   4   2   17.61    0.59 
   7   4  -2   17.53    0.60 
   7   4  -2   18.67    0.58 
  -6  -4   2    8.24    0.34 
  -6  -4   2    8.31    0.38 
  -6  -4   2    8.15    0.26 
  -6  -4   2    6.82    0.38 
  -6  -4   2    8.22    0.34 
  -6  -4   2    6.92    0.39 
  -6  -4   2    8.07    0.33 
  -6   4   2    7.68    0.31 
   6   4  -2    7.72    0.37 
  -6   4   2    7.66    0.31 
  -6   4   2    7.47    0.31 
   6   4  -2    8.05    0.37 
  -6   4   2    7.75    0.27 
   6   4  -2    7.61    0.28 
   6   4  -2    8.03    0.27 
   6   4  -2    7.97    0.24 
   6   4  -2    7.95    0.32 
   6   4  -2    7.59    0.31 
   6   4  -2    8.01    0.40 
   6   4  -2    8.18    0.38 
   6   4  -2    7.81    0.20 
   6   4  -2    8.65    0.35 
   6   4  -2    7.71    0.33 
   5  -4  -2    0.70    0.13 
  -5  -4   2    0.73    0.18 
  -5  -4   2    1.20    0.23 
  -5  -4   2    0.29    0.07 
  -5  -4   2    0.65    0.19 
  -5  -4   2    0.61    0.15 
  -5  -4   2    0.31    0.10 
  -5  -4   2    0.51    0.14 
  -5  -4   2    0.31    0.15 
  -5  -4   2    0.55    0.19 
  -5  -4   2    0.32    0.18 
  -5  -4   2    0.50    0.13 
  -5   4   2    0.64    0.16 
   5   4  -2    0.89    0.16 
   5   4  -2    0.65    0.13 
   5   4  -2    0.69    0.16 
   5   4  -2    0.71    0.14 
   5   4  -2    0.65    0.08 
   5   4  -2    0.47    0.10 
   5   4  -2    1.01    0.19 
  -5   4   2    0.50    0.10 
   5   4  -2    0.41    0.11 
   5   4  -2    0.68    0.16 
   5   4  -2    0.31    0.07 
  -5   4   2    0.48    0.07 
  -5   4   2    0.71    0.11 
  -5   4   2    0.66    0.11 
   5   4  -2    0.92    0.21 
   5   4  -2    0.67    0.18 
   5   4  -2    0.26    0.10 
  -4  -4   2    9.19    0.45 
   4  -4  -2    7.91    0.40 
  -4  -4   2    9.74    0.55 
  -4  -4   2    9.11    0.44 
  -4  -4   2    8.77    0.41 
  -4  -4   2    7.72    0.53 
  -4  -4   2    9.34    0.40 
  -4  -4   2    8.07    0.48 
   4  -4  -2    9.40    0.37 
  -4  -4   2    9.64    0.41 
  -4  -4   2    9.38    0.44 
  -4  -4   2    9.61    0.56 
   4   4  -2    8.77    0.44 
   4   4  -2    7.13    0.55 
   4   4  -2    9.10    0.41 
   4   4  -2    8.83    0.57 
   4   4  -2    9.34    0.47 
   4   4  -2    8.61    0.38 
   4   4  -2    8.94    0.40 
   4   4  -2    8.80    0.38 
   4   4  -2    9.09    0.42 
  -3  -4   2   36.34    1.34 
  -3  -4   2   34.58    1.52 
  -3  -4   2   35.48    1.25 
  -3  -4   2   33.56    1.65 
   3  -4  -2   35.84    1.26 
  -3  -4   2   36.36    1.37 
  -3  -4   2   36.63    1.28 
  -3  -4   2   34.32    1.76 
  -3  -4   2   36.24    1.32 
  -3  -4   2   35.27    1.24 
  -3  -4   2   36.25    1.40 
   3  -4  -2   36.29    1.34 
   3   4  -2   31.03    1.38 
   3   4  -2   32.38    0.90 
   3   4  -2   33.18    1.11 
   3   4  -2   32.58    1.16 
  -3   4   2   33.73    1.31 
  -3   4   2   33.32    1.11 
   3   4  -2   33.71    1.25 
   3   4  -2   32.66    1.16 
   3   4  -2   32.28    1.17 
   3   4  -2   32.42    1.22 
   3   4  -2   34.26    1.70 
   3   4  -2   27.70    1.59 
   3   4  -2   32.64    1.36 
  -2  -4   2   17.69    0.87 
  -2  -4   2   17.32    0.71 
  -2  -4   2   18.74    0.74 
  -2  -4   2   17.13    0.66 
   2  -4  -2   17.71    0.65 
   2  -4  -2   18.21    0.71 
  -2  -4   2   18.03    0.70 
  -2  -4   2   17.30    0.79 
  -2  -4   2   17.75    0.66 
  -2  -4   2   18.22    0.69 
  -2  -4   2   18.17    0.81 
  -2  -4   2   16.87    0.65 
   2   4  -2   15.79    0.62 
  -2   4   2   16.24    0.59 
   2   4  -2   16.15    0.46 
   2   4  -2   17.51    0.72 
   2   4  -2   16.24    0.87 
   2   4  -2   16.65    0.66 
  -2   4   2   17.02    0.70 
   2   4  -2   16.46    0.61 
   1  -4  -2   15.93    0.65 
   1  -4  -2   16.07    0.60 
   1  -4  -2   16.84    0.77 
   1  -4  -2   15.88    0.62 
   1  -4  -2   14.78    0.70 
   1  -4  -2   17.37    0.66 
  -1  -4   2   16.19    0.65 
  -1  -4   2   15.89    0.59 
   1  -4  -2   15.86    0.71 
   1  -4  -2   16.11    0.61 
   1   4  -2   15.28    0.64 
  -1   4   2   15.60    0.65 
  -1   4   2   14.43    0.60 
   0  -4  -2   92.36    3.31 
   0  -4  -2   96.72    3.69 
   0  -4  -2   89.99    3.45 
   0  -4   2   97.53    3.40 
   0  -4  -2   97.20    3.75 
   0  -4  -2   94.98    3.42 
   0  -4  -2   93.60    3.35 
   0  -4  -2   95.62    4.13 
   0  -4  -2   93.46    3.25 
   0  -4  -2   89.69    3.13 
   0   4   2   83.66    3.25 
   0   4   2   90.49    3.53 
   0   4   2   91.36    4.44 
  -1  -4  -2    3.83    0.24 
  -1  -4  -2    4.10    0.26 
  -1  -4  -2    4.16    0.22 
  -1  -4  -2    3.85    0.24 
  -1  -4  -2    4.05    0.29 
  -1  -4  -2    4.07    0.24 
  -1  -4  -2    3.75    0.25 
  -1  -4  -2    4.24    0.30 
  -1  -4  -2    4.48    0.28 
  -1  -4  -2    3.87    0.21 
   1   4   2    3.43    0.28 
   1   4   2    3.37    0.21 
   1   4   2    3.63    0.28 
   1   4   2    3.31    0.21 
   1   4   2    3.33    0.23 
  -2  -4  -2    9.32    0.49 
  -2  -4  -2    8.80    0.40 
  -2  -4  -2    9.78    0.44 
  -2  -4  -2    9.09    0.50 
  -2  -4  -2    7.48    0.56 
  -2  -4  -2    9.18    0.39 
  -2  -4  -2   10.11    0.43 
  -2  -4  -2    9.18    0.46 
  -2  -4  -2    9.40    0.41 
  -2  -4  -2    9.02    0.39 
  -2  -4  -2    9.96    0.53 
   2   4   2    7.37    0.42 
   2   4   2    9.29    0.55 
   2   4   2    8.36    0.43 
   2   4   2    8.36    0.53 
   2   4   2    8.21    0.37 
   2   4   2    8.42    0.35 
   2   4   2    8.52    0.40 
   2   4   2    8.48    0.39 
   2   4   2    8.56    0.38 
  -3  -4  -2    5.15    0.37 
  -3  -4  -2    4.75    0.31 
  -3  -4  -2    4.81    0.37 
  -3  -4  -2    5.25    0.27 
  -3  -4  -2    4.53    0.28 
  -3  -4  -2    5.14    0.29 
  -3  -4  -2    4.87    0.29 
  -3  -4  -2    4.83    0.29 
  -3  -4  -2    4.63    0.31 
  -3  -4  -2    5.19    0.29 
  -3  -4  -2    4.61    0.38 
   3   4   2    4.86    0.40 
   3   4   2    4.22    0.26 
   3   4   2    4.48    0.26 
   3   4   2    4.63    0.38 
   3   4   2    3.93    0.26 
   3   4   2    4.49    0.24 
   3   4   2    4.47    0.28 
   3   4   2    4.47    0.21 
   3   4   2    4.42    0.29 
   3   4   2    3.70    0.29 
  -4  -4  -2   14.81    0.60 
  -4  -4  -2   15.50    0.59 
  -4  -4  -2   15.32    0.65 
  -4  -4  -2   13.75    0.80 
  -4  -4  -2   14.52    0.66 
  -4  -4  -2   15.36    0.84 
  -4  -4  -2   15.70    0.61 
  -4  -4  -2   15.97    0.67 
  -4  -4  -2   14.59    0.64 
  -4  -4  -2   16.13    0.63 
   4   4   2   14.69    0.42 
   4   4   2   14.46    0.65 
   4   4   2   12.79    0.88 
   4   4   2   15.26    0.61 
   4   4   2   14.74    0.62 
   4   4   2   15.23    0.51 
   4   4   2   14.31    0.73 
   4   4   2   14.87    0.58 
   4   4   2   14.97    0.59 
   4   4   2   15.12    0.61 
  -5  -4  -2   12.21    0.37 
  -5  -4  -2   12.18    0.40 
  -5  -4  -2   12.72    0.46 
  -5  -4  -2   12.96    0.43 
  -5  -4  -2   12.72    0.56 
  -5  -4  -2   12.11    0.52 
  -5  -4  -2   12.39    0.53 
  -5  -4  -2   12.63    0.46 
  -5  -4  -2   13.58    0.49 
   5   4   2   11.80    0.50 
   5   4   2   11.10    0.51 
   5   4   2   11.85    0.33 
   5   4   2   11.91    0.43 
   5   4   2   11.89    0.43 
   5   4   2   11.89    0.44 
   5   4   2   11.73    0.51 
  -5   4  -2   11.65    0.39 
   5   4   2   11.81    0.45 
   5   4   2   11.94    0.37 
   5   4   2   12.43    0.47 
  -6  -4  -2   10.34    0.28 
  -6  -4  -2   10.34    0.39 
  -6  -4  -2    9.82    0.39 
  -6  -4  -2    9.89    0.38 
  -6  -4  -2   10.66    0.35 
  -6  -4  -2    9.91    0.37 
   6   4   2    9.64    0.43 
   6   4   2    9.41    0.37 
   6   4   2   10.41    0.38 
   6   4   2    9.85    0.27 
   6   4   2   10.28    0.40 
   6   4   2    9.77    0.36 
  -7  -4  -2    0.13    0.08 
  -7  -4  -2    0.27    0.07 
  -7  -4  -2    0.09    0.06 
   7   4   2    0.15    0.06 
   7   4   2    0.12    0.04 
   7   4   2    0.12    0.06 
  -6  -5   2    9.25    0.36 
  -6  -5   2    9.33    0.28 
   6   5  -2    8.91    0.35 
   6   5  -2    9.03    0.29 
   6   5  -2    9.25    0.32 
   6   5  -2    8.92    0.26 
   6   5  -2    9.04    0.27 
  -6   5   2    9.16    0.31 
   6   5  -2    8.87    0.28 
   6   5  -2    8.80    0.33 
  -5  -5   2    2.07    0.28 
  -5  -5   2    2.09    0.14 
  -5  -5   2    1.95    0.22 
  -5  -5   2    2.11    0.21 
  -5  -5   2    2.05    0.23 
  -5  -5   2    2.06    0.17 
   5   5  -2    1.95    0.16 
   5   5  -2    2.42    0.22 
  -5   5   2    1.88    0.10 
  -5   5   2    1.97    0.15 
   5   5  -2    2.21    0.16 
   5   5  -2    2.44    0.17 
   5   5  -2    1.96    0.18 
   5   5  -2    2.03    0.18 
  -5   5   2    1.75    0.15 
   5   5  -2    2.48    0.13 
   5   5  -2    1.88    0.20 
   5   5  -2    2.11    0.20 
   5   5  -2    2.09    0.17 
   5   5  -2    1.97    0.13 
   5   5  -2    2.13    0.14 
   5   5  -2    2.20    0.13 
  -4  -5   2   23.86    1.04 
  -4  -5   2   27.82    1.00 
   4  -5  -2   28.39    0.99 
  -4  -5   2   25.72    0.98 
  -4  -5   2   27.77    0.87 
  -4  -5   2   27.68    1.08 
  -4  -5   2   27.42    1.38 
   4   5  -2   25.30    0.86 
   4   5  -2   25.40    0.76 
   4   5  -2   26.36    0.97 
   4   5  -2   26.20    0.73 
   4   5  -2   27.34    0.96 
   4   5  -2   26.24    1.04 
   4   5  -2   25.88    0.69 
   4   5  -2   26.06    0.86 
   4   5  -2   25.26    0.81 
   4   5  -2   26.04    0.96 
  -4   5   2   26.37    0.75 
   4   5  -2   26.65    0.73 
  -4   5   2   26.40    0.85 
   4   5  -2   26.47    0.85 
   4   5  -2   26.11    0.89 
   4   5  -2   25.00    1.00 
   4   5  -2   25.60    0.84 
  -4   5   2   28.54    0.85 
  -3  -5   2    5.81    0.29 
  -3  -5   2    6.11    0.32 
   3  -5  -2    5.97    0.28 
  -3  -5   2    5.89    0.42 
  -3  -5   2    5.99    0.41 
  -3  -5   2    6.22    0.34 
  -3  -5   2    6.28    0.34 
  -3  -5   2    5.73    0.34 
  -3  -5   2    6.34    0.34 
   3   5  -2    5.56    0.26 
   3   5  -2    5.81    0.30 
   3   5  -2    5.47    0.16 
   3   5  -2    5.78    0.28 
   3   5  -2    5.30    0.28 
   3   5  -2    4.94    0.32 
   3   5  -2    5.87    0.30 
  -2  -5   2    0.73    0.19 
   2  -5  -2    0.64    0.12 
  -2  -5   2    0.75    0.16 
  -2  -5   2    0.39    0.14 
  -2  -5   2    0.66    0.15 
  -2  -5   2    0.57    0.14 
  -2  -5   2    0.69    0.19 
  -2  -5   2    0.50    0.13 
   2  -5  -2    0.57    0.15 
   2   5  -2    0.38    0.12 
   2   5  -2    0.42    0.10 
   2   5  -2    0.38    0.10 
  -1  -5   2    3.32    0.20 
   1  -5  -2    3.67    0.25 
  -1  -5   2    3.19    0.24 
   1  -5  -2    3.42    0.20 
  -1   5   2    2.96    0.19 
   1   5  -2    2.92    0.13 
  -1   5   2    2.96    0.16 
   0  -5  -2   20.71    0.83 
   0  -5  -2   20.92    0.77 
   0  -5  -2   20.73    0.80 
   0  -5  -2   20.26    0.75 
   0  -5  -2   20.26    0.75 
   0  -5  -2   21.32    0.80 
   0  -5  -2   20.84    1.00 
   0  -5  -2   20.06    0.85 
   0   5   2   18.46    0.73 
   0   5   2   18.90    0.67 
   0   5   2   17.83    0.68 
   0   5   2   17.73    0.69 
   0   5   2   18.51    0.80 
  -1  -5  -2   15.93    0.64 
  -1  -5  -2   14.88    0.84 
  -1  -5  -2   16.17    0.61 
  -1  -5  -2   16.00    0.67 
  -1  -5  -2   15.87    0.65 
  -1  -5  -2   16.06    0.61 
  -1  -5  -2   16.27    0.62 
  -1  -5  -2   15.55    0.70 
  -1  -5  -2   15.31    0.81 
   1   5   2   14.80    0.57 
   1   5   2   14.63    0.42 
   1   5   2   15.20    0.62 
   1   5   2   13.79    0.67 
   1   5   2   14.93    0.58 
   1   5   2   14.62    0.57 
   1   5   2   14.42    0.58 
  -2  -5  -2   25.23    0.94 
  -2  -5  -2   25.73    1.04 
  -2  -5  -2   24.19    0.99 
  -2  -5  -2   26.39    0.93 
  -2  -5  -2   25.14    0.98 
  -2  -5  -2   24.04    1.22 
  -2  -5  -2   25.31    1.30 
  -2  -5  -2   25.18    0.89 
  -2  -5  -2   25.74    1.02 
   2   5   2   25.40    0.95 
   2   5   2   22.96    0.87 
   2   5   2   21.16    1.02 
   2   5   2   23.24    0.90 
   2   5   2   24.37    0.83 
   2   5   2   20.61    1.25 
   2   5   2   23.92    0.67 
   2   5   2   24.61    0.87 
   2   5   2   24.04    0.88 
  -3  -5  -2    0.61    0.18 
  -3  -5  -2    0.08    0.12 
  -3  -5  -2    0.38    0.14 
  -3  -5  -2    0.26    0.11 
  -3  -5  -2    0.16    0.14 
  -3  -5  -2    0.37    0.15 
  -3  -5  -2    0.35    0.09 
  -3  -5  -2    0.34    0.20 
  -3  -5  -2    0.69    0.19 
  -3  -5  -2    0.31    0.14 
   3   5   2    0.44    0.12 
   3   5   2    0.16    0.10 
   3   5   2    0.25    0.10 
   3   5   2    0.44    0.12 
   3   5   2    0.33    0.11 
   3   5   2    0.23    0.14 
   3   5   2    0.36    0.12 
   3   5   2    0.28    0.13 
   3   5   2    0.30    0.12 
   3   5   2    0.41    0.09 
   3   5   2    0.28    0.10 
  -4  -5  -2    3.74    0.17 
  -4  -5  -2    3.23    0.19 
  -4  -5  -2    3.73    0.27 
  -4  -5  -2    3.66    0.33 
  -4  -5  -2    3.42    0.25 
  -4  -5  -2    4.00    0.26 
  -4  -5  -2    3.65    0.26 
  -4  -5  -2    3.57    0.24 
   4   5   2    3.08    0.21 
   4   5   2    3.31    0.25 
   4   5   2    3.54    0.15 
   4   5   2    3.30    0.22 
   4   5   2    3.34    0.24 
   4   5   2    3.74    0.27 
   4   5   2    3.16    0.23 
   4   5   2    3.38    0.21 
   4   5   2    3.51    0.24 
   4   5   2    3.32    0.18 
  -5  -5  -2    0.87    0.14 
  -5  -5  -2    0.71    0.15 
  -5  -5  -2    1.08    0.16 
  -5  -5  -2    0.61    0.10 
  -5  -5  -2    0.94    0.09 
   5   5   2    0.68    0.16 
   5   5   2    0.78    0.15 
   5   5   2    0.61    0.12 
   5   5   2    0.67    0.16 
   5   5   2    0.67    0.17 
   5   5   2    0.35    0.11 
   5   5   2    0.62    0.16 
   5   5   2    0.86    0.15 
  -6  -5  -2    2.54    0.15 
  -6  -5  -2    2.34    0.10 
  -6  -5  -2    2.58    0.14 
  -6  -5  -2    2.52    0.16 
   6   5   2    2.23    0.14 
   6   5   2    2.41    0.14 
   6   5   2    2.00    0.15 
  -5  -6   2    4.78    0.22 
  -5  -6   2    5.01    0.20 
  -5  -6   2    4.83    0.18 
   5   6  -2    4.45    0.18 
   5   6  -2    4.58    0.16 
   5   6  -2    4.59    0.18 
   5   6  -2    4.22    0.21 
   5   6  -2    4.74    0.14 
  -4  -6   2    3.56    0.19 
  -4  -6   2    3.17    0.30 
   4   6  -2    3.67    0.19 
   4   6  -2    3.89    0.20 
   4   6  -2    3.59    0.12 
   4   6  -2    3.71    0.19 
   4   6  -2    3.69    0.19 
   4   6  -2    4.02    0.18 
   4   6  -2    3.85    0.20 
  -4   6   2    3.74    0.15 
   4   6  -2    3.67    0.20 
  -3  -6   2    0.54    0.14 
  -3  -6   2    0.18    0.11 
  -3  -6   2    0.01    0.14 
   3   6  -2    0.30    0.09 
   3   6  -2    0.20    0.09 
  -3   6   2    0.32    0.07 
   3   6  -2    0.25    0.06 
   3   6  -2    0.31    0.07 
   3   6  -2    0.31    0.08 
  -3   6   2    0.34    0.06 
  -3   6   2    0.35    0.08 
   3   6  -2    0.35    0.09 
  -2   6   2    1.05    0.13 
   2   6  -2    1.19    0.13 
  -2   6   2    1.42    0.13 
   2   6  -2    1.41    0.12 
   2   6  -2    1.23    0.12 
  -2   6   2    1.14    0.11 
  -2   6   2    1.11    0.12 
   2   6  -2    1.14    0.14 
   2   6  -2    1.35    0.14 
  -1  -6   2    5.32    0.26 
   1  -6  -2    4.99    0.26 
  -1   6   2    4.92    0.23 
  -1   6   2    4.88    0.19 
   1   6  -2    5.10    0.23 
   1   6  -2    4.92    0.22 
   1   6  -2    5.08    0.19 
   1   6  -2    5.40    0.22 
  -1   6   2    4.94    0.20 
  -1   6   2    5.24    0.23 
   0  -6  -2   17.57    0.68 
   0  -6  -2   17.27    0.66 
   0   6   2   16.11    0.49 
   0   6  -2   16.67    0.46 
   0   6   2   16.09    0.51 
   0   6  -2   16.79    0.54 
   0   6   2   16.24    0.56 
   0   6   2   15.76    0.53 
   0   6   2   15.83    0.55 
   0   6   2   15.74    0.55 
  -1  -6  -2   35.63    1.33 
  -1  -6  -2   39.45    1.48 
  -1  -6  -2   39.30    1.42 
  -1  -6  -2   39.73    1.39 
  -1  -6  -2   37.05    1.21 
  -1  -6  -2   39.10    1.31 
  -1  -6  -2   38.68    1.91 
   1   6   2   37.83    1.31 
   1   6   2   37.71    1.20 
   1   6   2   38.41    1.33 
   1   6   2   37.16    1.13 
   1   6   2   37.02    1.00 
   1   6   2   37.27    1.19 
   1   6   2   37.85    1.16 
  -1   6  -2   38.27    1.18 
  -2  -6  -2   23.84    0.73 
  -2  -6  -2   22.13    0.84 
  -2  -6  -2   23.26    0.83 
  -2  -6  -2   20.24    1.15 
  -2  -6  -2   22.60    0.80 
   2   6   2   21.96    0.72 
   2   6   2   21.13    0.87 
   2   6   2   22.00    0.82 
   2   6   2   22.36    0.69 
   2   6   2   22.04    0.73 
   2   6   2   22.65    0.71 
   2   6   2   22.86    0.61 
   2   6   2   21.61    0.56 
   2   6   2   22.66    0.82 
   2   6   2   22.02    0.74 
   2   6   2   22.05    0.81 
  -3  -6  -2    8.32    0.52 
  -3  -6  -2    8.84    0.29 
  -3  -6  -2    8.25    0.42 
  -3  -6  -2    8.70    0.32 
   3   6   2    8.61    0.31 
   3   6   2    8.59    0.38 
   3   6   2    8.19    0.33 
   3   6   2    8.19    0.27 
   3   6   2    8.42    0.37 
   3   6   2    8.14    0.33 
   3   6   2    8.72    0.27 
   3   6   2    8.75    0.32 
   3   6   2    8.49    0.24 
   3   6   2    8.83    0.33 
   3   6   2    8.66    0.29 
   3   6   2    8.35    0.36 
   3   6   2    8.47    0.36 
   3   6   2    8.91    0.34 
  -4  -6  -2    0.07    0.05 
  -4  -6  -2   -0.01    0.08 
  -4  -6  -2    0.12    0.06 
   4   6   2    0.08    0.07 
   4   6   2    0.14    0.05 
   4   6   2    0.20    0.05 
   4   6   2    0.20    0.09 
   4   6   2    0.08    0.08 
   4   6   2    0.10    0.07 
   4   6   2    0.14    0.05 
  -5  -6  -2    1.93    0.14 
  -5  -6  -2    1.54    0.13 
   5   6   2    1.52    0.09 
   5   6   2    1.47    0.08 
   5   6   2    1.55    0.11 
   5   6   2    1.60    0.11 
   5   6   2    1.61    0.12 
  -3  -7   2    2.15    0.13 
   3   7  -2    2.12    0.12 
   3   7  -2    2.22    0.10 
   3   7  -2    2.23    0.13 
   2   7  -2    2.69    0.14 
  -2   7   2    2.60    0.12 
   2   7  -2    2.53    0.11 
   2   7  -2    2.76    0.14 
  -2   7   2    2.59    0.12 
  -1   7   2    4.78    0.20 
  -1   7   2    4.92    0.16 
  -1   7   2    4.65    0.18 
   1   7  -2    4.52    0.19 
  -1   7   2    4.75    0.19 
   0   7   2    8.53    0.31 
   0   7   2    8.39    0.27 
   0   7   2    8.50    0.30 
   0   7   2    8.89    0.32 
  -1  -7  -2    4.32    0.19 
   1   7   2    4.22    0.16 
   1   7   2    4.44    0.17 
   1   7   2    4.44    0.19 
   1   7   2    4.32    0.17 
   1   7   2    4.42    0.19 
  -2  -7  -2    9.28    0.32 
   2   7   2    8.66    0.32 
   2   7   2    8.44    0.31 
   2   7   2    9.27    0.30 
   2   7   2    8.73    0.28 
   2   7   2    9.04    0.28 
   2   7   2    8.78    0.28 
  -3  -7  -2    9.58    0.33 
  -3  -7  -2    9.92    0.29 
   3   7   2    9.26    0.30 
   3   7   2    9.62    0.31 
   3   7   2    9.31    0.27 
   3   7   2    9.32    0.32 
   3   7   2    9.05    0.32 
   3   7   2    9.59    0.29 
  -9   0   3    0.37    0.08 
  -9   0   3    0.29    0.09 
  -9   0   3    0.13    0.07 
  -9   0   3    0.30    0.07 
   9   0  -3    0.45    0.06 
  -9   0   3    0.32    0.07 
  -9   0   3    0.23    0.04 
   9   0  -3    0.52    0.11 
  -8   0   3    8.88    0.40 
   8   0  -3    9.40    0.37 
  -8   0   3    9.56    0.43 
  -8   0   3    8.95    0.29 
  -8   0   3    8.92    0.34 
  -8   0   3    9.21    0.29 
  -8   0   3    9.32    0.37 
  -8   0   3    9.17    0.41 
  -8   0   3    8.94    0.28 
  -8   0   3    8.77    0.33 
  -8   0   3    9.38    0.31 
  -8   0   3    9.18    0.37 
   8   0  -3    9.31    0.55 
   8   0  -3    9.07    0.30 
  -8   0   3    9.09    0.38 
   8   0  -3    9.05    0.34 
  -7   0   3    3.47    0.29 
   7   0  -3    2.61    0.24 
  -7   0   3    3.09    0.22 
  -7   0   3    3.13    0.25 
   7   0  -3    2.93    0.24 
   7   0  -3    2.56    0.19 
  -7   0   3    2.82    0.25 
  -7   0   3    2.65    0.20 
  -7   0   3    3.18    0.26 
  -7   0   3    2.80    0.24 
   7   0  -3    2.94    0.23 
  -7   0   3    3.14    0.28 
  -7   0   3    2.81    0.18 
   7   0  -3    2.60    0.23 
   7   0  -3    2.99    0.33 
   7   0  -3    3.03    0.17 
  -7   0   3    2.70    0.25 
   7   0  -3    3.29    0.26 
   7   0  -3    3.01    0.25 
  -7   0   3    3.09    0.28 
  -7   0   3    2.87    0.24 
  -7   0   3    3.42    0.26 
  -6   0   3    0.86    0.19 
   6   0  -3    0.96    0.25 
  -6   0   3    0.54    0.13 
  -6   0   3    0.94    0.22 
  -6   0   3    0.62    0.17 
  -6   0   3    0.32    0.26 
   6   0  -3    0.71    0.21 
  -6   0   3    0.77    0.22 
  -6   0   3    0.67    0.19 
  -6   0   3    0.81    0.18 
  -6   0   3    0.92    0.18 
  -6   0   3    0.78    0.20 
  -6   0   3    0.55    0.14 
   6   0  -3    0.91    0.19 
   6   0  -3    1.00    0.19 
   6   0  -3    0.83    0.15 
   6   0  -3    1.05    0.17 
   6   0  -3    1.05    0.17 
   6   0  -3    0.76    0.18 
  -6   0   3    0.77    0.18 
   5   0  -3    1.31    0.17 
   5   0  -3    1.64    0.17 
  -5   0   3    1.31    0.18 
   5   0  -3    1.42    0.20 
   5   0  -3    1.39    0.17 
  -5   0   3    1.38    0.19 
  -5   0   3    1.38    0.15 
   5   0  -3    1.63    0.16 
  -5   0   3    1.40    0.17 
   5   0  -3    1.57    0.15 
  -5   0   3    1.57    0.16 
   5   0  -3    2.18    0.20 
  -5   0   3    1.47    0.11 
  -5   0   3    1.53    0.24 
  -5   0   3    1.33    0.17 
   5   0  -3    1.81    0.20 
  -5   0   3    1.57    0.17 
   5   0  -3    1.57    0.15 
   5   0  -3    1.40    0.17 
  -5   0   3    1.35    0.25 
   4   0  -3   25.65    0.94 
  -4   0   3   25.55    1.28 
  -4   0   3   25.03    1.11 
   4   0  -3   25.84    1.08 
   4   0  -3   25.16    1.06 
   4   0  -3   25.52    0.98 
   4   0  -3   26.03    1.17 
   4   0  -3   24.37    0.98 
  -4   0   3   26.58    1.36 
   4   0  -3   25.27    0.95 
  -4   0   3   26.10    0.95 
   3   0  -3   52.28    1.88 
   3   0  -3   51.37    2.02 
  -3   0   3   49.43    2.43 
  -3   0   3   52.14    2.07 
   3   0  -3   51.73    2.44 
  -3   0   3   53.13    2.04 
   3   0  -3   52.06    2.26 
   3   0  -3   52.25    2.05 
   3   0  -3   47.48    1.86 
  -2   0   3   18.53    0.96 
   2   0  -3   19.55    0.80 
   2   0  -3   19.46    0.75 
   2   0  -3   19.54    0.81 
  -2   0   3   21.62    0.82 
   2   0  -3   20.30    0.96 
  -2   0   3   19.01    0.80 
  -2   0   3   18.86    0.75 
   1   0  -3  126.60    4.77 
   1   0  -3  126.36    4.34 
  -1   0   3  122.47    4.78 
   1   0  -3  121.10    4.81 
  -1   0   3  124.86    4.34 
   0   0  -3   12.01    0.50 
   0   0   3   12.92    0.53 
   0   0  -3   13.54    0.54 
   0   0   3   13.66    0.50 
   1   0   3    1.42    0.12 
   1   0   3    1.23    0.11 
   1   0   3    1.26    0.12 
  -1   0  -3    1.22    0.11 
  -1   0  -3    1.25    0.14 
  -2   0  -3  162.74    6.28 
   2   0   3  160.61    5.80 
  -2   0  -3  168.65    8.08 
  -2   0  -3  155.62    6.38 
   2   0   3  160.71    6.23 
  -2   0  -3  160.81    7.49 
   2   0   3  169.29    5.67 
   2   0   3  162.41    6.33 
  -2   0  -3  159.01    6.70 
   3   0   3   33.32    1.21 
   3   0   3   34.25    1.26 
  -3   0  -3   33.62    1.36 
  -3   0  -3   33.74    1.42 
   3   0   3   32.19    1.18 
   3   0   3   31.67    1.26 
   3   0   3   34.35    1.51 
  -3   0  -3   34.50    1.72 
   3   0   3   34.78    1.26 
  -3   0  -3   34.20    1.62 
   3   0   3   34.25    1.38 
   3   0   3   32.89    1.35 
  -3   0  -3   33.10    1.37 
   3   0   3   33.85    1.22 
   4   0   3   37.10    1.33 
   4   0   3   36.52    1.65 
  -4   0  -3   36.43    1.39 
  -4   0  -3   37.92    1.88 
  -4   0  -3   36.97    1.54 
   4   0   3   36.71    1.39 
   4   0   3   37.24    1.34 
   4   0   3   35.78    1.25 
   4   0   3   36.77    1.29 
   4   0   3   34.55    1.38 
   4   0   3   34.13    1.51 
  -4   0  -3   37.26    1.77 
  -4   0  -3   36.00    1.50 
   4   0   3   37.38    1.49 
   5   0   3   40.56    1.40 
   5   0   3   41.69    1.50 
   5   0   3   40.34    1.54 
  -5   0  -3   39.83    1.37 
  -5   0  -3   39.91    2.07 
   5   0   3   38.39    1.55 
  -5   0  -3   41.65    1.54 
   5   0   3   38.53    1.69 
   5   0   3   42.26    1.44 
  -5   0  -3   39.08    1.42 
  -5   0  -3   39.35    1.10 
  -5   0  -3   42.15    1.44 
   5   0   3   41.19    1.85 
   5   0   3   41.76    1.48 
   5   0   3   37.87    2.00 
  -5   0  -3   41.48    1.67 
   6   0   3  112.92    3.97 
   6   0   3  107.41    3.59 
  -6   0  -3  105.95    3.28 
  -6   0  -3  104.56    3.21 
   6   0   3  104.27    3.84 
  -6   0  -3  106.21    2.69 
   6   0   3  109.28    3.73 
   6   0   3  104.23    3.29 
  -6   0  -3  109.00    3.43 
  -6   0  -3  102.52    3.11 
   6   0   3  109.41    3.80 
  -6   0  -3  110.11    3.68 
   6   0   3  108.05    5.17 
  -6   0  -3  107.46    2.81 
  -6   0  -3  102.60    3.95 
  -6   0  -3  109.14    2.84 
  -6   0  -3  113.78    3.70 
  -6   0  -3  105.96    3.30 
  -6   0  -3  108.02    3.65 
  -6   0  -3  104.86    3.32 
  -7   0  -3    0.22    0.10 
  -7   0  -3    0.22    0.09 
  -7   0  -3    0.30    0.10 
  -7   0  -3    0.18    0.06 
  -7   0  -3    0.08    0.10 
   7   0   3    0.15    0.14 
  -7   0  -3    0.21    0.10 
  -7   0  -3    0.08    0.08 
  -7   0  -3    0.10    0.10 
   7   0   3    0.03    0.10 
   7   0   3    0.07    0.07 
  -7   0  -3    0.13    0.11 
  -8   0  -3    1.62    0.10 
   8   0   3    1.71    0.11 
   8   0   3    1.48    0.10 
  -8   0  -3    1.59    0.12 
  -8   0  -3    1.62    0.12 
  -8   0  -3    1.47    0.15 
  -8   0  -3    1.71    0.13 
  -8   0  -3    1.42    0.10 
  -8   0  -3    1.53    0.12 
   9  -1  -3    1.98    0.10 
   9  -1  -3    1.88    0.11 
  -9  -1   3    1.71    0.11 
  -9  -1   3    1.91    0.15 
  -9  -1   3    2.18    0.14 
  -9  -1   3    1.94    0.08 
  -9   1   3    2.12    0.11 
  -9   1   3    1.80    0.09 
  -9   1   3    2.20    0.12 
   9   1  -3    1.92    0.12 
  -9   1   3    1.99    0.13 
  -9   1   3    2.10    0.13 
  -9   1   3    1.45    0.12 
   9   1  -3    1.74    0.13 
   8  -1  -3    8.75    0.33 
  -8  -1   3    7.93    0.40 
  -8  -1   3    8.56    0.31 
  -8  -1   3    9.12    0.34 
   8  -1  -3    8.62    0.29 
  -8  -1   3    8.60    0.40 
  -8  -1   3    7.99    0.41 
  -8  -1   3    8.71    0.36 
   8  -1  -3    8.76    0.53 
  -8  -1   3    9.37    0.26 
  -8  -1   3    8.80    0.38 
  -8  -1   3    9.07    0.37 
  -8   1   3    8.58    0.26 
  -8   1   3    8.32    0.37 
  -8   1   3    7.54    0.36 
  -8   1   3    8.50    0.29 
   8   1  -3    8.38    0.34 
  -8   1   3    8.28    0.36 
   8   1  -3    8.56    0.26 
   8   1  -3    8.61    0.35 
  -8   1   3    8.63    0.34 
  -8   1   3    7.91    0.22 
  -8   1   3    8.82    0.32 
  -8   1   3    8.77    0.34 
  -8   1   3    8.68    0.31 
  -8   1   3    8.38    0.33 
  -8   1   3    7.83    0.33 
  -8   1   3    8.24    0.34 
  -7  -1   3   18.36    0.71 
  -7  -1   3   17.31    0.71 
   7  -1  -3   19.65    0.71 
  -7  -1   3   19.06    0.71 
  -7  -1   3   18.55    0.65 
  -7  -1   3   18.52    0.74 
   7  -1  -3   19.40    1.00 
  -7  -1   3   18.79    0.81 
  -7  -1   3   19.59    0.76 
  -7  -1   3   18.64    0.57 
   7  -1  -3   19.42    0.79 
  -7  -1   3   18.86    0.58 
  -7  -1   3   18.95    0.69 
  -7  -1   3   18.77    0.77 
  -7  -1   3   18.55    0.47 
  -7  -1   3   19.41    0.63 
  -7  -1   3   18.54    0.64 
   7  -1  -3   15.87    0.75 
  -7  -1   3   18.52    0.54 
   7  -1  -3   19.06    0.63 
   7  -1  -3   17.10    0.74 
  -7  -1   3   18.84    0.62 
   7   1  -3   17.52    0.70 
  -7   1   3   18.02    0.62 
  -7   1   3   18.29    0.70 
  -7   1   3   17.47    0.76 
  -7   1   3   18.26    0.71 
   7   1  -3   17.90    0.65 
  -7   1   3   18.41    0.50 
  -7   1   3   17.47    0.63 
   7   1  -3   18.11    0.54 
  -7   1   3   17.65    0.57 
  -7   1   3   18.54    0.52 
  -7   1   3   17.90    0.62 
  -7   1   3   17.65    0.64 
   7   1  -3   17.91    0.74 
  -7   1   3   19.24    0.71 
   7   1  -3   17.24    0.76 
  -7   1   3   17.92    0.72 
  -7   1   3   18.11    0.53 
  -7   1   3   19.15    0.61 
   7   1  -3   18.66    0.97 
   7   1  -3   16.83    0.74 
  -7   1   3   18.79    0.70 
   7   1  -3   18.21    0.73 
   7   1  -3   17.53    0.75 
  -7   1   3   18.38    0.65 
  -6  -1   3    2.60    0.14 
  -6  -1   3    2.78    0.24 
   6  -1  -3    2.22    0.23 
  -6  -1   3    2.36    0.27 
  -6  -1   3    2.28    0.24 
   6  -1  -3    2.29    0.20 
  -6  -1   3    2.77    0.35 
  -6  -1   3    1.99    0.23 
   6  -1  -3    2.28    0.21 
   6  -1  -3    2.24    0.20 
  -6  -1   3    2.35    0.20 
  -6  -1   3    2.82    0.26 
   6  -1  -3    2.15    0.22 
   6  -1  -3    1.83    0.23 
  -6  -1   3    2.58    0.32 
   6  -1  -3    2.39    0.19 
   6  -1  -3    2.20    0.28 
  -6  -1   3    2.29    0.24 
  -6  -1   3    2.53    0.24 
  -6  -1   3    2.26    0.18 
   6  -1  -3    2.23    0.26 
  -6  -1   3    2.19    0.25 
   6   1  -3    2.15    0.21 
  -6   1   3    2.26    0.20 
  -6   1   3    1.83    0.24 
   6   1  -3    2.33    0.22 
  -6   1   3    2.02    0.17 
  -6   1   3    2.53    0.23 
  -6   1   3    1.90    0.21 
  -6   1   3    2.20    0.20 
   6   1  -3    2.47    0.22 
  -6   1   3    2.20    0.23 
  -6   1   3    1.49    0.25 
   6   1  -3    2.08    0.25 
  -6   1   3    1.99    0.17 
  -6   1   3    1.98    0.22 
   6   1  -3    2.51    0.25 
   6   1  -3    2.20    0.19 
  -6   1   3    2.44    0.24 
   6   1  -3    2.17    0.31 
   6   1  -3    2.67    0.22 
   6   1  -3    2.41    0.23 
  -6   1   3    2.16    0.24 
  -5  -1   3   30.02    1.07 
   5  -1  -3   30.77    1.18 
   5  -1  -3   29.43    1.10 
   5  -1  -3   31.45    1.19 
  -5  -1   3   30.38    0.88 
  -5  -1   3   31.38    1.14 
  -5  -1   3   29.82    1.37 
  -5  -1   3   31.56    1.13 
   5  -1  -3   30.45    1.28 
   5  -1  -3   30.51    1.13 
   5  -1  -3   32.05    1.30 
  -5  -1   3   29.52    1.07 
   5  -1  -3   30.10    1.07 
   5  -1  -3   30.65    1.14 
  -5  -1   3   29.32    1.04 
   5  -1  -3   30.15    1.40 
  -5  -1   3   33.00    1.57 
  -5   1   3   30.77    1.29 
  -5   1   3   31.08    1.57 
   5   1  -3   29.41    1.10 
   5   1  -3   29.48    1.10 
   5   1  -3   31.71    1.28 
  -5   1   3   28.04    1.03 
   5   1  -3   30.48    1.52 
   5   1  -3   29.85    1.05 
   5   1  -3   31.01    1.12 
  -5   1   3   30.50    1.16 
  -5   1   3   29.25    1.05 
   5   1  -3   27.08    1.25 
  -5   1   3   29.12    1.02 
   5   1  -3   31.59    1.13 
  -5   1   3   28.05    1.48 
  -5   1   3   28.87    1.07 
   5   1  -3   30.30    1.15 
  -5   1   3   27.38    1.25 
   5   1  -3   30.71    1.38 
   4  -1  -3    1.96    0.14 
   4  -1  -3    1.95    0.18 
   4  -1  -3    2.11    0.19 
  -4  -1   3    1.85    0.17 
   4  -1  -3    1.84    0.15 
  -4  -1   3    2.17    0.26 
  -4  -1   3    1.90    0.18 
   4  -1  -3    2.13    0.17 
  -4  -1   3    1.85    0.21 
  -4  -1   3    2.10    0.17 
  -4  -1   3    2.02    0.17 
   4  -1  -3    2.15    0.14 
   4  -1  -3    2.00    0.16 
   4  -1  -3    1.90    0.19 
  -4  -1   3    2.17    0.21 
  -4  -1   3    2.02    0.16 
   4   1  -3    1.84    0.18 
  -4   1   3    2.24    0.18 
  -4   1   3    2.16    0.22 
   4   1  -3    2.05    0.15 
  -4   1   3    2.08    0.21 
   4   1  -3    2.01    0.23 
   4   1  -3    1.90    0.17 
  -4   1   3    1.90    0.18 
   4   1  -3    2.30    0.19 
   4   1  -3    2.04    0.16 
   4   1  -3    2.04    0.15 
  -4   1   3    1.72    0.15 
  -4   1   3    1.93    0.17 
   4   1  -3    2.06    0.18 
  -3  -1   3  236.52    9.35 
   3  -1  -3  236.46    8.36 
   3  -1  -3  235.25    9.33 
   3  -1  -3  238.26    8.54 
  -3  -1   3  239.24   10.36 
   3  -1  -3  247.28    9.19 
  -3  -1   3  246.70    9.21 
  -3  -1   3  233.06    8.56 
  -3  -1   3  238.96   11.06 
   3  -1  -3  241.42   10.35 
   3   1  -3  212.03    9.38 
   3   1  -3  218.33    8.83 
  -3   1   3  241.36   10.46 
  -3   1   3  228.35   11.27 
  -3   1   3  231.75    9.36 
   3   1  -3  231.93    8.70 
  -3   1   3  225.56    8.91 
   3   1  -3  233.25   10.47 
   3   1  -3  214.85   11.27 
  -3   1   3  226.67    8.76 
   2  -1  -3   53.35    2.12 
   2  -1  -3   54.83    2.09 
  -2  -1   3   51.37    2.13 
   2  -1  -3   55.32    1.92 
  -2  -1   3   50.75    2.10 
  -2  -1   3   54.99    1.92 
  -2   1   3   53.38    2.42 
   2   1  -3   48.12    2.03 
   2   1  -3   50.17    2.01 
  -2   1   3   52.09    2.02 
  -2   1   3   54.12    2.03 
   2   1  -3   50.56    2.42 
  -1  -1   3  164.10    5.71 
   1  -1  -3  166.55    6.29 
  -1  -1   3  158.35    6.28 
   1  -1  -3  168.79    5.72 
   1  -1  -3  161.32    6.39 
   1   1  -3  166.65    6.03 
  -1   1   3  150.18    7.20 
  -1   1   3  161.06    6.04 
  -1   1   3  147.81    5.44 
   1   1  -3  150.16    7.19 
  -1   1   3  159.59    5.99 
   0  -1   3   11.86    0.48 
   0  -1  -3   11.81    0.50 
   0  -1   3   12.05    0.45 
   0  -1  -3   11.59    0.48 
   0   1  -3   11.16    0.45 
   0   1   3   11.07    0.47 
   0   1   3   10.79    0.45 
   0   1  -3   11.30    0.45 
   1  -1   3   85.79    2.95 
  -1  -1  -3   81.60    3.93 
   1  -1   3   83.17    3.24 
  -1  -1  -3   87.39    3.28 
  -1  -1  -3   84.07    3.32 
   1   1   3   78.68    2.83 
  -1   1  -3   77.02    3.09 
   1   1   3   82.01    3.11 
   1   1   3   80.22    3.74 
   1   1   3   82.50    3.15 
   2  -1   3   92.07    3.25 
   2  -1   3   92.59    3.57 
   2  -1   3   90.58    3.62 
  -2  -1  -3   91.31    3.86 
  -2  -1  -3   92.60    4.32 
  -2  -1  -3   96.43    4.65 
   2   1   3   93.68    4.41 
   2   1   3   96.32    3.34 
   2   1   3   95.00    3.40 
   2   1   3   94.90    3.66 
   2   1   3   94.33    4.10 
   2   1   3   93.34    3.71 
  -2   1  -3   91.29    3.64 
  -2   1  -3   90.42    3.71 
  -2   1  -3   98.05    3.64 
  -3  -1  -3   96.85    4.59 
  -3  -1  -3   99.66    4.09 
   3  -1   3   97.78    4.26 
   3  -1   3   96.02    3.79 
   3  -1   3   99.89    3.87 
  -3  -1  -3  101.07    4.93 
   3  -1   3  101.28    3.53 
  -3  -1  -3   98.29    3.90 
  -3  -1  -3   95.39    3.44 
   3  -1   3   93.40    3.36 
   3   1   3   94.88    3.41 
   3   1   3   88.09    3.48 
   3   1   3   93.06    3.38 
  -3   1  -3   98.61    3.76 
   3   1   3   92.17    3.28 
   3   1   3   95.79    4.17 
   3   1   3   99.60    3.78 
   3   1   3   93.73    3.45 
   3   1   3   96.70    3.34 
   3   1   3   97.86    3.72 
  -3   1  -3   96.71    3.69 
   4  -1   3   18.22    0.74 
  -4  -1  -3   18.55    0.68 
   4  -1   3   19.94    0.89 
  -4  -1  -3   16.96    0.99 
  -4  -1  -3   19.08    0.72 
  -4  -1  -3   19.81    0.85 
   4  -1   3   19.32    0.80 
  -4  -1  -3   19.01    0.83 
  -4  -1  -3   18.88    1.04 
   4  -1   3   19.32    0.69 
  -4  -1  -3   17.93    0.67 
  -4  -1  -3   18.92    0.72 
   4   1   3   18.78    0.83 
  -4   1  -3   18.28    0.72 
   4   1   3   18.63    0.84 
   4   1   3   18.42    0.89 
   4   1   3   18.55    0.72 
   4   1   3   18.86    0.76 
   4   1   3   18.13    0.69 
  -4   1  -3   18.40    0.78 
  -4   1  -3   17.69    0.66 
   4   1   3   19.06    0.75 
   4   1   3   18.62    0.68 
   4   1   3   19.13    0.73 
   5  -1   3    2.36    0.21 
  -5  -1  -3    2.21    0.28 
  -5  -1  -3    2.16    0.25 
  -5  -1  -3    2.47    0.24 
   5  -1   3    2.38    0.19 
   5  -1   3    2.33    0.17 
   5  -1   3    2.44    0.22 
  -5  -1  -3    2.56    0.21 
   5  -1   3    2.41    0.19 
  -5  -1  -3    2.58    0.21 
  -5  -1  -3    2.41    0.25 
   5  -1   3    2.38    0.18 
  -5  -1  -3    2.88    0.31 
  -5  -1  -3    2.69    0.25 
   5   1   3    2.57    0.21 
   5   1   3    2.83    0.21 
   5   1   3    2.48    0.18 
   5   1   3    2.75    0.31 
   5   1   3    2.72    0.20 
  -5   1  -3    2.40    0.20 
  -5   1  -3    2.32    0.18 
   5   1   3    2.09    0.23 
  -5   1  -3    2.45    0.17 
   5   1   3    2.48    0.25 
  -5   1  -3    2.19    0.19 
   5   1   3    2.36    0.20 
   5   1   3    2.97    0.27 
  -6  -1  -3   14.08    0.54 
  -6  -1  -3   13.90    0.42 
  -6  -1  -3   15.08    0.64 
   6  -1   3   14.11    0.56 
  -6  -1  -3   13.87    0.60 
  -6  -1  -3   14.73    0.44 
  -6  -1  -3   14.77    0.58 
  -6  -1  -3   15.00    0.55 
  -6  -1  -3   13.82    0.50 
   6  -1   3   14.65    0.56 
  -6  -1  -3   14.40    0.57 
   6  -1   3   13.86    0.60 
  -6  -1  -3   13.94    0.51 
  -6  -1  -3   14.18    0.46 
  -6  -1  -3   13.74    0.52 
   6   1   3   14.15    0.49 
  -6   1  -3   14.61    0.52 
   6   1   3   14.50    0.62 
  -6   1  -3   13.60    0.45 
   6   1   3   14.44    0.61 
   6   1   3   14.30    0.78 
  -6   1  -3   13.85    0.38 
  -6   1  -3   13.71    0.46 
  -6   1  -3   13.55    0.53 
   6   1   3   12.91    0.59 
  -6   1  -3   13.48    0.48 
  -6   1  -3   13.65    0.50 
   6   1   3   14.84    0.57 
  -7  -1  -3    6.38    0.28 
  -7  -1  -3    6.10    0.27 
   7  -1   3    5.93    0.25 
  -7  -1  -3    5.64    0.31 
  -7  -1  -3    5.63    0.28 
  -7  -1  -3    5.81    0.30 
  -7  -1  -3    5.71    0.18 
  -7  -1  -3    6.25    0.22 
  -7  -1  -3    6.25    0.29 
  -7  -1  -3    6.27    0.30 
  -7  -1  -3    6.56    0.20 
  -7  -1  -3    6.12    0.27 
  -7  -1  -3    6.35    0.23 
  -7  -1  -3    5.94    0.28 
  -7  -1  -3    6.28    0.24 
   7   1   3    6.68    0.30 
   7   1   3    6.43    0.24 
  -7   1  -3    6.16    0.26 
   7   1   3    6.44    0.44 
  -7   1  -3    6.11    0.28 
  -7   1  -3    6.56    0.25 
  -7   1  -3    6.33    0.24 
   7   1   3    6.54    0.26 
  -8  -1  -3    6.30    0.21 
  -8  -1  -3    5.91    0.22 
  -8  -1  -3    6.44    0.24 
  -8  -1  -3    5.62    0.22 
   8  -1   3    6.06    0.22 
  -8  -1  -3    6.18    0.18 
  -8  -1  -3    5.89    0.25 
  -8   1  -3    6.11    0.20 
  -8   1  -3    6.08    0.23 
  -8   1  -3    6.00    0.23 
   8   1   3    5.88    0.24 
   8   1   3    6.01    0.19 
   8   1   3    6.10    0.22 
   8  -2  -3    3.16    0.28 
  -8  -2   3    3.31    0.18 
   8  -2  -3    3.12    0.17 
  -8  -2   3    3.23    0.20 
  -8  -2   3    3.14    0.22 
  -8  -2   3    3.07    0.22 
  -8   2   3    3.32    0.18 
   8   2  -3    3.24    0.18 
  -8   2   3    3.11    0.20 
  -8   2   3    3.10    0.19 
  -8   2   3    3.22    0.18 
   8   2  -3    3.16    0.19 
   8   2  -3    3.04    0.20 
   8   2  -3    3.18    0.18 
   7  -2  -3    0.51    0.15 
  -7  -2   3    0.57    0.14 
  -7  -2   3    1.02    0.20 
  -7  -2   3    0.53    0.10 
  -7  -2   3    0.53    0.12 
   7  -2  -3    0.91    0.21 
   7  -2  -3    0.67    0.17 
  -7  -2   3    0.60    0.11 
  -7  -2   3    0.94    0.15 
  -7  -2   3    1.13    0.21 
  -7  -2   3    0.98    0.22 
   7  -2  -3    0.85    0.14 
  -7  -2   3    0.82    0.17 
   7  -2  -3    0.61    0.16 
  -7  -2   3    0.68    0.08 
   7  -2  -3    0.65    0.20 
  -7  -2   3    0.52    0.14 
  -7  -2   3    0.86    0.21 
  -7  -2   3    0.58    0.15 
   7   2  -3    0.79    0.13 
  -7   2   3    0.41    0.10 
  -7   2   3    0.60    0.12 
  -7   2   3    0.51    0.11 
   7   2  -3    0.97    0.17 
  -7   2   3    0.72    0.17 
   7   2  -3    0.52    0.11 
   7   2  -3    0.68    0.17 
  -7   2   3    0.87    0.18 
  -7   2   3    0.70    0.11 
   7   2  -3    0.63    0.17 
   7   2  -3    0.98    0.17 
  -7   2   3    0.70    0.14 
  -7   2   3    0.74    0.16 
   7   2  -3    0.56    0.17 
  -7   2   3    0.65    0.15 
  -6  -2   3    2.66    0.24 
   6  -2  -3    3.05    0.25 
   6  -2  -3    2.68    0.21 
   6  -2  -3    2.88    0.21 
  -6  -2   3    2.60    0.21 
   6  -2  -3    2.81    0.31 
  -6  -2   3    3.19    0.28 
   6  -2  -3    2.85    0.26 
   6  -2  -3    2.79    0.21 
  -6  -2   3    2.67    0.20 
  -6  -2   3    2.92    0.24 
  -6  -2   3    3.01    0.25 
   6  -2  -3    2.85    0.21 
  -6  -2   3    3.08    0.17 
   6  -2  -3    2.71    0.24 
  -6   2   3    2.50    0.19 
   6   2  -3    2.72    0.22 
  -6   2   3    2.71    0.21 
  -6   2   3    2.73    0.28 
  -6   2   3    2.55    0.23 
   6   2  -3    2.47    0.22 
  -6   2   3    2.69    0.12 
  -6   2   3    2.16    0.23 
   6   2  -3    2.54    0.19 
  -6   2   3    2.65    0.22 
   6   2  -3    2.41    0.17 
   6   2  -3    2.51    0.25 
  -6   2   3    2.54    0.21 
  -5  -2   3   47.44    2.40 
   5  -2  -3   49.35    2.18 
  -5  -2   3   46.95    1.76 
   5  -2  -3   48.72    1.65 
  -5  -2   3   51.40    2.06 
  -5  -2   3   48.02    1.78 
  -5  -2   3   50.67    1.78 
  -5  -2   3   49.41    1.68 
   5  -2  -3   49.20    1.71 
   5  -2  -3   49.16    1.82 
   5  -2  -3   48.69    1.77 
  -5  -2   3   48.52    1.54 
  -5  -2   3   43.15    1.83 
  -5  -2   3   49.93    2.23 
  -5  -2   3   42.04    2.37 
   5  -2  -3   48.68    1.83 
   5  -2  -3   50.33    2.00 
   5  -2  -3   50.80    1.75 
   5  -2  -3   47.64    1.99 
  -5  -2   3   50.64    1.81 
  -5  -2   3   50.05    1.67 
   5   2  -3   46.63    1.70 
  -5   2   3   47.55    2.44 
   5   2  -3   49.14    1.75 
  -5   2   3   46.96    1.77 
   5   2  -3   48.95    1.74 
  -5   2   3   46.64    1.66 
  -5   2   3   46.18    1.68 
  -5   2   3   48.35    1.81 
   5   2  -3   52.82    2.38 
  -5   2   3   47.44    1.30 
   5   2  -3   47.10    1.52 
   5   2  -3   47.90    1.64 
   5   2  -3   47.84    1.35 
  -5   2   3   48.15    1.66 
  -5   2   3   47.68    1.67 
  -5   2   3   47.89    1.96 
  -4  -2   3  113.41    4.08 
  -4  -2   3  113.48    4.57 
   4  -2  -3  112.47    4.01 
  -4  -2   3  119.94    4.20 
   4  -2  -3  114.89    4.06 
   4  -2  -3  108.81    4.19 
   4  -2  -3  119.91    4.46 
   4  -2  -3  111.24    3.94 
   4  -2  -3  113.02    4.52 
  -4  -2   3  110.99    3.80 
  -4  -2   3  120.36    5.04 
  -4  -2   3  112.67    4.05 
   4  -2  -3  117.43    4.14 
  -4  -2   3  114.81    4.03 
  -4  -2   3  114.58    4.50 
   4  -2  -3  115.60    5.00 
  -4   2   3  112.47    5.50 
  -4   2   3  104.65    5.12 
   4   2  -3  111.42    3.87 
   4   2  -3  108.18    4.03 
  -4   2   3  104.69    3.65 
   4   2  -3  111.11    4.60 
  -4   2   3  107.64    4.02 
  -4   2   3  110.45    4.55 
   4   2  -3  118.62    5.17 
   4   2  -3  106.18    3.86 
  -4   2   3  105.58    4.29 
  -4   2   3  115.18    4.36 
   4   2  -3  110.81    5.54 
  -3  -2   3  173.26    6.41 
  -3  -2   3  186.26    6.56 
  -3  -2   3  180.29    6.62 
  -3  -2   3  182.94    6.24 
   3  -2  -3  173.54    6.24 
   3  -2  -3  177.49    6.41 
   3  -2  -3  184.42    7.13 
  -3  -2   3  182.38    6.43 
   3  -2  -3  172.92    6.62 
   3  -2  -3  185.39    6.53 
   3  -2  -3  182.29    7.90 
  -3  -2   3  193.58    7.16 
  -3  -2   3  177.45    6.35 
  -3  -2   3  189.49    7.05 
  -3  -2   3  183.81    7.92 
   3  -2  -3  185.51    6.40 
   3  -2  -3  189.04    7.03 
  -3   2   3  182.68    8.35 
   3   2  -3  182.95    7.48 
   3   2  -3  170.35    7.11 
  -3   2   3  179.93    7.11 
  -3   2   3  174.98    7.46 
   3   2  -3  180.79    6.30 
  -3   2   3  187.81    7.00 
  -3   2   3  176.15    8.99 
   3   2  -3  184.51    9.01 
   3   2  -3  183.76    8.37 
   2  -2  -3   43.42    1.56 
   2  -2  -3   44.99    1.69 
  -2  -2   3   42.31    1.72 
  -2  -2   3   45.27    1.58 
  -2  -2   3   42.34    1.56 
   2  -2  -3   42.15    1.56 
   2  -2  -3   41.63    1.88 
   2  -2  -3   41.54    1.71 
  -2  -2   3   41.52    1.89 
  -2  -2   3   40.55    1.69 
   2   2  -3   39.85    2.03 
  -2   2   3   41.39    1.91 
   2   2  -3   40.39    1.61 
  -2   2   3   41.53    2.04 
  -2   2   3   36.60    1.59 
   2   2  -3   38.09    1.90 
   2   2  -3   41.96    1.60 
   2   2  -3   40.61    1.69 
  -2   2   3   40.27    1.68 
  -2   2   3   39.22    1.61 
   1  -2  -3   28.31    1.05 
  -1  -2   3   27.45    1.14 
  -1  -2   3   27.23    1.12 
   1  -2  -3   28.82    1.13 
  -1  -2   3   26.58    1.04 
   1  -2  -3   29.36    1.06 
  -1  -2   3   28.83    1.03 
   1  -2  -3   28.53    1.15 
   1   2  -3   26.17    1.05 
  -1   2   3   25.50    1.26 
  -1   2   3   26.31    1.06 
   1   2  -3   26.82    1.04 
  -1   2   3   25.14    1.34 
   1   2  -3   26.10    1.23 
  -1   2   3   25.72    1.11 
   0  -2  -3  126.30    4.74 
   0  -2  -3  123.87    4.32 
   0  -2  -3  121.17    4.40 
   0  -2  -3  123.22    4.81 
   0  -2  -3  118.36    5.69 
   0  -2   3  126.30    4.27 
   0  -2   3  118.64    4.70 
   0   2   3  113.38    5.24 
   0   2   3  111.88    4.42 
   1  -2   3  207.74    7.31 
  -1  -2  -3  204.84    9.76 
  -1  -2  -3  213.28    8.25 
  -1  -2  -3  217.16    8.13 
  -1  -2  -3  215.89    9.14 
  -1  -2  -3  208.39    7.55 
   1   2   3  202.82    7.93 
   1   2   3  201.70    7.81 
   1   2   3  200.56   10.12 
   1   2   3  207.28    9.40 
  -2  -2  -3    9.73    0.47 
   2  -2   3    8.87    0.35 
  -2  -2  -3    9.93    0.41 
  -2  -2  -3    9.35    0.41 
  -2  -2  -3    9.32    0.47 
  -2  -2  -3    9.69    0.49 
  -2  -2  -3    9.65    0.54 
   2   2   3    9.51    0.46 
   2   2   3    9.95    0.46 
   2   2   3    9.17    0.54 
   2   2   3    8.96    0.39 
   2   2   3    9.28    0.41 
   2   2   3    9.32    0.48 
   3  -2   3    8.45    0.35 
  -3  -2  -3    7.93    0.53 
  -3  -2  -3    8.89    0.45 
  -3  -2  -3    8.43    0.38 
  -3  -2  -3    8.93    0.54 
  -3  -2  -3    8.58    0.38 
   3   2   3    8.55    0.43 
   3   2   3    7.86    0.37 
   3   2   3    8.41    0.45 
   3   2   3    7.99    0.36 
   3   2   3    8.21    0.43 
   3   2   3    7.84    0.36 
   3   2   3    8.04    0.36 
   3   2   3    8.38    0.53 
  -4  -2  -3   16.99    1.04 
  -4  -2  -3   20.10    0.74 
  -4  -2  -3   19.58    0.75 
  -4  -2  -3   19.49    0.70 
  -4  -2  -3   20.15    0.76 
  -4  -2  -3   19.42    0.90 
  -4  -2  -3   19.05    0.71 
  -4  -2  -3   20.80    1.10 
  -4  -2  -3   19.29    0.65 
  -4  -2  -3   19.61    0.57 
   4   2   3   17.72    0.70 
   4   2   3   17.98    0.86 
   4   2   3   19.33    0.76 
   4   2   3   18.81    0.87 
   4   2   3   19.45    0.75 
   4   2   3   19.33    0.93 
   4   2   3   19.66    0.78 
   4   2   3   19.10    0.74 
  -5  -2  -3   73.93    2.46 
  -5  -2  -3   66.63    3.76 
   5  -2   3   75.34    2.55 
  -5  -2  -3   71.42    2.62 
  -5  -2  -3   76.81    2.76 
   5  -2   3   69.81    2.69 
  -5  -2  -3   77.14    2.57 
  -5  -2  -3   75.95    2.42 
   5   2   3   71.47    2.45 
   5   2   3   73.63    2.61 
   5   2   3   62.07    3.22 
   5   2   3   70.77    2.63 
   5   2   3   76.22    2.60 
   5   2   3   72.96    2.60 
   5   2   3   74.72    3.51 
   5   2   3   75.72    2.71 
  -6  -2  -3   43.39    1.23 
  -6  -2  -3   43.43    1.36 
  -6  -2  -3   45.24    1.57 
  -6  -2  -3   43.29    1.69 
  -6  -2  -3   42.61    1.18 
  -6  -2  -3   45.22    1.49 
  -6  -2  -3   42.28    1.34 
  -6  -2  -3   44.01    1.50 
   6  -2   3   42.70    1.55 
  -6  -2  -3   43.25    1.56 
  -6  -2  -3   44.33    1.39 
  -6  -2  -3   43.40    1.45 
   6   2   3   42.42    1.57 
   6   2   3   44.57    2.09 
   6   2   3   41.76    1.38 
   6   2   3   42.89    1.18 
   6   2   3   41.31    1.62 
   6   2   3   40.18    1.32 
  -6   2  -3   41.95    1.22 
   6   2   3   40.54    1.55 
  -6   2  -3   42.17    1.32 
   6   2   3   43.09    1.56 
  -6   2  -3   41.51    1.35 
  -6   2  -3   41.26    1.18 
  -7  -2  -3    9.71    0.31 
  -7  -2  -3    9.05    0.37 
  -7  -2  -3    8.67    0.33 
  -7  -2  -3    9.70    0.31 
  -7  -2  -3    9.28    0.36 
  -7  -2  -3    9.64    0.36 
  -7  -2  -3    8.66    0.40 
  -7  -2  -3    9.16    0.28 
  -7  -2  -3    9.61    0.28 
  -7   2  -3    9.27    0.29 
  -7   2  -3    9.09    0.34 
   7   2   3    9.15    0.29 
  -7   2  -3    9.47    0.33 
   7   2   3    9.27    0.37 
  -8  -3   3    3.40    0.15 
   8  -3  -3    3.30    0.16 
  -8  -3   3    3.08    0.20 
  -8  -3   3    3.45    0.10 
  -8  -3   3    3.33    0.19 
  -8  -3   3    3.48    0.18 
  -8   3   3    3.37    0.18 
   8   3  -3    3.44    0.18 
   8   3  -3    3.45    0.10 
   8   3  -3    3.49    0.15 
  -8   3   3    3.28    0.14 
   8   3  -3    3.56    0.17 
  -8   3   3    3.55    0.17 
  -7  -3   3   14.77    0.44 
  -7  -3   3   14.44    0.52 
  -7  -3   3   15.02    0.53 
  -7  -3   3   14.73    0.48 
   7  -3  -3   15.30    0.51 
  -7  -3   3   15.16    0.52 
  -7  -3   3   14.62    0.59 
  -7  -3   3   15.33    0.53 
  -7  -3   3   13.79    0.59 
   7   3  -3   14.74    0.51 
  -7   3   3   14.65    0.51 
   7   3  -3   14.65    0.51 
   7   3  -3   15.00    0.48 
  -7   3   3   14.83    0.46 
  -7   3   3   14.76    0.47 
   7   3  -3   15.08    0.52 
  -7   3   3   14.93    0.51 
   7   3  -3   14.57    0.39 
   7   3  -3   13.88    0.52 
   7   3  -3   15.02    0.54 
  -7   3   3   14.50    0.49 
   7   3  -3   13.91    0.58 
   6  -3  -3   11.99    0.56 
  -6  -3   3   14.10    0.56 
   6  -3  -3   12.83    0.51 
  -6  -3   3   13.19    0.55 
   6  -3  -3   13.51    0.53 
  -6  -3   3   12.85    0.50 
  -6  -3   3   13.09    0.61 
  -6  -3   3   12.51    0.39 
  -6  -3   3   13.06    0.59 
  -6  -3   3   13.06    0.48 
  -6  -3   3   13.15    0.48 
   6   3  -3   11.63    0.45 
   6   3  -3   12.60    0.46 
   6   3  -3   12.05    0.45 
   6   3  -3   12.42    0.55 
   6   3  -3   12.80    0.52 
  -6   3   3   12.28    0.46 
  -6   3   3   12.09    0.34 
   6   3  -3   12.21    0.48 
   6   3  -3   12.88    0.35 
  -6   3   3   12.09    0.41 
  -6   3   3   12.55    0.47 
   6   3  -3   12.34    0.43 
   6   3  -3   12.49    0.54 
  -6   3   3   12.11    0.44 
  -6   3   3   12.53    0.42 
  -6   3   3   12.60    0.46 
   6   3  -3   12.52    0.36 
   6   3  -3   12.96    0.45 
   6   3  -3   12.34    0.36 
   6   3  -3   13.05    0.56 
  -6   3   3   12.15    0.49 
   6   3  -3   12.36    0.40 
   5  -3  -3    3.44    0.21 
   5  -3  -3    3.49    0.23 
   5  -3  -3    3.37    0.21 
  -5  -3   3    3.72    0.35 
  -5  -3   3    3.41    0.28 
  -5  -3   3    3.06    0.26 
  -5  -3   3    3.18    0.26 
   5  -3  -3    2.91    0.25 
  -5  -3   3    3.20    0.24 
  -5  -3   3    3.23    0.27 
   5  -3  -3    3.44    0.24 
  -5  -3   3    3.25    0.33 
   5  -3  -3    3.59    0.21 
  -5  -3   3    3.75    0.34 
  -5  -3   3    3.20    0.25 
  -5  -3   3    3.67    0.30 
   5   3  -3    3.42    0.27 
   5   3  -3    3.39    0.34 
  -5   3   3    3.43    0.22 
   5   3  -3    3.46    0.24 
   5   3  -3    3.09    0.22 
   5   3  -3    3.24    0.19 
   5   3  -3    3.46    0.24 
   5   3  -3    3.14    0.13 
  -5   3   3    3.51    0.21 
   5   3  -3    3.01    0.24 
   5   3  -3    3.31    0.35 
   5   3  -3    3.45    0.25 
   5   3  -3    3.25    0.25 
  -5   3   3    3.48    0.21 
  -5   3   3    3.22    0.23 
  -4  -3   3   17.47    0.71 
  -4  -3   3   15.50    0.81 
   4  -3  -3   17.36    0.62 
   4  -3  -3   18.59    0.70 
   4  -3  -3   16.69    0.69 
   4  -3  -3   17.47    0.76 
  -4  -3   3   16.70    0.65 
  -4  -3   3   16.56    0.75 
   4  -3  -3   17.34    0.66 
  -4  -3   3   15.76    0.80 
  -4  -3   3   17.96    0.92 
  -4  -3   3   16.89    0.66 
   4  -3  -3   15.90    0.75 
  -4  -3   3   17.69    0.71 
   4  -3  -3   17.05    0.64 
  -4  -3   3   16.69    0.87 
   4  -3  -3   16.52    0.65 
  -4  -3   3   17.15    0.69 
  -4  -3   3   17.19    0.64 
   4  -3  -3   18.26    0.82 
   4   3  -3   16.53    0.66 
   4   3  -3   17.08    0.91 
   4   3  -3   17.94    0.95 
   4   3  -3   16.37    0.77 
   4   3  -3   17.17    0.69 
   4   3  -3   16.36    0.65 
  -4   3   3   16.33    0.61 
  -4   3   3   16.72    0.67 
  -4   3   3   16.43    0.45 
  -4   3   3   16.44    0.73 
   4   3  -3   17.12    0.76 
   4   3  -3   16.21    0.62 
  -4   3   3   16.40    0.62 
   3  -3  -3    9.96    0.40 
  -3  -3   3    9.82    0.51 
  -3  -3   3    9.35    0.39 
  -3  -3   3    9.35    0.43 
  -3  -3   3    9.60    0.43 
   3  -3  -3   10.31    0.43 
   3  -3  -3   10.24    0.47 
  -3  -3   3    9.93    0.39 
  -3  -3   3    9.56    0.44 
   3  -3  -3    9.43    0.46 
  -3  -3   3    9.85    0.47 
  -3  -3   3    9.48    0.51 
   3  -3  -3    9.94    0.50 
   3  -3  -3   10.13    0.40 
   3  -3  -3   10.07    0.43 
   3  -3  -3    9.53    0.38 
  -3  -3   3   10.10    0.54 
  -3  -3   3   10.15    0.41 
  -3   3   3    9.76    0.54 
   3   3  -3    9.39    0.42 
  -3   3   3   10.11    0.44 
  -3   3   3    9.90    0.45 
   3   3  -3    9.96    0.46 
   3   3  -3    9.43    0.57 
   3   3  -3    9.90    0.47 
   3   3  -3    9.52    0.56 
  -3   3   3    9.74    0.42 
  -2  -3   3   69.87    2.61 
   2  -3  -3   71.04    2.61 
   2  -3  -3   72.54    2.58 
   2  -3  -3   67.86    2.45 
  -2  -3   3   73.70    2.60 
   2  -3  -3   74.09    2.83 
  -2  -3   3   69.17    3.12 
   2  -3  -3   70.92    2.53 
   2  -3  -3   73.67    3.12 
  -2  -3   3   69.16    2.51 
  -2  -3   3   72.75    2.84 
   2  -3  -3   70.02    2.50 
  -2  -3   3   67.88    2.54 
  -2  -3   3   70.19    2.45 
   2  -3  -3   70.79    2.78 
  -2  -3   3   72.10    2.80 
  -2   3   3   66.66    3.12 
   2   3  -3   65.39    3.12 
  -2   3   3   69.07    3.35 
  -2   3   3   65.68    2.61 
   2   3  -3   61.64    2.62 
  -2   3   3   67.89    2.66 
  -2   3   3   65.72    2.76 
   2   3  -3   67.92    2.65 
   2   3  -3   68.55    3.34 
   2   3  -3   66.60    2.76 
  -2   3   3   67.02    2.45 
   2   3  -3   65.08    2.45 
  -1  -3   3   15.66    0.65 
   1  -3  -3   14.73    0.61 
  -1  -3   3   15.79    0.61 
   1  -3  -3   15.21    0.57 
   1  -3  -3   16.10    0.67 
   1  -3  -3   15.79    0.67 
   1  -3  -3   15.73    0.62 
   1  -3  -3   15.52    0.73 
   1  -3  -3   15.19    0.59 
   1  -3  -3   14.51    0.58 
   1  -3  -3   15.60    0.68 
  -1   3   3   14.98    0.79 
   1   3  -3   13.86    0.58 
  -1   3   3   14.61    0.64 
   1   3  -3   13.62    0.58 
  -1   3   3   15.02    0.76 
  -1   3   3   14.46    0.63 
  -1   3   3   14.71    0.63 
   1   3  -3   15.35    0.61 
   0  -3  -3   33.07    1.17 
   0  -3  -3   33.22    1.19 
   0  -3  -3   35.05    1.37 
   0  -3  -3   30.92    1.34 
   0  -3  -3   32.47    1.25 
   0  -3  -3   32.66    1.21 
   0  -3  -3   34.09    1.49 
   0  -3   3   33.49    1.18 
   0  -3  -3   30.93    1.26 
   0  -3   3   32.54    1.21 
   0  -3  -3   33.64    1.24 
   0   3   3   30.87    1.32 
   0   3   3   31.47    1.60 
   0   3   3   30.05    1.51 
   0   3   3   30.84    1.27 
  -1  -3  -3   47.19    1.74 
  -1  -3  -3   47.03    2.09 
  -1  -3  -3   45.62    1.88 
  -1  -3  -3   48.29    1.70 
  -1  -3  -3   46.08    1.67 
  -1  -3  -3   44.46    1.63 
  -1  -3  -3   47.72    1.91 
  -1  -3  -3   46.60    1.74 
   1   3   3   44.96    2.29 
   1   3   3   45.54    1.89 
   1   3   3   43.25    1.59 
   1   3   3   44.50    1.81 
   1   3   3   43.45    2.15 
  -2  -3  -3   25.14    0.97 
  -2  -3  -3   24.78    1.07 
  -2  -3  -3   25.20    0.93 
  -2  -3  -3   24.68    1.06 
  -2  -3  -3   23.71    0.92 
  -2  -3  -3   25.23    0.88 
  -2  -3  -3   24.29    1.15 
  -2  -3  -3   23.20    0.84 
  -2  -3  -3   24.54    0.94 
   2   3   3   22.51    0.92 
   2   3   3   22.97    0.87 
   2   3   3   22.43    1.03 
   2   3   3   25.34    1.22 
   2   3   3   22.65    1.25 
  -3  -3  -3   46.12    1.70 
  -3  -3  -3   49.92    2.32 
  -3  -3  -3   47.57    1.70 
  -3  -3  -3   45.74    1.71 
  -3  -3  -3   47.40    1.96 
  -3  -3  -3   45.50    1.61 
  -3  -3  -3   46.27    1.56 
  -3  -3  -3   44.18    2.12 
  -3  -3  -3   49.08    1.78 
  -3  -3  -3   47.56    1.73 
  -3  -3  -3   46.47    1.94 
   3   3   3   47.49    2.21 
   3   3   3   42.08    1.56 
   3   3   3   41.97    1.51 
   3   3   3   45.40    1.62 
   3   3   3   44.48    1.25 
  -4  -3  -3   10.63    0.47 
  -4  -3  -3   10.25    0.44 
  -4  -3  -3    9.55    0.42 
  -4  -3  -3    9.68    0.38 
  -4  -3  -3   10.38    0.43 
  -4  -3  -3    8.04    0.63 
  -4  -3  -3    9.98    0.33 
   4   3   3    9.49    0.42 
   4   3   3    8.01    0.62 
   4   3   3   10.49    0.45 
   4   3   3   10.05    0.34 
   4   3   3    9.81    0.44 
   4   3   3    9.78    0.38 
  -5  -3  -3   23.18    0.84 
  -5  -3  -3   23.71    0.68 
  -5  -3  -3   24.85    0.81 
  -5  -3  -3   23.34    0.72 
  -5  -3  -3   24.44    0.82 
  -5  -3  -3   25.24    0.76 
  -5  -3  -3   25.38    0.91 
  -5  -3  -3   23.83    0.96 
  -5  -3  -3   25.97    0.89 
  -5  -3  -3   25.36    0.87 
  -5  -3  -3   25.34    0.93 
  -5  -3  -3   25.87    0.71 
  -5  -3  -3   24.49    0.80 
   5   3   3   25.32    0.93 
   5   3   3   24.61    0.72 
   5   3   3   24.23    0.68 
  -5   3  -3   23.54    0.68 
   5   3   3   22.71    0.79 
   5   3   3   24.52    0.81 
   5   3   3   23.57    0.82 
  -5   3  -3   23.90    0.78 
   5   3   3   23.14    0.94 
  -6  -3  -3    5.82    0.24 
  -6  -3  -3    5.96    0.24 
  -6  -3  -3    5.95    0.33 
  -6  -3  -3    5.25    0.29 
  -6  -3  -3    6.24    0.31 
  -6  -3  -3    6.04    0.18 
  -6  -3  -3    5.94    0.24 
  -6  -3  -3    5.60    0.26 
  -6  -3  -3    5.36    0.32 
  -6  -3  -3    6.03    0.28 
  -6  -3  -3    5.83    0.35 
   6   3   3    5.35    0.27 
   6   3   3    5.77    0.27 
   6   3   3    5.23    0.30 
  -6   3  -3    5.43    0.22 
   6   3   3    5.64    0.23 
   6   3   3    5.61    0.27 
  -7  -3  -3    7.70    0.30 
  -7  -3  -3    7.40    0.31 
  -7  -3  -3    7.54    0.28 
   7   3   3    7.46    0.29 
  -7   3  -3    7.83    0.26 
   7   3   3    7.59    0.30 
  -7  -4   3    6.60    0.26 
  -7  -4   3    6.40    0.28 
  -7  -4   3    6.88    0.28 
   7   4  -3    6.77    0.27 
   7   4  -3    7.13    0.28 
  -7   4   3    6.72    0.26 
  -7   4   3    6.59    0.22 
  -7   4   3    6.32    0.26 
   7   4  -3    6.52    0.28 
  -7   4   3    6.35    0.26 
  -6  -4   3    0.20    0.19 
  -6  -4   3    0.22    0.06 
  -6  -4   3    0.09    0.11 
  -6  -4   3    0.30    0.15 
  -6  -4   3    0.39    0.11 
  -6  -4   3    0.76    0.26 
   6   4  -3    0.25    0.06 
   6   4  -3    0.34    0.10 
   6   4  -3    0.18    0.10 
   6   4  -3    0.40    0.12 
   6   4  -3    0.34    0.10 
  -6   4   3    0.16    0.06 
   6   4  -3    0.13    0.10 
  -6   4   3    0.25    0.09 
   6   4  -3    0.25    0.08 
   6   4  -3    0.18    0.09 
   6   4  -3   -0.02    0.12 
  -6   4   3    0.19    0.08 
  -6   4   3    0.20    0.09 
   6   4  -3    0.16    0.11 
  -5  -4   3    4.87    0.25 
  -5  -4   3    5.70    0.32 
  -5  -4   3    4.64    0.32 
  -5  -4   3    4.70    0.23 
  -5  -4   3    4.73    0.32 
  -5  -4   3    5.09    0.31 
  -5  -4   3    5.36    0.32 
  -5  -4   3    4.91    0.28 
  -5  -4   3    4.94    0.33 
  -5  -4   3    5.21    0.39 
   5  -4  -3    5.34    0.26 
  -5   4   3    4.27    0.25 
   5   4  -3    5.17    0.28 
   5   4  -3    4.80    0.25 
   5   4  -3    5.11    0.27 
   5   4  -3    4.93    0.26 
   5   4  -3    5.30    0.32 
  -5   4   3    5.06    0.24 
   5   4  -3    4.63    0.25 
   5   4  -3    4.65    0.22 
   5   4  -3    5.07    0.25 
  -5   4   3    4.76    0.21 
   5   4  -3    5.46    0.31 
   5   4  -3    5.14    0.29 
  -5   4   3    4.57    0.22 
  -5   4   3    4.53    0.23 
   4  -4  -3   23.12    1.04 
  -4  -4   3   24.32    1.29 
  -4  -4   3   27.91    1.36 
  -4  -4   3   28.19    0.99 
  -4  -4   3   28.53    1.07 
   4  -4  -3   29.23    0.98 
  -4  -4   3   28.59    1.05 
  -4  -4   3   23.80    1.10 
  -4  -4   3   26.48    0.99 
  -4  -4   3   27.24    0.97 
  -4  -4   3   26.42    1.05 
   4   4  -3   26.75    0.98 
   4   4  -3   26.68    0.94 
   4   4  -3   26.80    0.76 
   4   4  -3   27.89    1.16 
   4   4  -3   24.24    1.42 
  -4   4   3   26.85    1.10 
   4   4  -3   26.85    1.06 
   4   4  -3   26.56    1.15 
  -4   4   3   27.80    0.93 
   4   4  -3   26.87    0.99 
   4   4  -3   26.72    1.03 
  -3  -4   3    0.81    0.18 
  -3  -4   3    1.01    0.17 
  -3  -4   3    0.49    0.16 
  -3  -4   3    1.10    0.21 
  -3  -4   3    1.03    0.18 
  -3  -4   3    0.78    0.20 
   3  -4  -3    0.55    0.14 
  -3  -4   3    0.88    0.23 
   3  -4  -3    0.53    0.12 
  -3  -4   3    0.74    0.17 
  -3  -4   3    0.77    0.12 
  -3  -4   3    0.71    0.17 
   3   4  -3    0.83    0.11 
   3   4  -3    0.70    0.14 
   3   4  -3    0.86    0.15 
  -3   4   3    0.84    0.12 
   3   4  -3    0.80    0.17 
   3   4  -3    0.74    0.15 
  -3   4   3    0.54    0.13 
   3   4  -3    0.68    0.13 
   3   4  -3    0.77    0.16 
   3   4  -3    0.75    0.14 
  -3   4   3    0.78    0.13 
   3   4  -3    0.73    0.16 
   2  -4  -3   20.03    0.92 
   2  -4  -3   17.95    0.84 
  -2  -4   3   20.31    0.80 
  -2  -4   3   18.01    0.70 
  -2  -4   3   19.55    0.75 
   2  -4  -3   19.50    0.74 
  -2  -4   3   19.93    0.77 
  -2  -4   3   19.24    0.75 
   2  -4  -3   18.96    0.77 
   2  -4  -3   20.39    0.73 
  -2  -4   3   19.59    0.71 
   2  -4  -3   20.26    0.84 
   2  -4  -3   17.72    0.69 
  -2  -4   3   17.07    0.84 
  -2  -4   3   20.15    0.93 
   2  -4  -3   19.21    0.77 
  -2  -4   3   19.75    0.87 
   2  -4  -3   20.18    0.72 
   2   4  -3   18.01    0.76 
  -2   4   3   17.90    0.48 
  -2   4   3   17.86    0.66 
   2   4  -3   17.77    0.66 
  -2   4   3   18.15    0.71 
   2   4  -3   17.64    0.65 
  -2   4   3   17.87    0.65 
   2   4  -3   16.98    0.70 
  -2   4   3   18.14    0.76 
   2   4  -3   17.79    0.48 
   1  -4  -3   15.04    0.63 
   1  -4  -3   14.49    0.56 
   1  -4  -3   15.00    0.69 
  -1  -4   3   14.93    0.57 
   1  -4  -3   15.62    0.59 
   1  -4  -3   15.83    0.75 
   1  -4  -3   15.65    0.58 
   1  -4  -3   15.06    0.60 
   1  -4  -3   15.63    0.69 
   1  -4  -3   14.88    0.62 
  -1  -4   3   15.30    0.62 
  -1   4   3   15.02    0.77 
  -1   4   3   14.10    0.41 
  -1   4   3   13.81    0.53 
  -1   4   3   14.43    0.63 
   1   4  -3   13.64    0.50 
   1   4  -3   13.61    0.59 
  -1   4   3   14.26    0.58 
   0  -4  -3   10.04    0.44 
   0  -4  -3   10.15    0.46 
   0  -4  -3   10.66    0.54 
   0  -4  -3    9.67    0.40 
   0  -4  -3   10.27    0.51 
   0  -4  -3    9.84    0.43 
   0  -4  -3    9.41    0.49 
   0  -4  -3    9.73    0.40 
   0  -4  -3   10.17    0.43 
   0   4   3    9.03    0.41 
   0   4   3    9.28    0.54 
   0   4   3    9.01    0.38 
   0   4   3    9.24    0.42 
   0   4   3    8.52    0.29 
   0   4   3    8.74    0.44 
   0   4   3    8.77    0.52 
  -1  -4  -3    3.26    0.21 
  -1  -4  -3    2.87    0.21 
  -1  -4  -3    3.14    0.22 
  -1  -4  -3    2.84    0.24 
  -1  -4  -3    2.77    0.24 
  -1  -4  -3    3.13    0.21 
  -1  -4  -3    3.42    0.19 
  -1  -4  -3    3.05    0.26 
  -1  -4  -3    3.30    0.23 
  -1  -4  -3    3.34    0.29 
   1   4   3    2.74    0.20 
   1   4   3    2.68    0.21 
   1   4   3    2.84    0.27 
   1   4   3    2.80    0.21 
   1   4   3    2.50    0.19 
   1   4   3    2.85    0.28 
   1   4   3    2.82    0.23 
  -2  -4  -3   27.76    1.44 
  -2  -4  -3   27.71    1.02 
  -2  -4  -3   28.92    0.99 
  -2  -4  -3   26.49    1.07 
  -2  -4  -3   28.77    1.10 
  -2  -4  -3   29.28    1.08 
  -2  -4  -3   29.72    1.27 
  -2  -4  -3   28.82    1.13 
  -2  -4  -3   30.35    1.36 
   2   4   3   26.45    0.97 
   2   4   3   25.54    1.14 
   2   4   3   26.96    1.37 
   2   4   3   25.86    1.43 
   2   4   3   25.80    0.96 
   2   4   3   25.44    0.85 
   2   4   3   25.73    0.93 
   2   4   3   26.85    1.05 
   2   4   3   25.02    1.01 
   2   4   3   28.74    1.18 
   2   4   3   26.50    0.98 
  -3  -4  -3   12.05    0.53 
  -3  -4  -3   12.37    0.54 
  -3  -4  -3   12.27    0.55 
  -3  -4  -3   12.15    0.68 
  -3  -4  -3   12.39    0.56 
  -3  -4  -3   12.48    0.50 
  -3  -4  -3   12.03    0.50 
  -3  -4  -3   11.96    0.51 
  -3  -4  -3   12.62    0.70 
  -3  -4  -3   12.02    0.54 
   3   4   3   10.76    0.49 
   3   4   3   11.41    0.33 
   3   4   3   11.18    0.50 
   3   4   3   11.60    0.50 
   3   4   3   11.24    0.47 
   3   4   3   11.35    0.47 
   3   4   3   11.70    0.53 
   3   4   3   11.41    0.72 
   3   4   3   10.78    0.58 
   3   4   3   11.12    0.41 
  -4  -4  -3    5.44    0.20 
  -4  -4  -3    5.57    0.28 
  -4  -4  -3    5.69    0.32 
  -4  -4  -3    5.52    0.28 
  -4  -4  -3    5.46    0.27 
  -4  -4  -3    4.87    0.34 
  -4  -4  -3    5.58    0.33 
  -4  -4  -3    5.37    0.31 
   4   4   3    5.49    0.32 
   4   4   3    5.38    0.19 
   4   4   3    5.66    0.28 
   4   4   3    5.24    0.31 
   4   4   3    5.18    0.27 
   4   4   3    4.94    0.19 
   4   4   3    5.73    0.31 
   4   4   3    4.97    0.30 
   4   4   3    5.36    0.19 
   4   4   3    5.17    0.25 
   4   4   3    5.55    0.28 
   4   4   3    5.02    0.22 
   4   4   3    5.34    0.28 
  -5  -4  -3   23.63    0.72 
  -5  -4  -3   25.30    0.77 
  -5  -4  -3   25.86    0.85 
  -5  -4  -3   25.52    0.85 
  -5  -4  -3   25.69    0.90 
  -5  -4  -3   25.81    0.83 
  -5  -4  -3   26.07    0.82 
  -5  -4  -3   23.13    0.94 
   5   4   3   24.61    0.84 
   5   4   3   23.73    0.78 
   5   4   3   24.21    0.80 
   5   4   3   24.30    0.80 
   5   4   3   23.98    0.81 
   5   4   3   23.94    0.88 
  -6  -4  -3    2.97    0.20 
  -6  -4  -3    2.83    0.18 
  -6  -4  -3    3.04    0.16 
  -6  -4  -3    2.79    0.12 
  -6  -4  -3    2.96    0.18 
   6   4   3    2.69    0.19 
   6   4   3    2.89    0.18 
   6   4   3    3.01    0.17 
   6   4   3    2.66    0.12 
   7   5  -3   13.91    0.39 
  -6  -5   3    5.33    0.25 
  -6  -5   3    5.46    0.19 
  -6   5   3    5.10    0.21 
   6   5  -3    5.42    0.20 
   6   5  -3    5.44    0.23 
   6   5  -3    5.24    0.23 
   6   5  -3    5.15    0.17 
   6   5  -3    5.38    0.19 
  -6   5   3    4.77    0.15 
   6   5  -3    5.27    0.17 
  -6   5   3    4.97    0.21 
  -5  -5   3    4.82    0.26 
  -5  -5   3    4.58    0.19 
  -5  -5   3    4.53    0.36 
  -5  -5   3    3.98    0.28 
  -5  -5   3    4.42    0.22 
  -5   5   3    4.01    0.21 
   5   5  -3    4.08    0.20 
  -5   5   3    3.97    0.20 
  -5   5   3    4.42    0.17 
   5   5  -3    4.07    0.16 
   5   5  -3    4.06    0.17 
  -5   5   3    4.37    0.21 
   5   5  -3    3.99    0.22 
   5   5  -3    4.19    0.26 
   5   5  -3    3.91    0.23 
   5   5  -3    4.58    0.23 
   5   5  -3    4.57    0.22 
   5   5  -3    4.08    0.22 
   5   5  -3    4.34    0.16 
   5   5  -3    4.06    0.18 
   5   5  -3    4.11    0.24 
   5   5  -3    4.27    0.27 
  -4  -5   3    0.34    0.17 
  -4  -5   3    0.47    0.10 
  -4  -5   3    0.41    0.15 
  -4  -5   3    0.45    0.17 
  -4  -5   3    0.61    0.17 
   4  -5  -3    0.63    0.13 
  -4  -5   3    0.23    0.13 
  -4  -5   3    0.65    0.15 
   4   5  -3    0.28    0.11 
  -4   5   3    0.71    0.12 
   4   5  -3    0.18    0.11 
  -4   5   3    0.65    0.10 
   4   5  -3    0.62    0.16 
   4   5  -3    0.37    0.11 
   4   5  -3    0.54    0.10 
  -4   5   3    0.62    0.15 
   4   5  -3    0.41    0.11 
  -4   5   3    0.48    0.08 
   4   5  -3    0.53    0.07 
   4   5  -3    0.34    0.09 
   4   5  -3    0.71    0.11 
   4   5  -3    0.55    0.13 
  -4   5   3    0.41    0.10 
   4   5  -3    0.46    0.10 
   4   5  -3    0.69    0.12 
   4   5  -3    0.48    0.11 
   4   5  -3    0.63    0.15 
   3  -5  -3   12.73    0.49 
  -3  -5   3   12.12    0.53 
  -3  -5   3   11.46    0.49 
  -3  -5   3   12.50    0.54 
  -3  -5   3   12.04    0.66 
  -3  -5   3   10.33    0.68 
  -3  -5   3   11.82    0.50 
  -3  -5   3   12.87    0.51 
  -3  -5   3   12.68    0.54 
   3   5  -3   11.99    0.50 
   3   5  -3   12.03    0.46 
   3   5  -3   10.20    0.53 
   3   5  -3   12.05    0.47 
   3   5  -3   11.68    0.48 
   2  -5  -3   57.26    2.02 
   2  -5  -3   55.40    1.90 
  -2  -5   3   50.48    2.03 
  -2  -5   3   51.89    1.89 
   2   5  -3   42.83    1.96 
  -2   5   3   50.74    1.97 
   2   5  -3   51.25    1.67 
  -2   5   3   51.17    1.67 
  -1  -5   3  123.14    4.11 
   1  -5  -3  124.45    4.13 
   1  -5  -3  124.92    5.23 
   1  -5  -3  110.32    4.33 
   1  -5  -3  117.19    3.96 
   1  -5  -3  119.41    4.19 
  -1  -5   3  119.15    4.32 
   1  -5  -3  114.76    4.38 
  -1   5   3  111.97    3.93 
  -1   5   3  120.60    4.55 
  -1   5   3  112.26    4.20 
  -1   5   3  113.26    3.87 
   0  -5  -3   40.72    1.56 
   0  -5  -3   37.50    1.56 
   0  -5  -3   41.71    1.41 
   0  -5  -3   41.30    1.71 
   0  -5  -3   41.52    1.49 
   0  -5  -3   39.74    1.38 
   0  -5  -3   40.77    1.86 
   0  -5  -3   40.35    1.45 
   0  -5  -3   40.93    1.50 
   0   5   3   37.62    1.40 
   0   5   3   37.83    1.02 
   0   5   3   35.93    1.34 
   0   5   3   38.07    1.33 
   0   5   3   37.65    1.44 
   0   5   3   37.44    1.34 
   0   5   3   39.83    1.57 
  -1  -5  -3    6.61    0.35 
  -1  -5  -3    6.27    0.44 
  -1  -5  -3    6.12    0.33 
  -1  -5  -3    6.21    0.33 
  -1  -5  -3    5.85    0.41 
  -1  -5  -3    6.09    0.33 
  -1  -5  -3    6.10    0.30 
  -1  -5  -3    6.03    0.32 
  -1  -5  -3    6.23    0.37 
   1   5   3    5.59    0.28 
   1   5   3    5.69    0.22 
   1   5   3    5.46    0.32 
   1   5   3    6.43    0.36 
   1   5   3    5.46    0.29 
   1   5   3    5.75    0.30 
   1   5   3    5.76    0.30 
   1   5   3    5.71    0.39 
   1   5   3    5.68    0.29 
  -2  -5  -3    4.89    0.30 
  -2  -5  -3    5.24    0.30 
  -2  -5  -3    5.44    0.33 
  -2  -5  -3    4.70    0.31 
  -2  -5  -3    4.29    0.36 
  -2  -5  -3    5.00    0.40 
  -2  -5  -3    5.14    0.31 
   2   5   3    4.91    0.38 
   2   5   3    4.99    0.30 
   2   5   3    4.96    0.27 
   2   5   3    5.03    0.28 
   2   5   3    4.94    0.21 
   2   5   3    5.22    0.28 
   2   5   3    4.60    0.30 
   2   5   3    4.35    0.33 
  -3  -5  -3    8.40    0.44 
  -3  -5  -3    7.19    0.37 
  -3  -5  -3    8.14    0.32 
  -3  -5  -3    8.12    0.39 
  -3  -5  -3    8.34    0.40 
  -3  -5  -3    8.10    0.36 
  -3  -5  -3    8.02    0.28 
  -3  -5  -3    9.15    0.54 
  -3  -5  -3    7.91    0.39 
  -3  -5  -3    8.26    0.41 
   3   5   3    7.31    0.28 
   3   5   3    7.82    0.36 
   3   5   3    7.49    0.37 
   3   5   3    8.03    0.32 
   3   5   3    7.60    0.26 
   3   5   3    8.09    0.38 
   3   5   3    7.17    0.32 
   3   5   3    7.43    0.40 
   3   5   3    7.77    0.34 
   3   5   3    7.93    0.38 
   3   5   3    7.45    0.32 
  -4  -5  -3    6.17    0.35 
  -4  -5  -3    7.56    0.32 
  -4  -5  -3    7.31    0.24 
  -4  -5  -3    6.88    0.35 
  -4  -5  -3    7.29    0.36 
   4   5   3    6.99    0.26 
   4   5   3    6.88    0.22 
   4   5   3    6.95    0.29 
   4   5   3    7.46    0.34 
   4   5   3    6.72    0.35 
   4   5   3    6.82    0.31 
   4   5   3    6.66    0.29 
   4   5   3    6.35    0.33 
   4   5   3    6.72    0.34 
   4   5   3    6.49    0.27 
  -5  -5  -3    0.36    0.09 
  -5  -5  -3    0.41    0.11 
  -5  -5  -3    0.28    0.07 
  -5  -5  -3    0.46    0.10 
   5   5   3    0.17    0.09 
   5   5   3    0.34    0.07 
   5   5   3    0.26    0.09 
   5   5   3    0.46    0.13 
   5   5   3    0.39    0.08 
   5   5   3    0.39    0.08 
  -6  -5  -3    2.92    0.15 
  -6  -5  -3    3.09    0.09 
  -6  -5  -3    3.03    0.13 
   6   5   3    2.96    0.13 
   6   5   3    2.57    0.15 
  -5  -6   3    3.63    0.16 
  -5  -6   3    3.45    0.15 
   5   6  -3    3.17    0.15 
  -5   6   3    3.47    0.13 
   5   6  -3    3.18    0.13 
   5   6  -3    3.20    0.16 
   5   6  -3    3.26    0.15 
   5   6  -3    3.39    0.17 
  -4  -6   3    2.20    0.25 
  -4  -6   3    2.65    0.17 
  -4   6   3    2.48    0.14 
   4   6  -3    2.66    0.17 
  -4   6   3    2.52    0.14 
   4   6  -3    2.24    0.15 
   4   6  -3    2.52    0.16 
  -4   6   3    2.63    0.09 
   4   6  -3    2.52    0.14 
  -3  -6   3    2.46    0.17 
  -3   6   3    2.12    0.11 
   3   6  -3    2.06    0.17 
   3   6  -3    2.23    0.17 
  -3   6   3    2.18    0.15 
   3   6  -3    1.84    0.14 
  -3   6   3    2.11    0.14 
  -3   6   3    2.16    0.14 
   3   6  -3    1.90    0.13 
   2   6  -3   -0.01    0.07 
   2   6  -3    0.03    0.05 
  -2   6   3    0.02    0.06 
   2   6  -3    0.14    0.07 
  -2   6   3   -0.03    0.06 
   2   6  -3   -0.13    0.07 
  -2   6   3    0.07    0.05 
  -2   6   3   -0.03    0.08 
  -1  -6   3   16.43    0.64 
   1  -6  -3   17.07    0.65 
   1  -6  -3   16.23    0.64 
   1   6  -3   15.42    0.45 
  -1   6   3   15.27    0.50 
   1   6  -3   15.22    0.51 
  -1   6   3   15.46    0.48 
   1   6  -3   14.92    0.51 
  -1   6   3   15.15    0.47 
  -1   6   3   15.32    0.52 
  -1   6   3   15.33    0.52 
   0  -6  -3   12.30    0.72 
   0  -6  -3   13.14    0.52 
   0  -6  -3   13.45    0.60 
   0  -6  -3   13.28    0.54 
   0  -6  -3   13.18    0.46 
   0  -6  -3   13.77    0.54 
   0  -6  -3   12.37    0.54 
   0   6   3   12.31    0.49 
   0   6   3   12.16    0.42 
   0   6   3   12.99    0.45 
   0   6   3   12.80    0.44 
   0   6   3   12.69    0.41 
   0   6  -3   12.87    0.42 
   0   6   3   12.86    0.47 
   0   6   3   12.63    0.35 
   0   6   3   12.70    0.45 
  -1  -6  -3   12.20    0.50 
  -1  -6  -3   12.30    0.70 
  -1  -6  -3   11.96    0.50 
  -1  -6  -3   12.47    0.44 
   1   6   3   11.79    0.40 
   1   6   3   12.26    0.48 
   1   6   3   11.12    0.50 
   1   6   3   11.72    0.42 
   1   6   3   11.61    0.47 
   1   6   3   12.30    0.43 
   1   6   3   11.71    0.42 
   1   6   3   12.41    0.43 
   1   6   3   11.69    0.47 
   1   6   3   11.75    0.35 
  -2  -6  -3   11.71    0.41 
  -2  -6  -3   11.58    0.48 
  -2  -6  -3   11.86    0.67 
  -2  -6  -3   10.96    0.47 
   2   6   3   11.48    0.35 
   2   6   3   11.70    0.48 
   2   6   3   11.44    0.42 
   2   6   3   11.47    0.31 
   2   6   3   11.66    0.41 
   2   6   3   11.17    0.47 
   2   6   3   11.80    0.43 
   2   6   3   11.74    0.37 
   2   6   3   11.80    0.40 
   2   6   3   10.50    0.46 
   2   6   3   11.50    0.41 
   2   6   3   11.50    0.47 
   2   6   3   11.31    0.41 
  -3  -6  -3    2.23    0.15 
  -3  -6  -3    1.92    0.17 
  -3  -6  -3    2.41    0.26 
  -3  -6  -3    2.10    0.13 
   3   6   3    1.81    0.16 
   3   6   3    2.24    0.16 
   3   6   3    2.34    0.11 
   3   6   3    2.17    0.13 
   3   6   3    2.11    0.12 
   3   6   3    2.19    0.17 
   3   6   3    2.56    0.17 
   3   6   3    2.21    0.16 
   3   6   3    2.09    0.18 
   3   6   3    2.40    0.15 
  -4  -6  -3    0.14    0.07 
  -4  -6  -3    0.35    0.07 
   4   6   3    0.16    0.07 
   4   6   3    0.13    0.03 
   4   6   3    0.07    0.07 
   4   6   3    0.09    0.08 
   4   6   3    0.16    0.05 
   4   6   3    0.15    0.07 
   4   6   3   -0.04    0.05 
  -3  -7   3   14.11    0.46 
  -3   7   3   13.68    0.43 
   3   7  -3   13.80    0.44 
   3   7  -3   13.39    0.39 
  -2   7   3    2.36    0.12 
   2   7  -3    2.25    0.12 
  -2   7   3    2.31    0.12 
  -1   7   3   25.19    0.82 
  -1   7   3   25.37    0.71 
  -1   7   3   25.56    0.80 
  -1   7   3   25.20    0.80 
   0  -7  -3    2.34    0.14 
   0   7   3    2.16    0.09 
   0   7   3    2.10    0.11 
   0   7   3    1.97    0.13 
   0   7   3    2.23    0.13 
  -1  -7  -3    0.67    0.10 
   1   7   3    0.51    0.10 
   1   7   3    0.66    0.11 
   1   7   3    0.78    0.09 
   1   7   3    0.54    0.11 
   1   7   3    0.67    0.08 
  -2  -7  -3   11.15    0.33 
  -2  -7  -3   10.75    0.37 
   2   7   3   10.77    0.33 
   2   7   3    9.85    0.36 
   2   7   3   10.32    0.36 
   2   7   3   10.29    0.32 
   2   7   3   10.78    0.33 
   2   7   3   10.67    0.34 
   2   7   3   10.44    0.30 
  -9   0   4    0.13    0.08 
  -9   0   4    0.07    0.05 
   9   0  -4    0.07    0.05 
  -9   0   4    0.13    0.07 
  -9   0   4    0.18    0.07 
  -9   0   4    0.09    0.08 
  -9   0   4    0.09    0.07 
  -8   0   4    9.61    0.38 
   8   0  -4    9.41    0.29 
  -8   0   4    8.45    0.41 
  -8   0   4    9.42    0.37 
  -8   0   4    9.50    0.29 
  -8   0   4    9.63    0.34 
  -8   0   4    9.29    0.32 
   8   0  -4    9.51    0.34 
  -8   0   4    8.75    0.38 
  -8   0   4    8.80    0.37 
  -8   0   4    9.13    0.29 
   8   0  -4    9.67    0.37 
  -8   0   4    8.09    0.42 
  -8   0   4    9.39    0.41 
   8   0  -4    9.58    0.55 
  -8   0   4    9.00    0.31 
  -8   0   4    8.49    0.30 
  -7   0   4    9.34    0.42 
  -7   0   4    9.62    0.44 
  -7   0   4    8.83    0.34 
   7   0  -4    9.38    0.46 
  -7   0   4    9.39    0.40 
   7   0  -4    9.17    0.44 
  -7   0   4    8.60    0.37 
  -7   0   4    9.71    0.44 
   7   0  -4    9.54    0.42 
   7   0  -4    9.37    0.39 
   7   0  -4    9.28    0.45 
   7   0  -4    9.67    0.44 
  -7   0   4    9.69    0.43 
  -7   0   4    9.12    0.31 
  -7   0   4    8.83    0.23 
  -7   0   4    8.64    0.35 
  -7   0   4    9.83    0.44 
  -7   0   4    9.40    0.43 
   7   0  -4    7.74    0.44 
   7   0  -4    9.70    0.58 
   7   0  -4    9.04    0.35 
  -7   0   4    9.26    0.48 
  -7   0   4    9.11    0.38 
   7   0  -4    9.28    0.31 
  -6   0   4   10.93    0.49 
   6   0  -4   11.65    0.52 
  -6   0   4   11.36    0.72 
   6   0  -4   11.49    0.53 
  -6   0   4   11.97    0.48 
   6   0  -4   10.84    0.62 
   6   0  -4   11.67    0.61 
  -6   0   4   11.68    0.72 
  -6   0   4   11.82    0.50 
  -6   0   4   11.69    0.48 
  -6   0   4   11.68    0.55 
   6   0  -4   11.74    0.51 
  -6   0   4   11.79    0.49 
   6   0  -4   10.83    0.51 
   6   0  -4   11.56    0.48 
  -6   0   4   11.66    0.52 
  -6   0   4   12.00    0.34 
  -6   0   4   11.96    0.51 
  -6   0   4   11.72    0.41 
   6   0  -4   11.50    0.68 
   6   0  -4   11.45    0.51 
  -6   0   4   12.61    0.59 
  -5   0   4   17.67    0.67 
   5   0  -4   17.95    0.80 
   5   0  -4   17.08    0.69 
  -5   0   4   17.86    0.65 
   5   0  -4   14.47    0.78 
   5   0  -4   18.22    0.65 
  -5   0   4   16.29    0.63 
  -5   0   4   17.77    0.68 
  -5   0   4   17.39    0.81 
  -5   0   4   16.54    0.64 
   5   0  -4   18.16    0.68 
   5   0  -4   18.22    0.72 
  -5   0   4   17.26    0.98 
  -5   0   4   17.79    0.69 
   5   0  -4   16.93    0.68 
   5   0  -4   18.41    0.86 
   5   0  -4   18.72    0.70 
  -5   0   4   17.22    0.73 
  -5   0   4   17.16    0.51 
  -5   0   4   17.63    0.96 
   4   0  -4    0.93    0.15 
  -4   0   4    1.04    0.13 
   4   0  -4    1.17    0.15 
   4   0  -4    1.10    0.16 
  -4   0   4    1.13    0.17 
   4   0  -4    0.80    0.12 
  -4   0   4    0.84    0.19 
  -4   0   4    0.92    0.14 
   4   0  -4    0.91    0.12 
  -4   0   4    1.08    0.22 
   4   0  -4    1.15    0.15 
   4   0  -4    1.04    0.18 
  -3   0   4   86.22    3.94 
  -3   0   4   89.71    4.22 
   3   0  -4   85.61    3.56 
   3   0  -4   89.38    3.93 
  -3   0   4   92.57    3.53 
   3   0  -4   87.58    4.22 
  -3   0   4   89.26    3.57 
  -3   0   4   97.89    4.56 
   3   0  -4   93.24    3.51 
  -2   0   4   11.54    0.51 
  -2   0   4   10.76    0.48 
   2   0  -4   11.55    0.51 
   2   0  -4   11.99    0.50 
  -2   0   4   11.35    0.51 
   2   0  -4   11.50    0.60 
  -2   0   4   11.39    0.61 
  -1   0   4  190.80    6.79 
   1   0  -4  195.24    7.53 
  -1   0   4  196.72    7.47 
  -1   0   4  191.46    7.59 
   1   0  -4  192.45    8.98 
   1   0  -4  201.43    7.47 
   0   0   4    0.47    0.10 
   0   0   4    0.47    0.10 
   0   0   4    0.38    0.09 
   0   0  -4    0.43    0.14 
   0   0  -4    0.40    0.10 
   1   0   4   39.03    1.54 
   1   0   4   38.75    1.56 
  -1   0  -4   39.42    1.98 
  -1   0  -4   38.76    1.85 
  -1   0  -4   39.17    1.64 
  -1   0  -4   40.80    1.55 
   1   0   4   37.98    1.43 
   1   0   4   38.25    1.42 
  -2   0  -4    7.78    0.36 
   2   0   4    7.78    0.40 
  -2   0  -4    7.90    0.36 
   2   0   4    7.87    0.36 
  -2   0  -4    7.88    0.45 
   2   0   4    7.62    0.37 
   2   0   4    7.28    0.32 
  -2   0  -4    7.87    0.36 
   2   0   4    7.88    0.37 
   2   0   4    7.70    0.34 
   3   0   4  345.71   12.18 
   3   0   4  348.55   14.74 
  -3   0  -4  355.35   16.95 
   3   0   4  332.85   13.09 
   3   0   4  331.04   11.64 
   3   0   4  339.32   12.35 
  -3   0  -4  346.60   13.40 
  -3   0  -4  342.43   14.07 
   3   0   4  355.20   13.30 
   3   0   4  336.79   11.96 
  -3   0  -4  349.22   15.73 
  -3   0  -4  322.64   13.17 
   3   0   4  328.93   11.82 
   4   0   4    0.94    0.16 
  -4   0  -4    0.94    0.15 
   4   0   4    0.81    0.16 
  -4   0  -4    1.03    0.17 
   4   0   4    1.01    0.12 
  -4   0  -4    0.83    0.11 
   4   0   4    0.71    0.14 
   4   0   4    0.87    0.13 
  -4   0  -4    1.03    0.17 
  -4   0  -4    1.00    0.16 
   4   0   4    0.93    0.15 
   4   0   4    0.91    0.13 
  -4   0  -4    0.83    0.15 
   4   0   4    0.88    0.17 
   4   0   4    0.92    0.13 
   5   0   4    2.46    0.25 
   5   0   4    2.39    0.18 
  -5   0  -4    2.44    0.13 
  -5   0  -4    2.44    0.22 
   5   0   4    2.35    0.20 
  -5   0  -4    2.18    0.20 
  -5   0  -4    2.43    0.22 
   5   0   4    2.27    0.20 
   5   0   4    2.28    0.24 
   5   0   4    2.35    0.29 
  -5   0  -4    2.50    0.20 
   5   0   4    2.32    0.21 
   5   0   4    2.35    0.20 
  -6   0  -4    8.52    0.36 
   6   0   4    6.91    0.39 
  -6   0  -4    8.21    0.32 
  -6   0  -4    8.48    0.34 
   6   0   4    8.35    0.52 
   6   0   4    8.63    0.38 
  -6   0  -4    8.32    0.33 
   6   0   4    8.44    0.41 
  -6   0  -4    8.22    0.34 
  -6   0  -4    7.99    0.23 
  -6   0  -4    8.38    0.38 
  -6   0  -4    8.06    0.26 
   6   0   4    8.47    0.33 
  -6   0  -4    8.44    0.40 
  -6   0  -4    8.74    0.37 
   6   0   4    8.19    0.37 
  -6   0  -4    8.37    0.37 
  -7   0  -4    0.49    0.13 
  -7   0  -4    0.23    0.10 
   7   0   4    0.25    0.07 
  -7   0  -4    0.18    0.07 
  -7   0  -4    0.23    0.09 
   7   0   4    0.09    0.14 
  -7   0  -4    0.16    0.08 
   9  -1  -4    4.95    0.16 
  -9  -1   4    5.03    0.22 
  -9  -1   4    4.96    0.21 
  -9  -1   4    4.77    0.17 
  -9  -1   4    5.08    0.15 
   9   1  -4    5.01    0.18 
  -9   1   4    4.50    0.15 
  -9   1   4    4.62    0.18 
   9   1  -4    4.66    0.20 
  -9   1   4    4.32    0.21 
  -9   1   4    4.85    0.20 
  -9   1   4    4.76    0.18 
   9   1  -4    5.18    0.20 
  -8  -1   4    1.94    0.21 
  -8  -1   4    1.76    0.20 
   8  -1  -4    1.92    0.13 
   8  -1  -4    2.48    0.30 
  -8  -1   4    1.85    0.16 
  -8  -1   4    1.74    0.20 
  -8  -1   4    1.96    0.21 
   8  -1  -4    1.87    0.18 
  -8  -1   4    1.42    0.22 
  -8  -1   4    1.65    0.18 
  -8  -1   4    1.84    0.21 
   8  -1  -4    2.01    0.15 
   8   1  -4    2.05    0.17 
  -8   1   4    1.91    0.15 
  -8   1   4    1.99    0.14 
  -8   1   4    1.90    0.21 
   8   1  -4    2.02    0.18 
   8   1  -4    2.10    0.17 
  -8   1   4    2.01    0.18 
  -8   1   4    1.85    0.14 
  -8   1   4    1.83    0.17 
   8   1  -4    1.94    0.18 
  -8   1   4    1.78    0.20 
  -8   1   4    2.08    0.11 
  -8   1   4    1.64    0.18 
  -8   1   4    2.21    0.20 
  -8   1   4    1.84    0.17 
  -8   1   4    1.92    0.19 
  -8   1   4    1.44    0.19 
   7  -1  -4   13.58    0.75 
   7  -1  -4   13.96    0.60 
   7  -1  -4   11.45    0.59 
  -7  -1   4   13.52    0.63 
  -7  -1   4   13.50    0.44 
  -7  -1   4   13.18    0.52 
  -7  -1   4   13.94    0.59 
  -7  -1   4   13.46    0.55 
  -7  -1   4   12.73    0.55 
  -7  -1   4   13.12    0.54 
  -7  -1   4   13.43    0.57 
  -7  -1   4   13.45    0.58 
  -7  -1   4   13.09    0.39 
   7  -1  -4   12.18    0.56 
  -7  -1   4   13.46    0.35 
   7  -1  -4   13.73    0.54 
  -7  -1   4   13.59    0.50 
  -7  -1   4   13.62    0.44 
  -7  -1   4   13.32    0.48 
  -7  -1   4   13.36    0.47 
  -7  -1   4   13.05    0.51 
   7  -1  -4   13.61    0.47 
  -7   1   4   13.36    0.55 
  -7   1   4   12.79    0.46 
   7   1  -4   13.38    0.58 
   7   1  -4   12.74    0.39 
   7   1  -4   12.89    0.49 
  -7   1   4   13.42    0.55 
  -7   1   4   12.91    0.48 
  -7   1   4   12.56    0.40 
  -7   1   4   13.33    0.54 
  -7   1   4   12.14    0.49 
  -7   1   4   12.52    0.50 
  -7   1   4   13.46    0.54 
  -7   1   4   12.79    0.50 
  -7   1   4   12.47    0.49 
  -7   1   4   12.47    0.43 
   7   1  -4   12.91    0.48 
   7   1  -4   12.90    0.48 
  -7   1   4   12.43    0.48 
   7   1  -4   12.50    0.55 
   7   1  -4   13.25    0.56 
  -7   1   4   13.05    0.58 
  -7   1   4   12.66    0.38 
  -7   1   4   13.07    0.54 
  -7   1   4   13.41    0.40 
   6  -1  -4   34.60    1.77 
  -6  -1   4   35.61    1.14 
  -6  -1   4   33.57    1.29 
  -6  -1   4   34.39    1.24 
   6  -1  -4   32.16    1.63 
   6  -1  -4   36.55    1.25 
   6  -1  -4   34.10    1.38 
  -6  -1   4   36.84    1.30 
   6  -1  -4   36.91    1.38 
   6  -1  -4   36.02    1.33 
   6  -1  -4   35.64    1.28 
  -6  -1   4   36.57    1.57 
   6  -1  -4   36.34    1.32 
  -6  -1   4   35.32    1.01 
  -6  -1   4   36.43    1.33 
  -6  -1   4   34.82    1.25 
  -6   1   4   36.64    1.38 
   6   1  -4   31.49    1.33 
   6   1  -4   36.62    1.32 
  -6   1   4   37.63    1.00 
  -6   1   4   36.34    1.26 
  -6   1   4   35.70    1.22 
  -6   1   4   35.91    1.28 
  -6   1   4   35.53    1.28 
   6   1  -4   36.30    1.33 
   6   1  -4   33.44    1.14 
  -6   1   4   35.43    1.86 
  -6   1   4   36.41    1.22 
   6   1  -4   35.25    1.24 
   6   1  -4   32.47    1.37 
  -6   1   4   34.09    1.51 
  -6   1   4   37.16    1.34 
   6   1  -4   37.67    1.78 
  -6   1   4   30.74    1.48 
   6   1  -4   35.16    1.31 
   5  -1  -4   13.79    0.62 
   5  -1  -4   13.45    0.67 
  -5  -1   4   14.96    0.58 
   5  -1  -4   14.80    0.59 
   5  -1  -4   13.82    0.57 
  -5  -1   4   15.59    0.84 
  -5  -1   4   15.16    0.57 
   5  -1  -4   13.99    0.61 
  -5  -1   4   13.86    0.56 
   5  -1  -4   14.91    0.68 
   5  -1  -4   13.97    0.55 
   5  -1  -4   14.46    0.72 
  -5  -1   4   14.94    0.60 
   5  -1  -4   14.21    0.56 
  -5   1   4   13.78    0.55 
   5   1  -4   14.89    0.58 
   5   1  -4   14.06    0.80 
  -5   1   4   13.31    0.53 
   5   1  -4   12.99    0.70 
  -5   1   4   14.05    0.65 
  -5   1   4   13.50    0.80 
  -5   1   4   13.34    0.55 
   5   1  -4   14.14    0.68 
   5   1  -4   13.60    0.56 
  -5   1   4   13.29    0.64 
   5   1  -4   14.67    0.57 
  -5   1   4   13.84    0.55 
   5   1  -4   15.33    0.58 
  -5   1   4   14.03    0.60 
  -5   1   4   13.83    0.53 
  -4  -1   4   35.47    1.32 
  -4  -1   4   37.14    1.24 
  -4  -1   4   36.06    1.34 
  -4  -1   4   36.62    1.65 
   4  -1  -4   35.26    1.32 
   4  -1  -4   35.63    1.30 
   4  -1  -4   34.77    1.37 
   4  -1  -4   39.17    1.50 
  -4  -1   4   36.44    1.37 
   4  -1  -4   35.20    1.47 
  -4  -1   4   34.59    1.32 
   4  -1  -4   36.56    1.36 
  -4  -1   4   37.16    1.79 
  -4  -1   4   37.14    1.52 
   4  -1  -4   36.84    1.63 
   4  -1  -4   34.58    1.28 
  -4  -1   4   35.70    1.50 
   4   1  -4   36.56    1.74 
   4   1  -4   35.16    1.28 
  -4   1   4   33.82    1.34 
  -4   1   4   34.97    1.21 
  -4   1   4   34.67    1.45 
   4   1  -4   35.59    1.46 
  -4   1   4   34.13    1.27 
   4   1  -4   36.31    1.29 
  -4   1   4   34.81    1.73 
  -4   1   4   34.46    1.51 
  -4   1   4   36.01    1.83 
   3  -1  -4    1.77    0.17 
  -3  -1   4    1.49    0.18 
   3  -1  -4    1.82    0.19 
   3  -1  -4    1.82    0.16 
  -3  -1   4    1.47    0.15 
  -3  -1   4    1.68    0.18 
   3  -1  -4    1.83    0.17 
   3  -1  -4    1.50    0.13 
  -3  -1   4    1.62    0.19 
  -3  -1   4    1.60    0.22 
   3  -1  -4    1.58    0.15 
  -3  -1   4    1.52    0.17 
   3   1  -4    1.58    0.20 
  -3   1   4    1.63    0.16 
  -3   1   4    1.65    0.17 
  -3   1   4    1.64    0.19 
   3   1  -4    1.50    0.16 
   3   1  -4    1.48    0.18 
   3   1  -4    1.53    0.15 
  -3   1   4    1.77    0.21 
  -2  -1   4  130.95    4.92 
  -2  -1   4  125.30    4.57 
   2  -1  -4  132.51    4.91 
   2  -1  -4  130.90    5.52 
   2  -1  -4  125.37    4.48 
  -2  -1   4  125.05    5.52 
  -2  -1   4  110.32    4.47 
   2  -1  -4  128.99    5.91 
  -2  -1   4  129.94    4.99 
   2  -1  -4  127.29    4.56 
   2  -1  -4  131.89    4.99 
   2   1  -4  125.92    5.76 
  -2   1   4  130.18    5.77 
   2   1  -4  120.34    6.19 
   2   1  -4  117.68    4.83 
  -2   1   4  124.84    4.87 
   2   1  -4  122.29    5.15 
  -2   1   4  126.94    4.80 
  -1  -1   4  102.28    3.66 
  -1  -1   4  101.20    4.00 
   1  -1  -4   99.70    3.61 
   1  -1  -4  100.85    4.01 
   1  -1  -4   99.62    4.74 
   1  -1  -4  103.67    3.95 
  -1  -1   4  102.24    3.94 
  -1  -1   4  106.56    3.59 
  -1   1   4   97.12    4.60 
   1   1  -4   97.69    4.58 
  -1   1   4   98.47    3.83 
   1   1  -4  101.49    3.84 
  -1   1   4   99.37    3.88 
   0  -1  -4  154.01    5.71 
   0  -1   4  143.11    5.78 
   0  -1  -4  151.04    5.80 
   0  -1   4  147.85    5.17 
   0  -1   4  148.66    5.69 
   0  -1  -4  149.65    6.86 
   0  -1   4  142.97    5.29 
   0   1  -4  143.86    6.49 
   0   1   4  140.31    6.52 
   0   1   4  141.31    5.42 
   0   1  -4  143.58    5.44 
   0   1  -4  138.69    5.44 
   0   1   4  140.84    5.51 
   0   1   4  136.27    4.93 
  -1  -1  -4    8.21    0.39 
  -1  -1  -4    7.59    0.48 
   1  -1   4    8.46    0.34 
   1  -1   4    8.50    0.37 
  -1  -1  -4    8.16    0.42 
   1  -1   4    8.16    0.33 
   1  -1   4    8.37    0.36 
  -1  -1  -4    8.53    0.47 
   1   1   4    7.62    0.35 
   1   1   4    7.66    0.37 
  -1   1  -4    7.74    0.34 
  -1   1  -4    8.59    0.33 
   1   1   4    7.66    0.40 
  -1   1  -4    7.85    0.34 
   1   1   4    7.60    0.46 
   1   1   4    8.17    0.37 
   1   1   4    8.10    0.38 
  -2  -1  -4  101.99    4.72 
  -2  -1  -4  100.83    5.07 
   2  -1   4  100.71    3.90 
  -2  -1  -4   99.73    4.21 
   2  -1   4   99.58    3.63 
   2  -1   4  101.84    3.55 
  -2  -1  -4   97.83    4.01 
   2  -1   4  105.11    4.40 
  -2   1  -4   89.88    3.78 
   2   1   4   99.59    3.86 
   2   1   4  100.31    4.27 
  -2   1  -4  103.89    3.78 
   2   1   4  100.83    3.47 
   2   1   4   97.56    3.54 
   2   1   4  101.32    3.81 
  -2   1  -4  101.93    3.86 
   2   1   4   87.54    3.47 
   2   1   4   93.68    3.57 
  -3  -1  -4    2.97    0.22 
   3  -1   4    2.98    0.18 
  -3  -1  -4    2.85    0.26 
   3  -1   4    2.99    0.19 
  -3  -1  -4    2.60    0.26 
  -3  -1  -4    2.75    0.18 
  -3  -1  -4    3.22    0.21 
   3  -1   4    2.88    0.15 
   3   1   4    3.04    0.23 
   3   1   4    3.04    0.18 
  -3   1  -4    2.69    0.18 
   3   1   4    3.05    0.22 
  -3   1  -4    2.94    0.14 
   3   1   4    2.95    0.19 
   3   1   4    3.40    0.24 
   3   1   4    2.99    0.18 
   3   1   4    2.96    0.17 
   3   1   4    2.91    0.22 
  -4  -1  -4   16.10    0.84 
  -4  -1  -4   14.67    0.82 
  -4  -1  -4   14.56    0.59 
  -4  -1  -4   14.40    0.55 
   4  -1   4   14.34    0.55 
  -4  -1  -4   13.90    0.67 
  -4  -1  -4   14.26    0.67 
   4  -1   4   14.84    0.61 
   4   1   4   14.76    0.60 
  -4   1  -4   14.15    0.53 
   4   1   4   15.39    0.59 
   4   1   4   14.53    0.79 
   4   1   4   14.04    0.63 
   4   1   4   15.03    0.70 
  -4   1  -4   13.97    0.58 
  -4   1  -4   14.57    0.63 
   4   1   4   11.92    0.66 
   4   1   4   14.72    0.61 
   4   1   4   14.66    0.73 
   4   1   4   14.67    0.55 
   4   1   4   15.01    0.56 
  -5  -1  -4   20.87    0.91 
   5  -1   4   19.54    0.83 
  -5  -1  -4   19.54    0.59 
  -5  -1  -4   20.62    0.78 
  -5  -1  -4   20.53    0.84 
  -5  -1  -4   20.31    0.73 
  -5  -1  -4   19.69    0.88 
  -5  -1  -4   19.47    1.10 
   5  -1   4   19.97    0.75 
   5   1   4   20.48    0.82 
  -5   1  -4   20.04    0.71 
  -5   1  -4   18.15    0.72 
   5   1   4   20.14    0.98 
   5   1   4   17.95    0.83 
  -5   1  -4   18.96    0.84 
   5   1   4   20.33    1.05 
   5   1   4   21.21    0.79 
   5   1   4   20.57    0.74 
   5   1   4   19.70    0.80 
  -6  -1  -4   14.67    0.51 
   6  -1   4   14.07    0.56 
  -6  -1  -4   14.34    0.57 
  -6  -1  -4   14.36    0.42 
  -6  -1  -4   13.61    0.43 
  -6  -1  -4   14.16    0.62 
  -6  -1  -4   14.42    0.51 
  -6  -1  -4   13.64    0.52 
  -6  -1  -4   14.24    0.51 
  -6  -1  -4   14.57    0.54 
  -6  -1  -4   14.16    0.40 
  -6  -1  -4   14.21    0.46 
  -6  -1  -4   14.82    0.59 
   6   1   4   12.79    0.60 
  -6   1  -4   14.69    0.51 
  -6   1  -4   14.47    0.45 
   6   1   4   14.39    0.57 
   6   1   4   14.32    0.79 
  -6   1  -4   14.56    0.50 
   6   1   4   14.31    0.50 
  -6   1  -4   14.28    0.48 
  -6   1  -4   14.69    0.47 
   7  -1   4    7.66    0.29 
  -7  -1  -4    7.22    0.28 
  -7  -1  -4    7.46    0.27 
  -7  -1  -4    7.45    0.31 
  -7  -1  -4    7.68    0.31 
  -7  -1  -4    7.35    0.29 
  -7  -1  -4    7.41    0.30 
  -7  -1  -4    7.24    0.32 
  -7  -1  -4    7.54    0.24 
  -7  -1  -4    7.77    0.25 
  -7   1  -4    7.57    0.28 
   7   1   4    7.83    0.29 
  -7   1  -4    7.52    0.25 
  -7   1  -4    7.91    0.30 
  -7   1  -4    7.70    0.26 
   7   1   4    7.17    0.46 
   7   1   4    7.44    0.31 
   7   1   4    7.12    0.25 
   8  -2  -4   14.54    0.78 
  -8  -2   4   14.40    0.48 
  -8  -2   4   14.39    0.35 
  -8  -2   4   14.20    0.51 
  -8  -2   4   14.42    0.45 
  -8  -2   4   14.41    0.50 
  -8  -2   4   14.68    0.53 
   8  -2  -4   14.58    0.49 
  -8   2   4   13.73    0.50 
  -8   2   4   14.53    0.44 
   8   2  -4   14.27    0.45 
   8   2  -4   14.01    0.49 
  -8   2   4   14.38    0.49 
   8   2  -4   14.16    0.48 
  -8   2   4   14.20    0.46 
   8   2  -4   13.68    0.48 
  -8   2   4   14.03    0.48 
   8   2  -4   13.84    0.37 
   8   2  -4   14.13    0.50 
  -7  -2   4    6.61    0.35 
   7  -2  -4    6.24    0.32 
  -7  -2   4    6.42    0.27 
  -7  -2   4    6.67    0.31 
  -7  -2   4    5.96    0.30 
  -7  -2   4    6.52    0.35 
  -7  -2   4    6.28    0.28 
  -7  -2   4    5.56    0.30 
   7  -2  -4    6.26    0.27 
  -7  -2   4    6.44    0.34 
  -7  -2   4    6.26    0.22 
   7  -2  -4    6.67    0.44 
   7   2  -4    5.91    0.34 
  -7   2   4    6.36    0.30 
   7   2  -4    5.76    0.28 
   7   2  -4    6.49    0.30 
  -7   2   4    5.88    0.29 
  -7   2   4    6.01    0.29 
  -7   2   4    6.08    0.19 
   7   2  -4    5.96    0.23 
   7   2  -4    6.71    0.28 
  -7   2   4    5.55    0.28 
  -7   2   4    6.10    0.28 
  -7   2   4    6.19    0.30 
   7   2  -4    6.07    0.30 
   7   2  -4    6.36    0.27 
  -7   2   4    5.89    0.32 
   7   2  -4    6.18    0.31 
  -7   2   4    5.97    0.23 
  -7   2   4    6.32    0.31 
  -7   2   4    5.77    0.31 
   6  -2  -4    4.95    0.28 
   6  -2  -4    5.49    0.28 
  -6  -2   4    4.98    0.25 
   6  -2  -4    4.86    0.31 
   6  -2  -4    5.26    0.36 
   6  -2  -4    4.64    0.34 
   6  -2  -4    4.97    0.37 
  -6  -2   4    5.38    0.30 
   6  -2  -4    4.77    0.29 
   6  -2  -4    5.07    0.28 
  -6  -2   4    5.27    0.34 
  -6  -2   4    4.95    0.24 
  -6  -2   4    5.38    0.32 
  -6   2   4    4.73    0.19 
  -6   2   4    5.03    0.32 
  -6   2   4    4.95    0.28 
   6   2  -4    4.97    0.21 
   6   2  -4    5.16    0.26 
  -6   2   4    4.81    0.28 
   6   2  -4    5.16    0.28 
  -6   2   4    4.47    0.32 
  -6   2   4    4.77    0.28 
  -6   2   4    4.98    0.30 
   6   2  -4    5.06    0.28 
   6   2  -4    4.77    0.31 
  -6   2   4    4.79    0.27 
   5  -2  -4   82.94    3.14 
  -5  -2   4   82.73    3.10 
   5  -2  -4   87.52    3.17 
   5  -2  -4   82.91    3.06 
  -5  -2   4   88.43    3.82 
  -5  -2   4   87.47    4.13 
  -5  -2   4   86.77    3.49 
  -5  -2   4   85.66    3.18 
  -5  -2   4   83.88    2.89 
   5  -2  -4   83.43    2.98 
   5  -2  -4   86.70    3.03 
  -5  -2   4   87.51    3.07 
   5  -2  -4   90.18    3.78 
   5  -2  -4   87.28    3.44 
   5  -2  -4   85.99    2.87 
  -5  -2   4   88.61    3.06 
  -5  -2   4   85.89    2.88 
  -5  -2   4   83.53    3.04 
   5  -2  -4   78.79    4.12 
   5   2  -4   76.75    3.45 
  -5   2   4   83.97    4.11 
  -5   2   4   79.19    2.78 
  -5   2   4   81.06    3.85 
   5   2  -4   80.11    2.89 
  -5   2   4   84.75    3.02 
  -5   2   4   80.80    2.81 
   5   2  -4   81.11    2.71 
   5   2  -4   79.53    2.82 
  -5   2   4   80.97    3.27 
   5   2  -4   82.55    2.25 
   5   2  -4   80.00    2.53 
   5   2  -4   85.28    3.90 
   5   2  -4   79.47    2.90 
  -5   2   4   80.46    2.69 
  -5   2   4   85.13    2.75 
  -5   2   4   81.67    2.97 
  -5   2   4   81.56    2.80 
   5   2  -4   80.17    3.03 
   5   2  -4   81.20    4.16 
  -5   2   4   81.34    2.18 
   4  -2  -4  110.82    3.74 
  -4  -2   4  109.85    4.63 
   4  -2  -4  104.90    3.86 
  -4  -2   4  107.02    4.21 
   4  -2  -4  105.82    3.63 
   4  -2  -4  107.85    3.69 
   4  -2  -4  113.17    3.82 
  -4  -2   4  105.17    3.51 
  -4  -2   4  102.78    3.72 
  -4  -2   4   99.57    3.71 
  -4  -2   4  102.58    3.76 
   4  -2  -4  108.97    4.17 
   4  -2  -4  106.01    3.49 
   4  -2  -4  107.07    4.60 
  -4  -2   4  103.32    4.15 
  -4  -2   4  104.79    3.71 
  -4  -2   4   99.58    3.49 
   4  -2  -4   98.45    4.10 
  -4  -2   4  100.12    3.86 
   4   2  -4   97.63    4.77 
   4   2  -4  103.93    4.25 
  -4   2   4  100.06    3.72 
   4   2  -4  103.35    5.12 
   4   2  -4   98.87    3.73 
   4   2  -4  105.44    3.58 
   4   2  -4   97.61    2.78 
  -4   2   4  100.00    3.38 
  -4   2   4  104.38    4.22 
  -4   2   4   97.71    5.09 
  -4   2   4  105.07    4.04 
  -4   2   4  105.67    4.76 
   4   2  -4   97.20    3.57 
   3  -2  -4  130.63    4.81 
  -3  -2   4  143.57    5.54 
   3  -2  -4  138.97    4.95 
   3  -2  -4  138.69    5.12 
  -3  -2   4  135.30    4.96 
  -3  -2   4  133.81    4.90 
  -3  -2   4  146.66    5.46 
   3  -2  -4  142.37    4.89 
   3  -2  -4  145.17    5.05 
   3  -2  -4  148.00    5.52 
  -3  -2   4  135.60    4.81 
   3  -2  -4  140.51    5.44 
   3  -2  -4  144.73    6.10 
  -3  -2   4  143.12    6.12 
  -3  -2   4  134.72    5.11 
  -3  -2   4  143.55    5.07 
   3   2  -4  131.38    4.82 
   3   2  -4  136.82    6.41 
  -3   2   4  141.35    5.04 
  -3   2   4  139.64    4.57 
   3   2  -4  133.25    5.72 
  -3   2   4  143.45    6.41 
  -3   2   4  132.82    4.81 
  -3   2   4  141.27    5.45 
   3   2  -4  135.39    6.89 
  -3   2   4  139.87    6.89 
   3   2  -4  138.21    5.45 
  -3   2   4  138.05    5.71 
   2  -2  -4   25.83    0.96 
  -2  -2   4   24.92    1.07 
   2  -2  -4   25.43    0.98 
   2  -2  -4   26.01    1.17 
  -2  -2   4   26.14    0.99 
  -2  -2   4   26.56    1.09 
  -2  -2   4   26.67    1.18 
  -2  -2   4   26.75    0.99 
   2  -2  -4   25.09    1.06 
   2  -2  -4   26.92    1.08 
  -2  -2   4   25.42    0.96 
   2  -2  -4   24.97    1.01 
   2   2  -4   25.17    1.03 
   2   2  -4   26.56    1.22 
  -2   2   4   24.76    1.24 
   2   2  -4   25.05    1.30 
  -2   2   4   24.66    1.31 
   2   2  -4   24.88    1.07 
  -2   2   4   23.70    1.04 
   2   2  -4   25.73    1.03 
  -2   2   4   24.84    1.08 
   1  -2  -4  101.84    3.68 
   1  -2  -4  106.71    4.02 
  -1  -2   4  100.20    4.43 
  -1  -2   4   96.92    3.94 
  -1  -2   4  100.15    3.67 
   1  -2  -4  104.27    3.61 
   1  -2  -4  104.88    3.96 
  -1  -2   4  104.19    3.59 
  -1  -2   4   99.17    4.01 
   1  -2  -4   98.37    3.63 
   1  -2  -4  105.28    4.44 
  -1   2   4   94.69    4.03 
  -1   2   4   99.64    4.86 
   1   2  -4   92.91    4.48 
   1   2  -4   96.68    4.82 
  -1   2   4   98.11    4.52 
   1   2  -4  101.41    3.76 
  -1   2   4   94.18    3.84 
   1   2  -4   96.53    3.82 
   0  -2  -4   14.92    0.79 
   0  -2  -4   15.51    0.67 
   0  -2  -4   14.98    0.60 
   0  -2  -4   15.12    0.66 
   0  -2   4   14.96    0.57 
   0  -2   4   14.59    0.57 
   0  -2   4   14.82    0.62 
   0  -2  -4   15.77    0.72 
   0   2   4   13.29    0.63 
   0   2  -4   13.82    0.57 
   0   2   4   14.59    0.62 
   0   2   4   13.51    0.61 
   0   2   4   14.28    0.73 
   0   2   4   13.87    0.77 
  -1  -2  -4   37.38    1.81 
  -1  -2  -4   38.24    1.54 
  -1  -2  -4   38.23    1.51 
  -1  -2  -4   36.08    1.36 
  -1  -2  -4   37.95    1.68 
   1  -2   4   35.87    1.35 
   1  -2   4   37.17    1.32 
   1   2   4   34.84    1.30 
   1   2   4   37.01    1.44 
   1   2   4   35.37    1.46 
   1   2   4   36.66    1.60 
   1   2   4   33.79    1.73 
  -2  -2  -4   75.90    3.59 
  -2  -2  -4   74.74    2.72 
  -2  -2  -4   76.97    3.04 
  -2  -2  -4   75.84    2.69 
   2   2   4   73.98    2.65 
   2   2   4   70.39    2.75 
   2   2   4   75.67    3.29 
   2   2   4   78.09    2.95 
   2   2   4   74.61    2.67 
   2   2   4   73.30    2.98 
   2   2   4   75.56    2.64 
   2   2   4   75.26    3.55 
  -3  -2  -4   59.35    2.12 
  -3  -2  -4   60.26    3.04 
  -3  -2  -4   58.28    1.94 
  -3  -2  -4   59.80    1.99 
  -3  -2  -4   58.20    1.64 
  -3  -2  -4   56.92    2.85 
   3  -2   4   60.60    2.15 
  -3  -2  -4   59.45    2.11 
  -3  -2  -4   58.65    2.51 
   3   2   4   58.46    2.16 
   3   2   4   58.45    2.59 
   3   2   4   56.32    1.96 
   3   2   4   56.27    2.07 
   3   2   4   57.96    2.36 
   3   2   4   57.15    2.10 
   3   2   4   58.50    2.08 
   3   2   4   59.12    2.33 
  -4  -2  -4    2.58    0.22 
  -4  -2  -4    2.72    0.31 
  -4  -2  -4    2.75    0.23 
  -4  -2  -4    2.56    0.13 
  -4  -2  -4    2.70    0.21 
  -4  -2  -4    2.39    0.20 
  -4  -2  -4    2.33    0.16 
   4  -2   4    2.76    0.19 
  -4  -2  -4    2.58    0.24 
  -4  -2  -4    2.79    0.33 
   4   2   4    2.76    0.22 
   4   2   4    2.64    0.22 
   4   2   4    2.49    0.20 
   4   2   4    2.15    0.29 
   4   2   4    2.42    0.20 
   4   2   4    2.77    0.26 
   4   2   4    2.60    0.21 
   4   2   4    2.53    0.26 
  -5  -2  -4    6.07    0.25 
  -5  -2  -4    6.17    0.33 
  -5  -2  -4    6.22    0.32 
   5  -2   4    6.15    0.28 
  -5  -2  -4    5.98    0.35 
  -5  -2  -4    5.66    0.35 
  -5  -2  -4    5.72    0.36 
  -5  -2  -4    4.82    0.45 
   5   2   4    5.59    0.33 
   5   2   4    5.74    0.34 
   5   2   4    6.19    0.34 
   5   2   4    5.89    0.44 
   5   2   4    5.08    0.31 
   5   2   4    5.85    0.31 
   5   2   4    5.77    0.41 
   5   2   4    5.38    0.33 
  -6  -2  -4    0.05    0.12 
  -6  -2  -4    0.00    0.12 
  -6  -2  -4   -0.14    0.14 
  -6  -2  -4    0.04    0.11 
  -6  -2  -4    0.02    0.10 
  -6  -2  -4    0.21    0.13 
  -6  -2  -4    0.04    0.13 
  -6  -2  -4    0.14    0.10 
  -6  -2  -4    0.22    0.09 
  -6  -2  -4    0.11    0.07 
   6   2   4    0.13    0.09 
   6   2   4    0.12    0.06 
  -6   2  -4    0.13    0.07 
   6   2   4    0.07    0.16 
   6   2   4    0.13    0.11 
  -6   2  -4    0.26    0.08 
  -6   2  -4    0.06    0.09 
   6   2   4    0.21    0.07 
   6   2   4    0.02    0.11 
  -7  -2  -4    1.90    0.16 
  -7  -2  -4    1.71    0.10 
  -7  -2  -4    1.69    0.12 
  -7  -2  -4    1.76    0.09 
  -7  -2  -4    1.76    0.17 
  -7  -2  -4    1.72    0.14 
  -7  -2  -4    1.78    0.15 
  -7   2  -4    1.70    0.09 
   7   2   4    1.97    0.16 
  -7   2  -4    1.69    0.13 
  -7   2  -4    1.66    0.14 
   7   2   4    1.99    0.10 
   8  -3  -4    0.94    0.11 
  -8  -3   4    0.90    0.14 
  -8  -3   4    0.88    0.11 
  -8  -3   4    1.00    0.13 
  -8  -3   4    0.86    0.06 
   8   3  -4    0.87    0.12 
  -8   3   4    0.73    0.10 
   8   3  -4    1.15    0.09 
  -8   3   4    0.96    0.08 
  -8   3   4    1.15    0.11 
  -8   3   4    1.05    0.12 
   8   3  -4    1.00    0.11 
  -8   3   4    1.17    0.13 
   8   3  -4    0.92    0.13 
  -7  -3   4   16.45    0.51 
  -7  -3   4   17.37    0.60 
  -7  -3   4   17.79    0.58 
  -7  -3   4   17.32    0.54 
   7  -3  -4   15.59    0.90 
  -7  -3   4   17.82    0.58 
   7  -3  -4   16.81    0.57 
  -7   3   4   16.83    0.57 
  -7   3   4   16.56    0.52 
   7   3  -4   17.36    0.64 
  -7   3   4   16.68    0.51 
  -7   3   4   15.15    0.58 
   7   3  -4   16.58    0.55 
   7   3  -4   16.55    0.52 
  -7   3   4   16.00    0.57 
   7   3  -4   16.28    0.68 
   7   3  -4   16.56    0.57 
   7   3  -4   16.29    0.57 
   7   3  -4   16.93    0.42 
  -7   3   4   16.41    0.55 
   7   3  -4   17.18    0.55 
   7   3  -4   16.36    0.59 
  -6  -3   4   25.09    0.96 
  -6  -3   4   22.55    1.02 
  -6  -3   4   27.76    0.99 
   6  -3  -4   25.32    0.92 
  -6  -3   4   27.12    0.95 
   6  -3  -4   24.38    0.84 
  -6  -3   4   23.74    1.01 
   6  -3  -4   26.09    1.03 
   6  -3  -4   26.58    0.97 
  -6  -3   4   26.13    1.01 
  -6  -3   4   26.53    0.87 
  -6  -3   4   26.83    0.86 
  -6  -3   4   25.82    1.04 
   6  -3  -4   25.86    0.96 
  -6  -3   4   26.00    0.73 
   6  -3  -4   23.79    1.31 
   6   3  -4   26.04    0.98 
  -6   3   4   25.47    0.70 
   6   3  -4   25.94    0.93 
   6   3  -4   25.30    0.83 
   6   3  -4   25.65    0.78 
  -6   3   4   25.45    0.85 
   6   3  -4   24.82    0.84 
   6   3  -4   26.53    0.84 
   6   3  -4   24.66    1.04 
  -6   3   4   25.28    0.80 
  -6   3   4   24.88    0.85 
  -6   3   4   26.12    0.92 
   6   3  -4   25.64    0.64 
   6   3  -4   25.95    0.71 
   6   3  -4   26.03    1.01 
   6   3  -4   26.02    0.74 
   6   3  -4   26.68    0.89 
  -6   3   4   26.27    0.94 
   6   3  -4   25.05    0.84 
   6   3  -4   25.38    0.99 
  -6   3   4   26.00    0.83 
  -5  -3   4    0.31    0.16 
  -5  -3   4    0.14    0.12 
   5  -3  -4    0.19    0.10 
   5  -3  -4    0.27    0.11 
  -5  -3   4    0.37    0.15 
  -5  -3   4    0.19    0.17 
   5  -3  -4    0.27    0.11 
   5  -3  -4    0.18    0.13 
   5  -3  -4    0.11    0.11 
  -5  -3   4    0.22    0.17 
  -5  -3   4    0.20    0.11 
  -5  -3   4    0.28    0.18 
   5  -3  -4    0.27    0.13 
  -5  -3   4    0.17    0.19 
  -5  -3   4    0.28    0.19 
   5  -3  -4    0.10    0.08 
   5   3  -4    0.23    0.12 
  -5   3   4    0.48    0.12 
   5   3  -4    0.24    0.11 
   5   3  -4   -0.02    0.10 
   5   3  -4    0.35    0.14 
   5   3  -4    0.04    0.14 
   5   3  -4    0.13    0.10 
  -5   3   4    0.46    0.13 
  -5   3   4    0.33    0.11 
  -5   3   4    0.25    0.12 
   5   3  -4    0.10    0.11 
  -5   3   4    0.03    0.09 
   5   3  -4    0.20    0.15 
  -5   3   4    0.36    0.14 
   5   3  -4    0.16    0.08 
  -5   3   4    0.19    0.03 
   4  -3  -4   31.24    1.18 
   4  -3  -4   30.41    1.12 
   4  -3  -4   30.36    1.28 
   4  -3  -4   30.69    1.10 
   4  -3  -4   30.23    1.18 
  -4  -3   4   30.90    1.44 
  -4  -3   4   27.87    1.33 
   4  -3  -4   28.39    1.39 
  -4  -3   4   30.97    1.09 
  -4  -3   4   33.64    1.18 
  -4  -3   4   29.80    1.22 
   4  -3  -4   29.05    1.13 
   4  -3  -4   31.00    1.06 
  -4  -3   4   30.76    1.19 
  -4  -3   4   30.19    1.15 
  -4  -3   4   29.01    1.10 
  -4  -3   4   30.17    1.07 
  -4  -3   4   30.57    1.52 
   4   3  -4   27.29    0.91 
   4   3  -4   27.45    1.45 
  -4   3   4   28.28    0.79 
  -4   3   4   29.22    1.21 
  -4   3   4   28.41    1.08 
   4   3  -4   28.30    1.00 
   4   3  -4   29.41    1.10 
   4   3  -4   28.51    1.26 
   4   3  -4   31.59    1.54 
  -4   3   4   30.04    1.12 
   4   3  -4   28.42    1.22 
   4   3  -4   28.29    1.04 
  -4   3   4   26.80    1.02 
  -4   3   4   27.99    1.03 
  -4   3   4   28.20    1.48 
  -4   3   4   28.62    1.03 
   4   3  -4   29.35    1.05 
   4   3  -4   30.16    1.12 
  -3  -3   4    0.71    0.17 
   3  -3  -4    0.81    0.12 
   3  -3  -4    0.65    0.12 
  -3  -3   4    0.76    0.16 
  -3  -3   4    0.68    0.14 
  -3  -3   4    0.80    0.20 
  -3  -3   4    0.77    0.18 
   3  -3  -4    0.74    0.14 
  -3  -3   4    0.82    0.15 
  -3  -3   4    0.72    0.12 
   3  -3  -4    0.68    0.14 
  -3  -3   4    0.82    0.15 
  -3  -3   4    0.82    0.18 
   3  -3  -4    0.63    0.13 
   3  -3  -4    0.64    0.15 
   3  -3  -4    0.53    0.14 
  -3  -3   4    1.10    0.20 
   3  -3  -4    0.65    0.16 
   3  -3  -4    0.54    0.11 
  -3   3   4    0.57    0.16 
   3   3  -4    0.78    0.17 
  -3   3   4    0.70    0.15 
   3   3  -4    1.00    0.14 
   3   3  -4    0.80    0.14 
   3   3  -4    0.82    0.13 
  -3   3   4    0.71    0.17 
  -3   3   4    0.48    0.12 
   3   3  -4    0.69    0.16 
  -2  -3   4   13.21    0.48 
  -2  -3   4   12.90    0.64 
  -2  -3   4   12.74    0.52 
  -2  -3   4   12.42    0.51 
   2  -3  -4   12.89    0.59 
   2  -3  -4   12.46    0.53 
  -2  -3   4   13.34    0.55 
   2  -3  -4   12.64    0.58 
  -2  -3   4   13.02    0.60 
   2  -3  -4   13.22    0.52 
   2  -3  -4   13.06    0.51 
  -2  -3   4   12.78    0.59 
   2  -3  -4   12.61    0.63 
   2  -3  -4   12.59    0.54 
   2  -3  -4   11.90    0.49 
  -2  -3   4   12.96    0.52 
   2   3  -4   12.75    0.51 
  -2   3   4   11.77    0.52 
  -2   3   4   12.48    0.57 
   2   3  -4   12.46    0.67 
  -2   3   4   12.57    0.57 
  -2   3   4   13.22    0.71 
   2   3  -4   12.79    0.55 
   2   3  -4   12.45    0.55 
  -2   3   4   12.70    0.68 
  -2   3   4   12.23    0.57 
  -1  -3   4   12.43    0.52 
   1  -3  -4   13.04    0.50 
   1  -3  -4   13.21    0.63 
   1  -3  -4   13.48    0.54 
   1  -3  -4   13.46    0.59 
   1  -3  -4   12.23    0.53 
   1  -3  -4   13.33    0.60 
   1  -3  -4   12.93    0.51 
   1  -3  -4   11.78    0.49 
  -1   3   4   11.99    0.56 
  -1   3   4   11.84    0.47 
   1   3  -4   12.21    0.51 
  -1   3   4   12.33    0.69 
  -1   3   4   12.39    0.67 
  -1   3   4   11.14    0.50 
  -1   3   4   12.43    0.55 
   0  -3  -4    9.02    0.45 
   0  -3  -4    9.04    0.40 
   0  -3  -4    8.50    0.36 
   0  -3  -4    7.91    0.43 
   0  -3   4    8.31    0.35 
   0  -3  -4    8.46    0.37 
   0  -3  -4    8.78    0.46 
   0  -3  -4    8.36    0.38 
   0  -3  -4    8.61    0.35 
   0   3   4    7.94    0.49 
   0   3   4    7.56    0.36 
   0   3   4    7.86    0.40 
   0   3   4    7.85    0.49 
   0   3   4    7.74    0.33 
   0   3   4    7.76    0.39 
  -1  -3  -4    6.08    0.30 
  -1  -3  -4    6.17    0.30 
  -1  -3  -4    6.03    0.31 
  -1  -3  -4    6.45    0.37 
  -1  -3  -4    5.66    0.34 
  -1  -3  -4    5.99    0.36 
  -1  -3  -4    6.03    0.29 
  -1  -3  -4    6.28    0.36 
   1   3   4    5.62    0.30 
   1   3   4    5.64    0.33 
   1   3   4    5.82    0.41 
   1   3   4    6.04    0.41 
   1   3   4    5.79    0.28 
  -2  -3  -4    0.78    0.18 
  -2  -3  -4    1.16    0.16 
  -2  -3  -4    0.84    0.15 
  -2  -3  -4    0.93    0.19 
  -2  -3  -4    0.95    0.14 
  -2  -3  -4    0.67    0.17 
  -2  -3  -4    0.97    0.17 
  -2  -3  -4    0.95    0.17 
  -2  -3  -4    0.57    0.15 
  -2  -3  -4    0.61    0.15 
  -2  -3  -4    0.81    0.21 
   2   3   4    0.66    0.14 
   2   3   4    0.68    0.16 
   2   3   4    0.95    0.22 
   2   3   4    0.95    0.13 
   2   3   4    0.68    0.21 
   2   3   4    0.80    0.17 
   2   3   4    0.79    0.15 
  -3  -3  -4   58.28    2.94 
  -3  -3  -4   60.33    2.21 
  -3  -3  -4   60.81    1.90 
  -3  -3  -4   58.78    2.05 
  -3  -3  -4   60.12    1.99 
  -3  -3  -4   61.85    2.18 
  -3  -3  -4   62.41    2.17 
   3   3   4   59.53    2.08 
   3   3   4   56.14    1.61 
   3   3   4   55.96    1.94 
  -4  -3  -4   28.72    1.03 
  -4  -3  -4   29.43    0.94 
  -4  -3  -4   28.80    1.01 
  -4  -3  -4   26.34    1.06 
  -4  -3  -4   28.67    1.09 
  -4  -3  -4   29.35    0.83 
   4   3   4   27.06    0.91 
   4   3   4   27.58    1.05 
   4   3   4   27.82    1.06 
  -5  -3  -4   50.64    1.62 
  -5  -3  -4   51.91    1.46 
  -5  -3  -4   53.31    1.74 
  -5  -3  -4   52.31    1.53 
  -5  -3  -4   53.29    1.87 
  -5  -3  -4   53.08    1.27 
  -5  -3  -4   53.74    1.64 
  -5  -3  -4   53.19    1.66 
  -5  -3  -4   51.12    1.40 
  -5  -3  -4   53.86    1.65 
  -5  -3  -4   54.96    1.76 
  -5  -3  -4   54.20    1.80 
  -5  -3  -4   48.31    1.91 
   5   3   4   49.21    1.56 
   5   3   4   51.40    1.64 
  -5   3  -4   51.73    1.58 
   5   3   4   51.89    1.39 
   5   3   4   45.43    1.84 
   5   3   4   52.41    1.61 
   5   3   4   50.65    1.84 
   5   3   4   50.12    1.43 
  -6  -3  -4    8.28    0.34 
  -6  -3  -4    8.26    0.38 
  -6  -3  -4    8.70    0.36 
  -6  -3  -4    8.67    0.37 
  -6  -3  -4    8.75    0.29 
  -6  -3  -4    7.82    0.31 
  -6   3  -4    8.55    0.29 
   6   3   4    8.13    0.34 
   6   3   4    8.68    0.34 
   6   3   4    8.50    0.35 
  -7  -3  -4    4.09    0.17 
  -7  -3  -4    4.16    0.16 
  -7  -3  -4    4.00    0.20 
  -7  -3  -4    4.43    0.15 
  -7  -3  -4    4.22    0.20 
   7   3   4    3.97    0.14 
   7   3   4    4.23    0.19 
   7   3   4    4.02    0.19 
  -7  -4   4   14.46    0.50 
   7  -4  -4   13.90    0.47 
  -7  -4   4   14.26    0.46 
  -7  -4   4   14.40    0.49 
   7   4  -4   13.78    0.50 
   7   4  -4   13.79    0.46 
  -7   4   4   14.14    0.47 
  -7   4   4   14.18    0.47 
  -7   4   4   13.78    0.42 
   7   4  -4   13.68    0.41 
   7   4  -4   13.87    0.47 
  -6  -4   4   12.44    0.54 
  -6  -4   4   12.16    0.70 
  -6  -4   4   12.62    0.44 
  -6  -4   4   13.30    0.48 
  -6  -4   4   13.36    0.39 
  -6  -4   4   11.56    0.53 
   6   4  -4   12.98    0.48 
   6   4  -4   12.43    0.40 
   6   4  -4   12.93    0.46 
   6   4  -4   12.66    0.41 
  -6   4   4   12.92    0.45 
   6   4  -4   11.86    0.50 
   6   4  -4   12.19    0.54 
  -6   4   4   12.94    0.46 
   6   4  -4   13.53    0.54 
  -6   4   4   12.91    0.41 
   6   4  -4   12.25    0.52 
   6   4  -4   12.61    0.45 
  -6   4   4   12.87    0.40 
   6   4  -4   12.63    0.37 
  -6   4   4   12.88    0.43 
  -5  -4   4    0.99    0.27 
  -5  -4   4    0.80    0.21 
  -5  -4   4    0.80    0.22 
  -5  -4   4    0.76    0.16 
  -5  -4   4    0.82    0.18 
  -5  -4   4    0.47    0.14 
  -5  -4   4    0.43    0.14 
   5  -4  -4    0.68    0.15 
  -5  -4   4    0.82    0.20 
  -5  -4   4    0.83    0.21 
  -5   4   4    1.09    0.17 
  -5   4   4    0.91    0.11 
   5   4  -4    0.59    0.17 
   5   4  -4    0.87    0.17 
   5   4  -4    0.81    0.17 
   5   4  -4    0.62    0.10 
   5   4  -4    0.71    0.20 
   5   4  -4    0.45    0.12 
   5   4  -4    1.03    0.17 
  -5   4   4    0.62    0.12 
  -5   4   4    0.72    0.12 
  -5   4   4    0.77    0.10 
   5   4  -4    0.60    0.16 
  -5   4   4    0.86    0.15 
   5   4  -4    0.86    0.13 
   5   4  -4    0.67    0.12 
   5   4  -4    0.58    0.18 
  -4  -4   4   26.78    0.97 
  -4  -4   4   26.58    0.97 
   4  -4  -4   26.83    0.99 
  -4  -4   4   26.05    1.09 
  -4  -4   4   26.44    1.28 
  -4  -4   4   25.88    0.95 
   4  -4  -4   26.38    1.04 
  -4  -4   4   26.13    1.34 
   4  -4  -4   25.83    1.04 
   4  -4  -4   26.52    0.93 
  -4  -4   4   26.22    1.03 
   4  -4  -4   26.58    0.97 
  -4  -4   4   25.03    1.04 
  -4  -4   4   25.82    1.05 
   4   4  -4   25.67    0.99 
  -4   4   4   25.93    0.93 
   4   4  -4   25.20    0.96 
  -4   4   4   25.46    0.91 
   4   4  -4   24.15    1.02 
   4   4  -4   25.66    1.37 
   4   4  -4   26.25    0.94 
   4   4  -4   25.97    0.90 
   4   4  -4   27.24    1.12 
   4   4  -4   25.50    0.73 
   4   4  -4   26.54    0.95 
  -4   4   4   25.28    1.08 
   3  -4  -4   17.50    0.65 
  -3  -4   4   17.36    0.71 
   3  -4  -4   18.85    0.68 
  -3  -4   4   17.77    0.73 
   3  -4  -4   18.43    0.69 
  -3  -4   4   15.63    0.88 
   3  -4  -4   18.14    0.69 
  -3  -4   4   18.24    0.68 
   3  -4  -4   18.58    0.86 
  -3  -4   4   17.29    0.72 
  -3  -4   4   17.83    0.84 
   3  -4  -4   16.89    0.73 
  -3  -4   4   16.15    0.76 
   3  -4  -4   18.03    0.73 
   3  -4  -4   17.69    0.80 
  -3   4   4   17.05    0.73 
   3   4  -4   16.83    0.68 
   3   4  -4   16.18    0.65 
   3   4  -4   17.04    0.64 
   3   4  -4   16.22    0.62 
  -3   4   4   17.37    0.62 
  -3   4   4   16.24    0.63 
  -3   4   4   17.21    0.65 
  -3   4   4   16.48    0.67 
   3   4  -4   16.16    0.62 
   3   4  -4   16.77    0.47 
  -3   4   4   16.95    0.62 
   3   4  -4   15.36    0.73 
   2  -4  -4  102.26    3.39 
   2  -4  -4  102.27    3.52 
   2  -4  -4  105.03    4.05 
   2  -4  -4   99.20    4.46 
   2  -4  -4  104.01    3.74 
  -2  -4   4   98.02    3.73 
   2  -4  -4  102.35    3.62 
   2  -4  -4  102.27    3.70 
   2  -4  -4   94.25    3.98 
  -2  -4   4  103.25    4.47 
  -2  -4   4   97.86    3.71 
   2  -4  -4  105.87    3.58 
  -2  -4   4  104.11    3.51 
   2   4  -4   99.16    3.77 
  -2   4   4   97.24    3.79 
  -2   4   4   94.76    3.49 
  -2   4   4   96.75    3.24 
   2   4  -4   92.86    3.25 
   2   4  -4   94.72    3.20 
  -2   4   4   94.50    2.52 
  -2   4   4   93.02    3.26 
  -2   4   4   93.99    3.22 
   2   4  -4   91.03    3.47 
  -2   4   4   92.47    3.44 
  -2   4   4   97.00    4.75 
   1  -4  -4    5.36    0.33 
   1  -4  -4    5.14    0.25 
   1  -4  -4    5.14    0.30 
   1  -4  -4    5.33    0.27 
   1  -4  -4    5.22    0.27 
   1  -4  -4    5.30    0.29 
   1  -4  -4    5.44    0.34 
   1  -4  -4    5.28    0.26 
   1  -4  -4    4.59    0.31 
  -1  -4   4    5.48    0.28 
  -1   4   4    4.58    0.24 
  -1   4   4    4.10    0.34 
   1   4  -4    4.77    0.18 
  -1   4   4    4.95    0.27 
  -1   4   4    4.59    0.25 
  -1   4   4    5.28    0.29 
  -1   4   4    4.71    0.25 
  -1   4   4    4.88    0.25 
  -1   4   4    4.94    0.19 
  -1   4   4    5.17    0.35 
   0  -4  -4    3.24    0.23 
   0  -4  -4    2.97    0.26 
   0  -4  -4    3.06    0.20 
   0  -4  -4    3.38    0.21 
   0  -4  -4    3.06    0.19 
   0  -4  -4    2.74    0.26 
   0  -4  -4    3.12    0.20 
   0  -4  -4    2.69    0.23 
   0  -4  -4    2.95    0.24 
   0   4   4    2.76    0.20 
   0   4   4    2.88    0.21 
   0   4   4    2.60    0.18 
   0   4   4    2.99    0.20 
   0   4   4    2.70    0.21 
   0   4   4    2.73    0.23 
   0   4   4    2.99    0.29 
   0   4   4    3.08    0.21 
   0   4   4    3.21    0.16 
   0   4   4    3.28    0.28 
  -1  -4  -4   19.85    0.96 
  -1  -4  -4   22.36    0.85 
  -1  -4  -4   21.41    0.83 
  -1  -4  -4   22.11    0.79 
  -1  -4  -4   20.52    0.88 
  -1  -4  -4   20.72    1.10 
  -1  -4  -4   21.19    1.04 
  -1  -4  -4   21.62    0.77 
  -1  -4  -4   21.29    0.80 
  -1  -4  -4   22.32    0.87 
   1   4   4   19.69    0.75 
   1   4   4   20.34    0.80 
   1   4   4   19.13    0.89 
   1   4   4   19.93    0.76 
   1   4   4   19.47    1.07 
   1   4   4   20.76    0.91 
   1   4   4   19.78    0.82 
   1   4   4   21.24    1.12 
   1   4   4   19.92    0.73 
  -2  -4  -4   58.34    2.78 
  -2  -4  -4   57.45    2.05 
  -2  -4  -4   56.76    1.94 
  -2  -4  -4   49.01    2.34 
  -2  -4  -4   58.08    2.57 
  -2  -4  -4   58.82    2.09 
  -2  -4  -4   57.27    2.06 
  -2  -4  -4   56.80    1.88 
  -2  -4  -4   55.95    2.06 
  -2  -4  -4   58.74    2.16 
   2   4   4   50.96    1.79 
   2   4   4   52.97    1.73 
   2   4   4   48.17    2.64 
   2   4   4   51.13    1.83 
   2   4   4   52.98    1.93 
   2   4   4   51.93    1.39 
   2   4   4   42.92    2.17 
   2   4   4   52.94    1.79 
   2   4   4   51.38    1.89 
  -3  -4  -4   12.69    0.58 
  -3  -4  -4   13.61    0.54 
  -3  -4  -4   12.52    0.73 
  -3  -4  -4   13.82    0.58 
  -3  -4  -4   13.72    0.61 
  -3  -4  -4   13.93    0.77 
  -3  -4  -4   14.07    0.59 
  -3  -4  -4   14.06    0.62 
  -3  -4  -4   13.64    0.56 
   3   4   4   13.67    0.66 
   3   4   4   12.80    0.59 
   3   4   4   13.00    0.39 
   3   4   4   12.90    0.54 
   3   4   4   12.87    0.55 
   3   4   4   12.62    0.46 
   3   4   4   12.82    0.56 
   3   4   4   11.72    0.80 
   3   4   4   12.89    0.52 
  -4  -4  -4    9.76    0.40 
  -4  -4  -4    9.61    0.44 
  -4  -4  -4   10.29    0.39 
  -4  -4  -4    9.94    0.36 
  -4  -4  -4    9.74    0.44 
  -4  -4  -4   10.01    0.39 
  -4  -4  -4   10.10    0.34 
  -4  -4  -4    9.95    0.31 
  -4  -4  -4   10.80    0.48 
   4   4   4    9.66    0.39 
   4   4   4   10.26    0.29 
   4   4   4    9.10    0.46 
   4   4   4    9.33    0.40 
   4   4   4    9.28    0.32 
   4   4   4    9.90    0.44 
   4   4   4    9.41    0.38 
   4   4   4   10.17    0.45 
   4   4   4    9.59    0.39 
   4   4   4    9.67    0.30 
   4   4   4   10.07    0.39 
  -5  -4  -4   10.91    0.43 
  -5  -4  -4   11.48    0.47 
  -5  -4  -4   11.75    0.40 
  -5  -4  -4   11.35    0.38 
  -5  -4  -4   11.33    0.41 
  -5  -4  -4   11.22    0.42 
  -5  -4  -4   10.75    0.48 
   5   4   4   11.30    0.44 
   5   4   4   10.80    0.42 
   5   4   4   11.01    0.41 
   5   4   4   11.25    0.41 
   5   4   4   10.80    0.30 
   5   4   4   11.05    0.40 
   5   4   4    9.99    0.46 
  -6  -4  -4   13.86    0.42 
  -6  -4  -4   14.35    0.46 
  -6  -4  -4   14.01    0.47 
  -6  -4  -4   13.43    0.51 
   6   4   4   13.57    0.34 
   6   4   4   13.75    0.46 
   6   4   4   14.13    0.47 
   6   4   4   13.13    0.47 
  -6  -5   4    6.19    0.24 
  -6  -5   4    6.29    0.27 
  -6  -5   4    6.19    0.21 
   6   5  -4    5.92    0.22 
  -6   5   4    5.99    0.24 
  -6   5   4    6.36    0.23 
   6   5  -4    6.32    0.24 
   6   5  -4    5.90    0.20 
   6   5  -4    5.97    0.19 
   6   5  -4    6.05    0.25 
  -6   5   4    5.98    0.24 
   6   5  -4    5.98    0.18 
  -6   5   4    5.98    0.19 
  -5  -5   4    0.76    0.23 
  -5  -5   4    0.60    0.14 
  -5  -5   4    0.29    0.13 
   5   5  -4    0.86    0.16 
   5   5  -4    0.65    0.15 
   5   5  -4    0.82    0.14 
   5   5  -4    0.63    0.14 
   5   5  -4    0.66    0.15 
   5   5  -4    0.71    0.18 
  -5   5   4    0.70    0.14 
   5   5  -4    0.78    0.15 
   5   5  -4    0.69    0.10 
  -5   5   4    0.57    0.13 
  -5   5   4    0.89    0.12 
   5   5  -4    0.79    0.11 
   5   5  -4    0.81    0.13 
   5   5  -4    0.80    0.11 
   5   5  -4    0.77    0.13 
  -4  -5   4    0.91    0.21 
  -4  -5   4    0.77    0.19 
   4  -5  -4    0.95    0.14 
  -4  -5   4    0.64    0.17 
  -4  -5   4    0.69    0.25 
  -4  -5   4    0.55    0.09 
  -4  -5   4    0.78    0.15 
   4   5  -4    0.34    0.11 
  -4   5   4    0.63    0.14 
   4   5  -4    0.31    0.10 
  -4   5   4    0.77    0.14 
  -4   5   4    0.66    0.11 
  -4   5   4    0.69    0.15 
   4   5  -4    0.48    0.10 
   4   5  -4    0.59    0.12 
   4   5  -4    0.82    0.16 
  -4   5   4    0.60    0.12 
   4   5  -4    0.32    0.10 
   4   5  -4    0.57    0.14 
   4   5  -4    0.48    0.08 
   4   5  -4    0.53    0.15 
   4   5  -4    0.62    0.13 
  -3  -5   4   26.95    1.11 
  -3  -5   4   29.41    1.06 
   3  -5  -4   32.05    1.08 
  -3  -5   4   29.02    1.15 
  -3  -5   4   29.41    1.07 
   3   5  -4   28.18    0.89 
   3   5  -4   28.52    0.82 
   3   5  -4   29.31    1.01 
   3   5  -4   28.08    0.76 
  -3   5   4   27.77    0.92 
  -3   5   4   27.54    0.86 
  -3   5   4   28.63    0.98 
   3   5  -4   29.65    0.92 
   3   5  -4   29.55    1.00 
  -3   5   4   28.10    0.89 
  -3   5   4   26.98    0.82 
   3   5  -4   27.14    0.92 
  -3   5   4   28.66    0.92 
   2  -5  -4   95.40    3.50 
   2  -5  -4   95.38    3.16 
  -2  -5   4   94.79    3.28 
   2  -5  -4   90.99    3.34 
   2  -5  -4   93.38    3.29 
   2  -5  -4   97.08    4.17 
  -2   5   4   88.08    3.46 
   2   5  -4   85.51    2.90 
  -2   5   4   89.48    2.94 
  -2   5   4   86.50    2.99 
  -2   5   4   83.30    3.19 
   1  -5  -4   30.20    1.75 
   1  -5  -4   37.02    1.37 
  -1  -5   4   36.37    1.26 
   1  -5  -4   35.94    1.23 
   1  -5  -4   35.46    1.27 
  -1  -5   4   36.45    1.34 
   1  -5  -4   35.16    1.62 
   1  -5  -4   32.38    1.36 
   1  -5  -4   36.36    1.31 
   1  -5  -4   34.72    1.29 
  -1   5   4   32.03    1.14 
  -1   5   4   33.71    1.24 
  -1   5   4   32.74    1.20 
  -1   5   4   29.53    1.34 
  -1   5   4   31.35    1.15 
  -1   5   4   31.46    0.85 
  -1   5   4   33.33    1.15 
   0  -5  -4    6.52    0.34 
   0  -5  -4    5.59    0.37 
   0  -5  -4    5.87    0.41 
   0  -5  -4    6.48    0.32 
   0  -5  -4    6.79    0.32 
   0  -5  -4    6.66    0.33 
   0  -5  -4    6.27    0.33 
   0  -5  -4    6.59    0.36 
   0  -5  -4    6.23    0.43 
   0   5   4    5.88    0.31 
   0   5   4    6.26    0.30 
   0   5   4    5.99    0.34 
   0   5   4    6.20    0.30 
   0   5   4    6.31    0.30 
   0   5   4    6.10    0.22 
   0   5   4    6.01    0.36 
  -1  -5  -4    8.70    0.39 
  -1  -5  -4    8.27    0.38 
  -1  -5  -4    8.00    0.41 
  -1  -5  -4    7.92    0.43 
  -1  -5  -4    8.37    0.53 
  -1  -5  -4    8.09    0.39 
  -1  -5  -4    7.19    0.49 
  -1  -5  -4    8.31    0.40 
   1   5   4    8.01    0.37 
   1   5   4    8.21    0.36 
   1   5   4    8.02    0.40 
   1   5   4    6.79    0.42 
   1   5   4    7.45    0.27 
   1   5   4    7.60    0.37 
   1   5   4    7.49    0.50 
   1   5   4    7.46    0.35 
  -2  -5  -4    4.93    0.32 
  -2  -5  -4    5.80    0.32 
  -2  -5  -4    5.33    0.35 
  -2  -5  -4    6.03    0.43 
  -2  -5  -4    5.26    0.25 
  -2  -5  -4    5.40    0.32 
  -2  -5  -4    5.61    0.31 
  -2  -5  -4    5.73    0.32 
  -2  -5  -4    5.73    0.28 
   2   5   4    5.03    0.23 
   2   5   4    5.06    0.26 
   2   5   4    5.25    0.32 
   2   5   4    5.16    0.28 
   2   5   4    4.72    0.27 
   2   5   4    4.87    0.26 
   2   5   4    4.86    0.25 
   2   5   4    5.16    0.31 
   2   5   4    5.23    0.29 
   2   5   4    5.35    0.23 
   2   5   4    5.49    0.29 
  -3  -5  -4   20.63    0.73 
  -3  -5  -4   19.98    0.76 
  -3  -5  -4   20.57    0.68 
  -3  -5  -4   22.53    1.10 
  -3  -5  -4   20.73    0.79 
  -3  -5  -4   20.66    0.82 
  -3  -5  -4   20.85    0.61 
   3   5   4   19.40    0.64 
   3   5   4   18.95    0.81 
   3   5   4   18.98    0.64 
   3   5   4   18.96    0.75 
   3   5   4   19.07    0.74 
   3   5   4   19.54    0.58 
   3   5   4   19.23    0.77 
   3   5   4   19.69    0.69 
   3   5   4   18.96    0.54 
   3   5   4   19.49    0.72 
   3   5   4   19.71    0.66 
  -4  -5  -4    0.30    0.08 
  -4  -5  -4    0.16    0.11 
  -4  -5  -4    0.33    0.10 
  -4  -5  -4    0.38    0.10 
  -4  -5  -4    0.29    0.05 
   4   5   4    0.22    0.11 
   4   5   4    0.39    0.11 
   4   5   4    0.26    0.10 
   4   5   4    0.39    0.11 
   4   5   4    0.31    0.12 
   4   5   4    0.41    0.10 
   4   5   4    0.16    0.11 
   4   5   4    0.37    0.08 
   4   5   4    0.56    0.12 
  -5  -5  -4    2.01    0.11 
  -5  -5  -4    2.32    0.15 
  -5  -5  -4    2.26    0.16 
  -5  -5  -4    2.67    0.16 
   5   5   4    2.59    0.17 
   5   5   4    2.12    0.16 
   5   5   4    2.17    0.15 
   5   5   4    2.46    0.13 
  -5  -6   4    4.08    0.17 
  -5  -6   4    3.94    0.15 
   5   6  -4    3.74    0.14 
  -5   6   4    3.97    0.16 
   5   6  -4    3.86    0.16 
   5   6  -4    3.85    0.16 
  -5   6   4    3.79    0.15 
   5   6  -4    3.45    0.17 
  -4  -6   4    1.56    0.22 
  -4  -6   4    1.56    0.14 
  -4   6   4    1.58    0.12 
   4   6  -4    1.57    0.15 
   4   6  -4    1.72    0.12 
  -4   6   4    1.64    0.10 
  -4   6   4    1.68    0.13 
  -4   6   4    1.61    0.13 
   4   6  -4    1.71    0.12 
   4   6  -4    1.66    0.13 
  -3   6   4    3.16    0.18 
  -3   6   4    3.32    0.16 
   3   6  -4    3.43    0.19 
   3   6  -4    3.50    0.16 
  -3   6   4    3.27    0.18 
   3   6  -4    3.31    0.18 
   3   6  -4    3.71    0.15 
  -2   6   4    0.01    0.05 
  -2   6   4    0.20    0.08 
  -2   6   4    0.10    0.07 
   2   6  -4    0.13    0.07 
   2   6  -4   -0.06    0.07 
  -2   6   4   -0.02    0.07 
  -2   6   4   -0.04    0.08 
   2   6  -4    0.11    0.06 
   1  -6  -4    9.53    0.43 
   1  -6  -4    9.12    0.35 
   1  -6  -4    9.08    0.39 
   1  -6  -4    9.20    0.56 
  -1   6   4    8.72    0.34 
  -1   6   4    8.82    0.34 
  -1   6   4    9.09    0.32 
  -1   6   4    8.68    0.34 
  -1   6   4    9.00    0.33 
   1   6  -4    9.36    0.27 
  -1   6   4    8.74    0.31 
   0  -6  -4   10.77    0.46 
   0  -6  -4   11.15    0.49 
   0  -6  -4   11.74    0.41 
   0  -6  -4   11.88    0.67 
   0   6   4   10.92    0.40 
   0   6   4   10.69    0.44 
   0   6   4   10.91    0.32 
   0   6   4   11.35    0.39 
   0   6   4   11.36    0.43 
   0   6   4   11.31    0.38 
   0   6   4   10.58    0.40 
  -1  -6  -4   10.85    0.45 
  -1  -6  -4   11.11    0.46 
  -1  -6  -4   10.46    0.64 
  -1  -6  -4   11.50    0.40 
   1   6   4    9.74    0.43 
   1   6   4   10.49    0.35 
   1   6   4   10.65    0.40 
   1   6   4   10.58    0.39 
   1   6   4   10.48    0.37 
   1   6   4   10.42    0.32 
   1   6   4   10.90    0.38 
   1   6   4   10.36    0.28 
   1   6   4   11.16    0.39 
   1   6   4   10.95    0.43 
   1   6   4   10.42    0.39 
   1   6   4    9.86    0.44 
  -2  -6  -4    9.33    0.30 
  -2  -6  -4    8.67    0.55 
  -2  -6  -4    8.95    0.33 
  -2  -6  -4    9.11    0.36 
   2   6   4    8.88    0.37 
   2   6   4    8.39    0.38 
   2   6   4    8.69    0.33 
   2   6   4    8.91    0.32 
   2   6   4    8.05    0.36 
   2   6   4    7.19    0.33 
   2   6   4    9.05    0.28 
   2   6   4    9.05    0.33 
   2   6   4    8.58    0.25 
   2   6   4    8.93    0.34 
   2   6   4    8.32    0.30 
   2   6   4    8.98    0.38 
   2   6   4    8.55    0.27 
  -3  -6  -4    1.41    0.12 
  -3  -6  -4    1.22    0.10 
  -3  -6  -4    1.35    0.15 
   3   6   4    0.96    0.14 
   3   6   4    1.15    0.14 
   3   6   4    1.07    0.12 
   3   6   4    1.08    0.09 
   3   6   4    1.15    0.09 
   3   6   4    1.14    0.12 
   3   6   4    1.08    0.15 
  -4  -6  -4    5.01    0.20 
  -4  -6  -4    4.18    0.18 
  -4  -6  -4    4.20    0.20 
   4   6   4    4.37    0.19 
   4   6   4    4.73    0.16 
   4   6   4    4.50    0.16 
   4   6   4    4.00    0.19 
   4   6   4    4.47    0.19 
   4   6   4    4.54    0.14 
  -3  -7   4    1.14    0.10 
  -3   7   4    1.13    0.08 
   3   7  -4    0.80    0.08 
  -3   7   4    0.99    0.07 
   2  -7  -4    2.84    0.14 
  -2   7   4    2.69    0.13 
   2   7  -4    2.65    0.12 
  -2   7   4    2.50    0.13 
  -2   7   4    2.62    0.12 
  -2   7   4    2.59    0.10 
   1  -7  -4    4.83    0.20 
  -1   7   4    4.44    0.18 
  -1   7   4    4.59    0.16 
  -1   7   4    4.44    0.19 
   0  -7  -4    6.74    0.25 
   0   7   4    6.11    0.21 
   0   7   4    6.47    0.24 
   0   7   4    6.20    0.22 
   0   7   4    6.17    0.21 
   0   7   4    6.61    0.24 
  -1  -7  -4    0.04    0.05 
  -1  -7  -4    0.03    0.04 
   1   7   4    0.03    0.05 
   1   7   4    0.06    0.06 
   1   7   4    0.10    0.06 
   1   7   4   -0.05    0.06 
   1   7   4    0.00    0.04 
   1   7   4    0.16    0.06 
   1   7   4    0.05    0.05 
  -2  -7  -4    2.31    0.12 
  -2  -7  -4    2.24    0.10 
   2   7   4    2.11    0.10 
   2   7   4    1.84    0.10 
   2   7   4    2.10    0.11 
   2   7   4    1.77    0.11 
   2   7   4    1.81    0.08 
  -9   0   5    3.91    0.16 
  -9   0   5    4.31    0.19 
  -9   0   5    3.96    0.19 
   9   0  -5    4.38    0.19 
   9   0  -5    4.28    0.18 
  -9   0   5    4.12    0.15 
  -9   0   5    4.15    0.20 
  -8   0   5   10.45    0.44 
  -8   0   5   10.65    0.36 
  -8   0   5   11.00    0.32 
  -8   0   5   11.05    0.41 
  -8   0   5   10.67    0.33 
   8   0  -5   10.70    0.41 
  -8   0   5   10.65    0.43 
   8   0  -5   10.96    0.33 
  -8   0   5   11.21    0.46 
  -8   0   5   10.26    0.34 
  -8   0   5   10.90    0.47 
  -8   0   5    9.74    0.47 
  -8   0   5   10.39    0.38 
  -7   0   5    1.07    0.21 
  -7   0   5    1.15    0.22 
   7   0  -5    1.06    0.20 
  -7   0   5    1.18    0.13 
   7   0  -5    0.80    0.17 
   7   0  -5    1.09    0.13 
   7   0  -5    1.19    0.15 
  -7   0   5    1.07    0.23 
  -7   0   5    1.00    0.09 
  -7   0   5    0.97    0.21 
   7   0  -5    0.84    0.20 
   7   0  -5    1.39    0.21 
  -7   0   5    1.22    0.24 
  -7   0   5    1.15    0.22 
  -7   0   5    0.61    0.09 
  -7   0   5    0.88    0.14 
   7   0  -5    0.87    0.20 
  -7   0   5    0.40    0.15 
   7   0  -5    1.60    0.29 
   7   0  -5    1.21    0.20 
  -7   0   5    0.94    0.20 
  -7   0   5    0.98    0.22 
  -7   0   5    0.86    0.22 
  -6   0   5    0.38    0.15 
   6   0  -5    0.55    0.15 
  -6   0   5    0.54    0.18 
  -6   0   5    0.56    0.09 
   6   0  -5    0.31    0.12 
   6   0  -5    0.55    0.14 
  -6   0   5    0.54    0.19 
  -6   0   5    0.63    0.19 
  -6   0   5    0.49    0.18 
  -6   0   5    0.57    0.16 
   6   0  -5    0.40    0.14 
   6   0  -5    0.55    0.13 
   6   0  -5    0.56    0.19 
   6   0  -5    0.59    0.20 
  -6   0   5    0.41    0.16 
  -6   0   5    0.53    0.16 
   6   0  -5    0.83    0.18 
  -6   0   5    0.39    0.14 
  -6   0   5    0.58    0.13 
  -5   0   5   24.45    0.87 
   5   0  -5   24.00    0.87 
   5   0  -5   24.31    0.93 
  -5   0   5   25.24    1.09 
   5   0  -5   22.14    1.05 
   5   0  -5   23.85    0.92 
  -5   0   5   22.81    0.86 
   5   0  -5   23.56    1.14 
   5   0  -5   24.66    0.96 
  -5   0   5   23.93    0.70 
   5   0  -5   24.91    0.91 
  -5   0   5   24.95    0.90 
  -5   0   5   24.77    0.92 
   5   0  -5   24.10    1.07 
   5   0  -5   24.31    0.92 
  -5   0   5   24.66    1.27 
  -5   0   5   24.21    0.98 
  -5   0   5   23.75    1.32 
  -5   0   5   23.16    0.90 
   4   0  -5   13.08    0.53 
  -4   0   5   12.52    0.53 
  -4   0   5   13.05    0.74 
  -4   0   5   12.93    0.63 
   4   0  -5   12.99    0.53 
  -4   0   5   12.92    0.50 
   4   0  -5   13.06    0.52 
   4   0  -5   13.14    0.65 
   4   0  -5   12.87    0.61 
   4   0  -5   13.44    0.73 
   4   0  -5   13.03    0.55 
   4   0  -5   14.00    0.62 
   3   0  -5    1.82    0.14 
  -3   0   5    2.31    0.21 
  -3   0   5    1.69    0.18 
   3   0  -5    1.50    0.16 
  -3   0   5    1.81    0.24 
   3   0  -5    2.23    0.18 
   3   0  -5    1.70    0.20 
  -3   0   5    1.81    0.21 
  -3   0   5    1.57    0.18 
   3   0  -5    1.68    0.14 
   3   0  -5    1.87    0.17 
  -2   0   5   95.39    3.65 
   2   0  -5   91.07    3.91 
  -2   0   5   94.43    3.34 
   2   0  -5   93.15    3.70 
  -2   0   5   98.92    4.10 
   2   0  -5   90.86    4.71 
  -2   0   5   94.72    3.40 
  -2   0   5   95.54    3.71 
   2   0  -5   94.90    3.65 
  -2   0   5   88.18    4.38 
   2   0  -5   94.09    4.38 
  -1   0   5   18.32    0.84 
  -1   0   5   18.26    0.76 
   1   0  -5   18.89    0.92 
   1   0  -5   17.00    0.80 
  -1   0   5   19.01    0.72 
  -1   0   5   17.89    0.77 
   1   0  -5   18.19    0.97 
  -1   0   5   18.38    0.71 
   0   0  -5    2.57    0.18 
   0   0   5    2.97    0.20 
   0   0  -5    3.13    0.19 
   0   0   5    3.10    0.20 
   0   0   5    2.93    0.20 
   0   0  -5    2.95    0.19 
   0   0  -5    3.65    0.24 
   0   0  -5    3.08    0.23 
   0   0   5    2.78    0.18 
   0   0   5    2.88    0.19 
  -1   0  -5   34.44    1.37 
  -1   0  -5   34.55    1.63 
  -1   0  -5   32.65    1.38 
   1   0   5   33.26    1.26 
   1   0   5   33.45    1.51 
   1   0   5   35.18    1.36 
   1   0   5   33.48    1.23 
  -1   0  -5   34.80    1.74 
   1   0   5   33.29    1.38 
   1   0   5   33.31    1.26 
  -1   0  -5   34.67    1.44 
   2   0   5  166.31    6.42 
  -2   0  -5  174.81    6.97 
  -2   0  -5  177.79    7.31 
   2   0   5  178.65    7.67 
  -2   0  -5  195.61    8.82 
  -2   0  -5  167.85    6.86 
  -2   0  -5  183.04    8.19 
   2   0   5  176.27    6.34 
  -2   0  -5  182.38    6.44 
   2   0   5  175.11    6.92 
   2   0   5  171.06    6.15 
   2   0   5  183.43    6.82 
   2   0   5  171.33    6.22 
   2   0   5  171.24    6.05 
  -3   0  -5    1.33    0.19 
   3   0   5    1.52    0.18 
  -3   0  -5    1.69    0.12 
   3   0   5    1.74    0.16 
  -3   0  -5    1.70    0.18 
   3   0   5    1.51    0.18 
   3   0   5    1.69    0.17 
   3   0   5    1.54    0.17 
   3   0   5    1.89    0.13 
   3   0   5    1.73    0.15 
  -3   0  -5    1.78    0.19 
   3   0   5    1.64    0.15 
   3   0   5    1.43    0.14 
  -4   0  -5    0.19    0.09 
   4   0   5    0.18    0.12 
   4   0   5    0.38    0.09 
   4   0   5    0.26    0.10 
  -4   0  -5    0.22    0.09 
  -4   0  -5    0.26    0.11 
   4   0   5    0.21    0.09 
   4   0   5    0.24    0.11 
  -4   0  -5    0.26    0.14 
  -4   0  -5    0.33    0.07 
   4   0   5    0.14    0.13 
   4   0   5    0.27    0.10 
   4   0   5    0.22    0.15 
  -5   0  -5   21.70    0.80 
   5   0   5   21.93    0.86 
   5   0   5   18.04    1.02 
   5   0   5   20.78    0.83 
   5   0   5   21.02    1.11 
   5   0   5   22.43    0.81 
   5   0   5   22.12    0.79 
  -5   0  -5   22.63    0.79 
  -5   0  -5   19.76    0.85 
   5   0   5   20.45    0.84 
  -5   0  -5   22.41    0.93 
  -6   0  -5    3.17    0.21 
  -6   0  -5    3.23    0.13 
  -6   0  -5    3.38    0.20 
  -6   0  -5    3.17    0.20 
  -6   0  -5    3.44    0.21 
   6   0   5    3.13    0.32 
  -6   0  -5    3.68    0.19 
   6   0   5    3.05    0.22 
  -6   0  -5    3.51    0.22 
   6   0   5    3.62    0.19 
  -7   0  -5   22.56    0.68 
  -7   0  -5   23.85    0.71 
   7   0   5   23.85    0.76 
  -7   0  -5   24.56    0.74 
  -7   0  -5   24.03    0.77 
  -9  -1   5    3.87    0.20 
  -9  -1   5    4.18    0.14 
  -9  -1   5    4.09    0.19 
   9   1  -5    4.01    0.17 
  -9   1   5    4.30    0.18 
  -9   1   5    4.29    0.19 
  -9   1   5    4.16    0.17 
   9   1  -5    4.33    0.18 
  -8  -1   5    3.11    0.21 
  -8  -1   5    3.00    0.22 
   8  -1  -5    3.21    0.33 
   8  -1  -5    3.38    0.16 
  -8  -1   5    3.32    0.24 
   8  -1  -5    3.30    0.21 
  -8  -1   5    2.98    0.18 
  -8  -1   5    2.99    0.22 
   8  -1  -5    3.36    0.17 
   8   1  -5    3.08    0.19 
  -8   1   5    2.77    0.18 
  -8   1   5    3.15    0.21 
   8   1  -5    3.07    0.19 
  -8   1   5    3.03    0.16 
  -8   1   5    2.94    0.21 
  -8   1   5    3.20    0.16 
   8   1  -5    3.07    0.20 
  -8   1   5    3.57    0.22 
  -8   1   5    3.03    0.14 
  -8   1   5    2.88    0.22 
   8   1  -5    2.98    0.20 
  -8   1   5    3.05    0.19 
  -7  -1   5    9.31    0.47 
  -7  -1   5   11.07    0.47 
  -7  -1   5   10.26    0.47 
   7  -1  -5    9.93    0.44 
  -7  -1   5   10.43    0.46 
   7  -1  -5    9.40    0.47 
   7  -1  -5    8.70    0.46 
  -7  -1   5   10.29    0.30 
   7  -1  -5   10.17    0.38 
  -7  -1   5   10.21    0.38 
  -7  -1   5   10.66    0.41 
  -7  -1   5   10.45    0.29 
   7  -1  -5   10.07    0.42 
  -7  -1   5   10.05    0.42 
  -7  -1   5   10.49    0.35 
  -7  -1   5   10.30    0.37 
   7  -1  -5   10.48    0.49 
  -7  -1   5   10.76    0.40 
   7  -1  -5    9.94    0.34 
  -7  -1   5   10.51    0.44 
   7  -1  -5   10.86    0.63 
  -7   1   5    9.68    0.38 
  -7   1   5    9.47    0.36 
  -7   1   5   10.13    0.32 
   7   1  -5    9.66    0.34 
  -7   1   5   10.74    0.46 
  -7   1   5    9.57    0.46 
   7   1  -5    9.89    0.40 
  -7   1   5   10.17    0.42 
  -7   1   5    9.18    0.49 
   7   1  -5   10.57    0.40 
   7   1  -5   10.19    0.48 
   7   1  -5   10.16    0.39 
  -7   1   5    9.85    0.45 
  -7   1   5   10.65    0.43 
   7   1  -5   10.13    0.31 
  -7   1   5    9.65    0.45 
   7   1  -5   10.44    0.45 
  -7   1   5    9.85    0.33 
  -7   1   5    9.36    0.41 
  -7   1   5    9.71    0.33 
   7   1  -5    9.74    0.37 
  -7   1   5    9.93    0.40 
   6  -1  -5    1.90    0.24 
   6  -1  -5    1.87    0.22 
  -6  -1   5    2.26    0.15 
  -6  -1   5    1.84    0.20 
   6  -1  -5    1.69    0.19 
  -6  -1   5    2.39    0.24 
   6  -1  -5    1.82    0.19 
   6  -1  -5    2.33    0.21 
   6  -1  -5    2.01    0.22 
  -6  -1   5    2.14    0.19 
  -6  -1   5    1.91    0.23 
   6  -1  -5    1.97    0.30 
  -6  -1   5    2.35    0.24 
  -6   1   5    1.75    0.22 
  -6   1   5    1.74    0.21 
  -6   1   5    1.70    0.19 
   6   1  -5    1.94    0.19 
   6   1  -5    1.82    0.20 
  -6   1   5    2.18    0.21 
  -6   1   5    1.32    0.26 
   6   1  -5    1.98    0.22 
  -6   1   5    2.05    0.22 
  -6   1   5    1.47    0.25 
  -6   1   5    2.05    0.23 
  -6   1   5    1.83    0.22 
  -5  -1   5   20.27    0.71 
   5  -1  -5   20.40    0.90 
  -5  -1   5   21.88    0.80 
   5  -1  -5   23.73    1.04 
   5  -1  -5   22.24    0.87 
  -5  -1   5   19.96    1.15 
   5  -1  -5   22.52    0.78 
  -5  -1   5   20.97    0.78 
   5  -1  -5   20.45    1.10 
   5  -1  -5   21.82    0.83 
   5  -1  -5   19.91    0.95 
   5  -1  -5   22.25    0.84 
   5  -1  -5   22.62    0.97 
  -5  -1   5   20.19    0.98 
  -5  -1   5   20.57    0.83 
  -5  -1   5   21.52    0.86 
   5  -1  -5   21.74    0.82 
  -5  -1   5   21.52    0.82 
  -5   1   5   21.44    0.59 
   5   1  -5   20.79    0.76 
  -5   1   5   21.11    0.76 
  -5   1   5   21.31    1.12 
  -5   1   5   21.21    0.80 
   5   1  -5   20.56    0.81 
   5   1  -5   19.58    0.70 
  -5   1   5   20.55    0.78 
  -5   1   5   21.57    0.78 
  -5   1   5   20.47    0.75 
  -5   1   5   20.79    0.83 
  -5   1   5   22.71    1.17 
   5   1  -5   19.61    1.12 
  -5   1   5   21.59    0.95 
  -5   1   5   21.57    0.85 
  -5   1   5   20.99    0.79 
   5   1  -5   21.11    0.82 
  -5   1   5   19.72    0.68 
  -4  -1   5   13.74    0.65 
  -4  -1   5   13.34    0.55 
  -4  -1   5   12.91    0.53 
   4  -1  -5   12.92    0.52 
  -4  -1   5   13.18    0.54 
   4  -1  -5   12.72    0.55 
   4  -1  -5   12.95    0.54 
   4  -1  -5   12.53    0.53 
  -4  -1   5   14.33    0.66 
   4  -1  -5   13.34    0.66 
  -4  -1   5   14.16    0.69 
   4  -1  -5   13.49    0.56 
   4  -1  -5   12.41    0.49 
   4  -1  -5   13.29    0.62 
   4  -1  -5   12.23    0.51 
  -4  -1   5   13.37    0.56 
   4  -1  -5   13.28    0.62 
  -4  -1   5   13.59    0.55 
  -4  -1   5   13.68    0.76 
  -4  -1   5   12.49    0.50 
  -4   1   5   13.26    0.53 
  -4   1   5   12.44    0.51 
  -4   1   5   12.80    0.40 
  -4   1   5   12.63    0.56 
  -4   1   5   12.94    0.76 
  -4   1   5   12.81    0.62 
   4   1  -5   12.86    0.53 
  -4   1   5   13.35    0.53 
  -4   1   5   13.04    0.74 
   4   1  -5   13.29    0.56 
   4   1  -5   13.89    0.64 
   4   1  -5   14.48    0.76 
   4   1  -5   13.86    0.54 
   4   1  -5   13.96    0.77 
   3  -1  -5    8.85    0.53 
   3  -1  -5    8.73    0.38 
  -3  -1   5    8.96    0.48 
   3  -1  -5    8.56    0.37 
   3  -1  -5    9.07    0.46 
   3  -1  -5    8.49    0.39 
   3  -1  -5    9.70    0.44 
  -3  -1   5    8.65    0.38 
  -3  -1   5    8.65    0.39 
   3  -1  -5    9.11    0.44 
   3  -1  -5    9.02    0.40 
  -3  -1   5    9.21    0.46 
   3  -1  -5    8.48    0.37 
  -3  -1   5    9.00    0.35 
  -3  -1   5    8.38    0.39 
  -3  -1   5    9.58    0.46 
  -3  -1   5    8.47    0.41 
   3   1  -5    7.98    0.35 
   3   1  -5    8.87    0.42 
  -3   1   5    8.47    0.52 
  -3   1   5    9.22    0.52 
  -3   1   5    8.30    0.36 
   3   1  -5    8.85    0.52 
   3   1  -5    8.14    0.43 
  -3   1   5    8.58    0.43 
   3   1  -5    8.53    0.50 
   2  -1  -5  156.57    7.35 
  -2  -1   5  157.27    6.88 
   2  -1  -5  161.04    6.87 
  -2  -1   5  152.88    6.21 
  -2  -1   5  158.56    5.58 
   2  -1  -5  158.29    6.21 
  -2  -1   5  157.90    5.69 
   2  -1  -5  157.40    5.58 
   2  -1  -5  162.80    6.12 
  -2  -1   5  158.58    5.57 
  -2  -1   5  160.80    6.12 
  -2   1   5  156.10    6.01 
   2   1  -5  148.26    6.13 
   2   1  -5  151.81    7.76 
   2   1  -5  156.72    7.21 
  -2   1   5  157.60    7.23 
  -2   1   5  156.44    6.46 
   2   1  -5  154.32    6.45 
  -2   1   5  157.32    7.78 
  -2   1   5  156.82    6.10 
  -2   1   5  159.87    6.76 
  -1  -1   5   55.55    2.10 
  -1  -1   5   59.55    2.07 
  -1  -1   5   58.07    2.53 
   1  -1  -5   57.38    2.27 
   1  -1  -5   55.43    2.53 
   1  -1  -5   57.34    2.30 
  -1  -1   5   58.43    2.29 
  -1  -1   5   60.18    2.26 
   1  -1  -5   56.40    2.73 
  -1   1   5   55.62    2.20 
   1   1  -5   59.11    2.20 
   1   1  -5   54.02    2.33 
   1   1  -5   56.28    2.62 
   1   1  -5   58.27    2.82 
   1   1  -5   55.70    2.23 
  -1   1   5   54.35    2.46 
  -1   1   5   55.09    2.24 
  -1   1   5   54.32    2.65 
   0  -1  -5   19.05    0.81 
   0  -1  -5   19.11    1.02 
   0  -1   5   19.26    0.73 
   0  -1  -5   18.77    0.84 
   0  -1   5   19.11    0.80 
   0  -1  -5   19.49    0.81 
   0  -1   5   19.76    0.79 
   0  -1   5   18.68    0.87 
   0  -1   5   18.97    0.73 
   0  -1  -5   18.74    0.96 
   0   1   5   19.21    0.98 
   0   1  -5   19.14    0.80 
   0   1   5   18.72    0.75 
   0   1  -5   19.94    0.79 
   0   1  -5   19.53    1.00 
   0   1  -5   20.00    0.94 
   0   1   5   18.83    0.90 
   0   1   5   19.15    0.82 
   0   1   5   19.39    0.81 
   1  -1   5   42.95    1.66 
   1  -1   5   42.28    1.51 
  -1  -1  -5   43.89    2.03 
   1  -1   5   42.38    1.53 
  -1  -1  -5   41.19    1.79 
  -1  -1  -5   42.08    2.16 
   1  -1   5   42.13    1.69 
  -1  -1  -5   40.61    1.71 
   1  -1   5   42.06    1.55 
   1  -1   5   42.09    1.86 
  -1   1  -5   40.86    1.66 
   1   1   5   42.43    1.86 
   1   1   5   40.89    1.69 
   1   1   5   42.32    1.67 
   1   1   5   41.78    1.55 
   1   1   5   41.06    1.54 
   1   1   5   40.83    1.50 
  -1   1  -5   42.09    1.63 
  -2  -1  -5  121.48    5.97 
   2  -1   5  118.96    4.60 
   2  -1   5  117.50    4.08 
  -2  -1  -5  124.26    5.57 
   2  -1   5  117.31    5.17 
  -2  -1  -5  121.36    4.96 
  -2  -1  -5  118.37    4.17 
  -2  -1  -5  117.49    4.73 
   2  -1   5  119.28    4.28 
  -2  -1  -5  114.49    4.36 
   2   1   5  116.14    4.23 
   2   1   5  110.79    4.02 
  -2   1  -5  119.72    4.62 
   2   1   5  115.33    4.28 
   2   1   5  120.52    4.63 
   2   1   5  116.52    4.56 
   2   1   5  118.10    4.10 
   2   1   5  116.73    4.15 
   2   1   5  118.68    5.11 
  -3  -1  -5   43.26    2.08 
  -3  -1  -5   45.06    1.76 
   3  -1   5   42.38    1.49 
  -3  -1  -5   41.21    1.49 
  -3  -1  -5   40.11    2.20 
   3  -1   5   44.47    1.59 
  -3  -1  -5   42.31    1.81 
  -3  -1  -5   42.33    1.52 
  -3  -1  -5   40.44    1.43 
   3   1   5   43.41    1.76 
   3   1   5   42.82    1.61 
   3   1   5   40.77    1.73 
   3   1   5   42.53    1.54 
   3   1   5   43.46    1.56 
  -3   1  -5   43.21    1.71 
   3   1   5   42.96    1.92 
   3   1   5   41.25    1.45 
   3   1   5   42.63    1.60 
  -3   1  -5   40.95    1.45 
   3   1   5   41.08    1.50 
  -4  -1  -5   28.93    1.19 
  -4  -1  -5   27.43    0.96 
  -4  -1  -5   28.92    1.18 
   4  -1   5   27.06    0.99 
  -4  -1  -5   27.42    0.79 
  -4  -1  -5   23.00    1.44 
   4  -1   5   27.92    1.07 
  -4  -1  -5   27.76    1.00 
  -4  -1  -5   26.81    1.40 
  -4   1  -5   26.28    0.94 
   4   1   5   27.51    0.97 
   4   1   5   27.52    1.28 
   4   1   5   26.99    0.99 
   4   1   5   27.28    1.08 
   4   1   5   27.79    1.04 
   4   1   5   27.26    1.06 
   4   1   5   26.90    1.37 
   4   1   5   23.54    1.17 
   4   1   5   28.16    1.02 
  -4   1  -5   25.60    1.11 
  -5  -1  -5    3.21    0.22 
  -5  -1  -5    3.78    0.23 
   5  -1   5    3.81    0.22 
  -5  -1  -5    2.90    0.22 
  -5  -1  -5    3.65    0.21 
  -5  -1  -5    3.42    0.19 
  -5  -1  -5    3.63    0.18 
  -5  -1  -5    3.98    0.28 
  -5  -1  -5    3.48    0.24 
  -5  -1  -5    4.08    0.25 
  -5  -1  -5    3.45    0.27 
  -5  -1  -5    3.26    0.23 
  -5  -1  -5    3.44    0.20 
  -5  -1  -5    3.57    0.18 
  -5   1  -5    3.60    0.21 
  -5   1  -5    3.71    0.20 
   5   1   5    3.58    0.34 
  -5   1  -5    3.43    0.19 
   5   1   5    3.72    0.21 
  -5   1  -5    3.92    0.18 
  -5   1  -5    3.88    0.21 
   5   1   5    3.64    0.24 
  -5   1  -5    3.56    0.19 
   5   1   5    3.85    0.26 
   5   1   5    3.91    0.26 
   5   1   5    3.32    0.36 
   5   1   5    3.76    0.26 
  -6  -1  -5    3.24    0.14 
  -6  -1  -5    3.37    0.22 
  -6  -1  -5    2.87    0.21 
  -6  -1  -5    3.08    0.22 
  -6  -1  -5    2.80    0.20 
  -6  -1  -5    3.21    0.11 
  -6  -1  -5    3.13    0.19 
  -6  -1  -5    3.06    0.16 
  -6  -1  -5    2.84    0.23 
  -6  -1  -5    3.27    0.23 
  -6  -1  -5    3.14    0.22 
  -6  -1  -5    3.13    0.20 
  -6   1  -5    2.38    0.19 
   6   1   5    2.68    0.29 
   6   1   5    2.70    0.21 
  -6   1  -5    2.82    0.16 
  -6   1  -5    2.67    0.18 
  -6   1  -5    2.86    0.18 
  -6   1  -5    2.62    0.15 
   6   1   5    2.86    0.18 
  -7  -1  -5    1.76    0.14 
  -7  -1  -5    2.07    0.13 
  -7  -1  -5    1.91    0.08 
   7  -1   5    1.82    0.12 
  -7  -1  -5    1.89    0.13 
  -7  -1  -5    1.83    0.11 
  -7  -1  -5    2.00    0.16 
  -7  -1  -5    1.69    0.16 
   7   1   5    1.89    0.12 
   7   1   5    2.15    0.16 
  -7   1  -5    2.03    0.14 
   7   1   5    1.93    0.11 
  -7   1  -5    1.78    0.12 
  -8  -2   5    6.92    0.18 
  -8  -2   5    7.03    0.27 
   8  -2  -5    6.74    0.26 
  -8  -2   5    7.13    0.31 
  -8  -2   5    6.96    0.25 
  -8  -2   5    7.05    0.29 
   8  -2  -5    6.68    0.24 
  -8   2   5    7.09    0.29 
  -8   2   5    6.69    0.23 
  -8   2   5    7.18    0.27 
  -8   2   5    6.98    0.20 
   8   2  -5    6.87    0.20 
   8   2  -5    6.78    0.29 
   8   2  -5    7.21    0.28 
  -8   2   5    6.71    0.28 
  -8   2   5    6.80    0.30 
   8   2  -5    7.26    0.28 
  -8   2   5    6.75    0.26 
  -8   2   5    6.55    0.27 
   8   2  -5    7.36    0.26 
  -7  -2   5    4.89    0.23 
   7  -2  -5    4.63    0.39 
  -7  -2   5    4.95    0.31 
  -7  -2   5    4.52    0.23 
  -7  -2   5    4.20    0.25 
  -7  -2   5    4.33    0.26 
   7  -2  -5    4.67    0.27 
   7  -2  -5    4.27    0.23 
  -7  -2   5    4.62    0.19 
  -7  -2   5    4.56    0.26 
  -7  -2   5    4.30    0.29 
  -7  -2   5    4.81    0.27 
  -7   2   5    4.20    0.27 
   7   2  -5    4.39    0.28 
  -7   2   5    4.17    0.24 
  -7   2   5    4.43    0.28 
   7   2  -5    4.10    0.24 
   7   2  -5    4.54    0.17 
  -7   2   5    4.37    0.24 
  -7   2   5    4.26    0.26 
  -7   2   5    4.13    0.26 
  -7   2   5    4.59    0.28 
  -7   2   5    4.58    0.26 
  -7   2   5    4.53    0.24 
   7   2  -5    3.89    0.24 
  -7   2   5    4.59    0.19 
  -7   2   5    4.59    0.17 
   7   2  -5    4.84    0.23 
  -7   2   5    4.33    0.25 
  -7   2   5    4.83    0.23 
   7   2  -5    4.43    0.18 
   7   2  -5    4.54    0.24 
   7   2  -5    4.17    0.22 
  -7   2   5    4.76    0.30 
  -7   2   5    4.66    0.28 
   6  -2  -5    3.79    0.24 
   6  -2  -5    3.72    0.34 
  -6  -2   5    3.79    0.27 
   6  -2  -5    3.11    0.29 
   6  -2  -5    3.39    0.22 
  -6  -2   5    3.86    0.30 
   6  -2  -5    3.43    0.25 
   6  -2  -5    3.94    0.27 
  -6  -2   5    3.58    0.22 
   6  -2  -5    3.62    0.24 
  -6  -2   5    3.84    0.26 
  -6  -2   5    3.34    0.31 
  -6   2   5    3.45    0.17 
  -6   2   5    3.23    0.25 
   6   2  -5    3.38    0.26 
  -6   2   5    2.90    0.28 
   6   2  -5    3.51    0.27 
  -6   2   5    3.62    0.24 
   6   2  -5    3.43    0.23 
   6   2  -5    3.26    0.16 
  -6   2   5    3.43    0.25 
   6   2  -5    3.54    0.21 
   6   2  -5    3.33    0.30 
   6   2  -5    2.83    0.25 
  -6   2   5    3.53    0.24 
  -6   2   5    3.58    0.25 
  -6   2   5    3.24    0.25 
  -6   2   5    3.44    0.28 
  -6   2   5    3.41    0.27 
   5  -2  -5   28.17    1.33 
  -5  -2   5   27.17    1.43 
  -5  -2   5   26.14    1.36 
  -5  -2   5   28.32    1.02 
   5  -2  -5   29.95    1.09 
   5  -2  -5   30.05    1.07 
  -5  -2   5   28.11    1.09 
   5  -2  -5   29.38    1.01 
   5  -2  -5   28.81    1.44 
  -5  -2   5   28.16    1.04 
   5  -2  -5   28.68    1.04 
   5  -2  -5   28.99    1.24 
  -5  -2   5   27.25    1.28 
  -5  -2   5   28.28    1.13 
   5  -2  -5   29.37    1.13 
  -5  -2   5   28.74    1.10 
  -5  -2   5   28.04    1.07 
  -5  -2   5   28.30    1.12 
   5  -2  -5   29.05    1.13 
  -5   2   5   27.57    1.03 
   5   2  -5   26.39    1.53 
  -5   2   5   29.21    1.21 
   5   2  -5   27.42    1.00 
   5   2  -5   26.16    1.06 
   5   2  -5   26.90    0.91 
   5   2  -5   27.51    1.04 
   5   2  -5   29.38    1.12 
   5   2  -5   29.32    1.27 
  -5   2   5   27.66    0.79 
  -5   2   5   28.39    1.03 
  -5   2   5   28.88    0.99 
   5   2  -5   26.86    1.09 
   5   2  -5   27.74    0.80 
  -5   2   5   28.93    1.02 
  -5   2   5   30.44    1.51 
  -5   2   5   28.63    1.08 
  -5   2   5   29.68    1.45 
  -5   2   5   28.49    1.22 
   5   2  -5   28.80    1.46 
   5   2  -5   27.18    1.05 
  -5   2   5   28.32    1.11 
   4  -2  -5   18.19    0.75 
   4  -2  -5   17.70    0.70 
  -4  -2   5   17.94    0.71 
  -4  -2   5   18.87    0.91 
  -4  -2   5   18.15    0.69 
  -4  -2   5   18.27    0.73 
   4  -2  -5   17.77    0.75 
  -4  -2   5   17.27    0.67 
  -4  -2   5   17.87    0.73 
  -4  -2   5   18.60    0.79 
  -4  -2   5   18.87    0.75 
   4  -2  -5   18.68    0.88 
   4  -2  -5   17.69    0.67 
   4  -2  -5   18.01    0.68 
   4  -2  -5   18.55    0.82 
  -4  -2   5   19.07    0.86 
  -4  -2   5   19.15    0.87 
  -4  -2   5   18.98    0.75 
   4  -2  -5   18.27    0.72 
   4  -2  -5   17.73    0.82 
   4   2  -5   16.75    0.69 
  -4   2   5   16.10    0.91 
   4   2  -5   17.75    0.96 
  -4   2   5   16.52    0.64 
   4   2  -5   18.10    0.79 
  -4   2   5   16.89    0.76 
   4   2  -5   16.89    0.63 
   4   2  -5   17.03    0.49 
  -4   2   5   16.46    0.64 
   4   2  -5   17.72    0.66 
  -4   2   5   16.54    0.77 
  -4   2   5   16.09    0.63 
   4   2  -5   16.79    0.91 
  -4   2   5   16.57    0.70 
  -4   2   5   17.03    0.94 
   3  -2  -5   32.49    1.19 
   3  -2  -5   33.26    1.37 
  -3  -2   5   32.79    1.20 
   3  -2  -5   33.27    1.49 
   3  -2  -5   32.09    1.25 
  -3  -2   5   34.08    1.27 
  -3  -2   5   32.42    1.16 
  -3  -2   5   31.69    1.24 
   3  -2  -5   31.21    1.35 
  -3  -2   5   34.22    1.51 
  -3  -2   5   33.78    1.37 
   3  -2  -5   32.97    1.25 
   3  -2  -5   32.21    1.21 
  -3  -2   5   32.14    1.22 
   3  -2  -5   30.94    1.16 
  -3  -2   5   34.84    1.39 
   3   2  -5   32.91    1.29 
   3   2  -5   30.73    1.19 
  -3   2   5   30.10    1.20 
  -3   2   5   31.13    1.64 
   3   2  -5   29.82    1.13 
  -3   2   5   29.04    1.08 
  -3   2   5   32.39    1.30 
   3   2  -5   30.65    1.53 
   3   2  -5   32.70    1.34 
  -3   2   5   30.54    1.13 
  -3   2   5   30.26    1.35 
   3   2  -5   33.18    1.63 
  -3   2   5   31.23    1.55 
   2  -2  -5   25.81    0.98 
   2  -2  -5   29.41    1.26 
   2  -2  -5   27.61    1.02 
  -2  -2   5   26.68    1.01 
  -2  -2   5   28.54    1.17 
   2  -2  -5   26.90    1.06 
  -2  -2   5   26.66    1.05 
  -2  -2   5   26.99    1.14 
   2  -2  -5   28.43    1.15 
  -2  -2   5   27.37    1.06 
  -2  -2   5   27.01    0.98 
  -2  -2   5   26.98    1.02 
   2  -2  -5   29.43    1.06 
   2  -2  -5   27.05    1.01 
   2  -2  -5   29.20    1.16 
  -2  -2   5   27.77    1.26 
  -2   2   5   26.75    0.98 
   2   2  -5   24.58    1.09 
  -2   2   5   27.28    1.41 
  -2   2   5   27.40    1.16 
   2   2  -5   27.20    1.38 
  -2   2   5   27.12    1.34 
  -2   2   5   26.61    1.12 
   2   2  -5   26.73    1.30 
   2   2  -5   26.52    1.10 
   2   2  -5   25.93    1.13 
   1  -2  -5  290.18   13.18 
   1  -2  -5  279.56    9.89 
   1  -2  -5  288.17   10.19 
  -1  -2   5  287.08   11.11 
   1  -2  -5  291.07   12.33 
   1  -2  -5  283.88   10.01 
   1  -2  -5  296.61   11.13 
  -1  -2   5  283.12   10.00 
   1  -2  -5  285.30   10.96 
   1  -2  -5  267.54   10.33 
  -1  -2   5  290.72   10.18 
  -1  -2   5  301.83    9.94 
  -1  -2   5  277.89   10.94 
  -1  -2   5  269.89   12.32 
  -1   2   5  274.06   13.78 
   1   2  -5  274.09   10.86 
  -1   2   5  277.11   12.79 
  -1   2   5  271.88    9.64 
   1   2  -5  276.86   13.73 
   1   2  -5  284.14   10.67 
  -1   2   5  278.00   11.45 
   0  -2   5   15.14    0.59 
   0  -2  -5   15.54    0.69 
   0  -2  -5   15.12    0.59 
   0  -2  -5   15.13    0.81 
   0  -2  -5   14.67    0.61 
   0  -2  -5   15.67    0.73 
   0  -2  -5   15.34    0.68 
   0  -2  -5   15.18    0.58 
   0  -2  -5   14.72    0.59 
   0   2   5   15.12    0.67 
   0   2   5   15.55    0.80 
   0   2  -5   14.90    0.62 
   0   2   5   14.76    0.84 
   0   2   5   14.97    0.72 
   0   2   5   14.42    0.58 
   0   2   5   14.88    0.66 
   0   2   5   14.71    0.59 
  -1  -2  -5   11.02    0.47 
  -1  -2  -5   10.33    0.52 
  -1  -2  -5   10.61    0.45 
  -1  -2  -5   10.35    0.44 
  -1  -2  -5   11.07    0.63 
  -1  -2  -5   11.04    0.52 
  -1  -2  -5   10.94    0.55 
   1  -2   5   10.99    0.43 
  -1  -2  -5   10.63    0.44 
  -1   2  -5   10.37    0.43 
   1   2   5   11.10    0.52 
   1   2   5   10.15    0.46 
   1   2   5   10.71    0.54 
   1   2   5   11.13    0.52 
   1   2   5   10.65    0.62 
   1   2   5   10.34    0.44 
   1   2   5   10.14    0.43 
   1   2   5   10.67    0.44 
   2  -2   5   13.78    0.52 
  -2  -2  -5   12.76    0.40 
  -2  -2  -5   12.58    0.63 
  -2  -2  -5   13.54    0.75 
  -2  -2  -5   13.21    0.56 
  -2  -2  -5   13.28    0.53 
  -2  -2  -5   13.15    0.76 
  -2  -2  -5   12.92    0.52 
   2   2   5   12.65    0.49 
   2   2   5   11.82    0.60 
   2   2   5   13.33    0.62 
   2   2   5   12.43    0.53 
   2   2   5   12.99    0.52 
   2   2   5   13.20    0.53 
   2   2   5   12.77    0.65 
   2   2   5   12.61    0.53 
   2   2   5   12.77    0.54 
   2   2   5   13.84    0.76 
   3  -2   5    9.81    0.40 
  -3  -2  -5    9.08    0.41 
  -3  -2  -5    8.79    0.34 
  -3  -2  -5    9.84    0.61 
  -3  -2  -5    8.65    0.42 
  -3  -2  -5    8.92    0.39 
  -3  -2  -5    9.53    0.41 
  -3  -2  -5    8.81    0.41 
  -3  -2  -5    9.37    0.49 
  -3  -2  -5    9.52    0.61 
   3   2   5    9.33    0.42 
   3   2   5    9.64    0.43 
   3   2   5    8.84    0.38 
   3   2   5    7.27    0.54 
   3   2   5    9.55    0.41 
   3   2   5    9.04    0.49 
   3   2   5    9.15    0.50 
   3   2   5    9.36    0.42 
   3   2   5    7.66    0.47 
  -4  -2  -5    0.92    0.13 
  -4  -2  -5    1.13    0.20 
  -4  -2  -5    1.06    0.17 
   4  -2   5    1.29    0.13 
  -4  -2  -5    1.38    0.21 
   4  -2   5    1.30    0.15 
  -4  -2  -5    1.31    0.20 
  -4  -2  -5    1.20    0.26 
   4   2   5    1.33    0.19 
   4   2   5    1.07    0.28 
   4   2   5    1.30    0.19 
   4   2   5    1.27    0.18 
   4   2   5    1.03    0.22 
   4   2   5    1.05    0.19 
   4   2   5    1.30    0.18 
  -5  -2  -5    5.08    0.32 
  -5  -2  -5    5.01    0.28 
  -5  -2  -5    5.13    0.33 
  -5  -2  -5    4.92    0.23 
  -5  -2  -5    4.64    0.20 
  -5  -2  -5    4.81    0.26 
  -5  -2  -5    5.11    0.29 
  -5  -2  -5    4.54    0.23 
   5  -2   5    5.07    0.25 
   5   2   5    4.62    0.26 
   5   2   5    4.50    0.30 
   5   2   5    4.95    0.21 
   5   2   5    4.78    0.30 
   5   2   5    5.00    0.31 
   5   2   5    4.57    0.22 
  -5   2  -5    4.98    0.22 
   5   2   5    4.66    0.39 
  -5   2  -5    4.96    0.22 
  -5   2  -5    4.56    0.22 
   5   2   5    4.61    0.31 
  -5   2  -5    4.76    0.19 
   5   2   5    4.68    0.28 
  -6  -2  -5    5.65    0.21 
  -6  -2  -5    5.75    0.27 
  -6  -2  -5    5.76    0.30 
  -6  -2  -5    6.05    0.24 
  -6  -2  -5    5.09    0.27 
  -6  -2  -5    5.52    0.29 
  -6  -2  -5    5.68    0.20 
  -6  -2  -5    5.78    0.23 
  -6  -2  -5    5.70    0.21 
  -6  -2  -5    5.40    0.24 
  -6  -2  -5    5.74    0.28 
   6   2   5    5.54    0.27 
  -6   2  -5    5.69    0.23 
   6   2   5    4.47    0.37 
  -6   2  -5    5.68    0.19 
   6   2   5    5.20    0.20 
   6   2   5    5.54    0.23 
  -6   2  -5    5.80    0.24 
  -7  -2  -5    2.68    0.11 
  -7  -2  -5    2.82    0.13 
  -7  -2  -5    2.69    0.17 
  -7  -2  -5    2.71    0.15 
   7   2   5    2.85    0.16 
  -7   2  -5    2.75    0.13 
  -7   2  -5    3.11    0.13 
  -8  -3   5   13.42    0.47 
   8  -3  -5   13.42    0.45 
  -8  -3   5   13.35    0.46 
  -8  -3   5   14.37    0.45 
  -8  -3   5   13.68    0.34 
  -8  -3   5   14.24    0.42 
  -8   3   5   14.27    0.46 
  -8   3   5   13.57    0.42 
  -8   3   5   14.03    0.42 
  -8   3   5   13.21    0.40 
   8   3  -5   14.14    0.46 
   8   3  -5   13.85    0.44 
   8   3  -5   13.64    0.48 
   8   3  -5   13.46    0.46 
  -8   3   5   13.54    0.42 
  -8   3   5   13.85    0.44 
  -8   3   5   14.62    0.47 
   7  -3  -5    7.78    0.30 
  -7  -3   5    7.46    0.33 
   7  -3  -5    7.74    0.50 
  -7  -3   5    8.01    0.33 
  -7  -3   5    7.77    0.31 
  -7  -3   5    8.04    0.30 
  -7   3   5    8.08    0.31 
  -7   3   5    8.14    0.31 
   7   3  -5    7.97    0.21 
   7   3  -5    8.03    0.30 
  -7   3   5    7.73    0.30 
   7   3  -5    6.56    0.38 
  -7   3   5    7.96    0.32 
   7   3  -5    7.56    0.35 
   7   3  -5    7.68    0.27 
   7   3  -5    6.91    0.36 
   7   3  -5    8.27    0.33 
  -7   3   5    7.52    0.33 
   7   3  -5    7.88    0.32 
   7   3  -5    7.62    0.31 
  -7   3   5    8.13    0.33 
   7   3  -5    7.86    0.27 
  -6  -3   5   37.22    1.44 
  -6  -3   5   38.90    1.25 
  -6  -3   5   38.76    1.34 
   6  -3  -5   38.77    1.21 
   6  -3  -5   36.08    1.47 
  -6  -3   5   39.62    1.36 
  -6  -3   5   37.27    1.44 
   6  -3  -5   38.30    1.38 
   6  -3  -5   41.76    1.33 
  -6  -3   5   39.07    1.41 
   6  -3  -5   38.23    1.90 
  -6  -3   5   34.10    1.47 
  -6  -3   5   38.60    1.06 
  -6  -3   5   36.11    1.89 
  -6   3   5   39.38    1.23 
  -6   3   5   39.19    1.20 
  -6   3   5   38.88    1.03 
   6   3  -5   38.50    1.21 
   6   3  -5   38.08    1.38 
   6   3  -5   38.94    1.22 
  -6   3   5   38.40    1.22 
   6   3  -5   38.07    1.20 
  -6   3   5   38.09    0.97 
  -6   3   5   36.36    1.47 
   6   3  -5   36.81    1.49 
   6   3  -5   37.41    1.22 
   6   3  -5   39.55    1.34 
   6   3  -5   38.72    0.93 
  -6   3   5   38.84    1.37 
   6   3  -5   39.62    1.40 
  -6   3   5   38.20    1.24 
   6   3  -5   39.43    1.46 
  -6   3   5   39.28    1.37 
  -6   3   5   40.43    1.35 
   6   3  -5   36.62    1.04 
   6   3  -5   37.96    1.08 
  -6   3   5   37.43    1.16 
   6   3  -5   39.09    1.28 
   6   3  -5   37.57    1.13 
  -5  -3   5   41.32    1.66 
  -5  -3   5   44.05    1.61 
  -5  -3   5   45.24    2.14 
   5  -3  -5   44.32    1.57 
  -5  -3   5   37.91    2.00 
   5  -3  -5   44.68    1.66 
  -5  -3   5   43.18    1.63 
  -5  -3   5   43.82    1.52 
  -5  -3   5   44.53    1.50 
   5  -3  -5   44.64    1.97 
   5  -3  -5   43.36    1.59 
   5  -3  -5   39.74    1.64 
   5  -3  -5   43.77    1.49 
   5  -3  -5   42.09    2.13 
   5  -3  -5   44.00    1.55 
  -5  -3   5   42.38    1.58 
   5   3  -5   42.17    1.53 
  -5   3   5   43.02    1.15 
   5   3  -5   41.20    1.84 
   5   3  -5   41.97    1.60 
  -5   3   5   43.11    1.51 
  -5   3   5   42.30    1.50 
   5   3  -5   43.65    1.47 
  -5   3   5   42.08    1.50 
   5   3  -5   42.43    1.64 
  -5   3   5   44.16    1.77 
  -5   3   5   42.46    1.58 
  -5   3   5   42.37    1.63 
   5   3  -5   42.70    1.52 
  -4  -3   5    7.46    0.39 
   4  -3  -5    7.73    0.38 
  -4  -3   5    7.15    0.42 
  -4  -3   5    6.76    0.47 
   4  -3  -5    7.42    0.33 
  -4  -3   5    7.74    0.48 
   4  -3  -5    7.32    0.38 
   4  -3  -5    7.11    0.34 
  -4  -3   5    7.70    0.39 
   4  -3  -5    7.47    0.43 
  -4  -3   5    7.14    0.37 
   4  -3  -5    7.81    0.43 
  -4  -3   5    7.14    0.35 
  -4  -3   5    6.88    0.33 
   4  -3  -5    7.26    0.33 
  -4  -3   5    6.92    0.34 
   4  -3  -5    7.13    0.34 
  -4  -3   5    7.20    0.46 
   4  -3  -5    7.38    0.47 
  -4   3   5    7.27    0.36 
   4   3  -5    6.81    0.34 
   4   3  -5    7.10    0.37 
  -4   3   5    7.09    0.33 
  -4   3   5    6.86    0.33 
   4   3  -5    6.83    0.31 
  -4   3   5    6.96    0.34 
   4   3  -5    6.39    0.46 
   4   3  -5    6.99    0.32 
   4   3  -5    7.15    0.47 
  -4   3   5    6.80    0.44 
  -4   3   5    7.54    0.39 
   4   3  -5    7.16    0.36 
  -4   3   5    6.56    0.32 
   4   3  -5    7.10    0.39 
  -4   3   5    6.73    0.33 
  -4   3   5    6.97    0.24 
   4   3  -5    6.97    0.33 
  -3  -3   5   13.09    0.57 
   3  -3  -5   12.74    0.51 
   3  -3  -5   12.62    0.54 
   3  -3  -5   12.66    0.54 
   3  -3  -5   10.91    0.57 
  -3  -3   5   12.42    0.65 
  -3  -3   5   11.81    0.52 
  -3  -3   5   12.77    0.62 
   3  -3  -5   12.10    0.47 
  -3  -3   5   11.88    0.60 
  -3  -3   5   11.75    0.50 
  -3  -3   5   12.02    0.52 
  -3  -3   5   12.30    0.48 
   3  -3  -5   12.25    0.62 
   3  -3  -5   12.09    0.49 
   3  -3  -5   12.33    0.50 
   3  -3  -5   11.94    0.59 
  -3  -3   5   12.61    0.53 
  -3   3   5   10.90    0.36 
   3   3  -5   11.20    0.47 
   3   3  -5   11.53    0.66 
  -3   3   5   11.58    0.47 
   3   3  -5   11.49    0.36 
  -3   3   5   12.23    0.68 
   3   3  -5   12.16    0.50 
  -3   3   5   11.78    0.66 
  -3   3   5   11.53    0.45 
   3   3  -5   10.98    0.64 
   3   3  -5   11.29    0.46 
   3   3  -5   11.24    0.44 
   3   3  -5   11.92    0.54 
  -3   3   5   12.11    0.56 
  -3   3   5   11.89    0.54 
  -3   3   5   11.60    0.51 
   3   3  -5   11.46    0.52 
   2  -3  -5    0.90    0.16 
   2  -3  -5    0.54    0.13 
  -2  -3   5    0.84    0.14 
  -2  -3   5    0.62    0.14 
  -2  -3   5    0.76    0.15 
  -2  -3   5    0.93    0.18 
   2  -3  -5    0.68    0.15 
   2  -3  -5    0.82    0.13 
  -2  -3   5    0.82    0.14 
  -2  -3   5    0.67    0.10 
   2  -3  -5    0.99    0.14 
  -2  -3   5    0.71    0.17 
   2  -3  -5    0.76    0.15 
   2  -3  -5    0.64    0.15 
  -2  -3   5    0.92    0.17 
   2  -3  -5    0.99    0.12 
   2  -3  -5    1.25    0.14 
  -2  -3   5    0.86    0.18 
  -2   3   5    1.08    0.15 
  -2   3   5    0.83    0.14 
   2   3  -5    0.56    0.12 
  -2   3   5    1.07    0.20 
  -2   3   5    0.83    0.16 
  -2   3   5    0.82    0.19 
   2   3  -5    0.87    0.14 
   1  -3  -5   39.13    1.59 
   1  -3  -5   37.84    1.41 
  -1  -3   5   37.98    1.43 
   1  -3  -5   37.50    1.31 
   1  -3  -5   38.34    1.39 
   1  -3  -5   36.96    1.57 
   1  -3  -5   39.42    1.74 
   1  -3  -5   38.13    1.46 
   1  -3  -5   37.66    1.36 
   1  -3  -5   39.77    1.45 
  -1  -3   5   38.34    1.34 
  -1   3   5   36.93    1.33 
  -1   3   5   36.80    1.01 
  -1   3   5   36.70    1.91 
  -1   3   5   35.11    1.80 
   1   3  -5   35.70    1.47 
  -1   3   5   38.39    1.58 
  -1   3   5   35.80    1.51 
  -1   3   5   36.79    1.40 
   0  -3  -5    3.10    0.20 
   0  -3  -5    3.14    0.23 
   0  -3  -5    3.01    0.19 
   0  -3  -5    3.08    0.21 
   0  -3  -5    2.71    0.23 
   0  -3  -5    2.97    0.21 
   0  -3   5    3.37    0.18 
   0  -3  -5    2.90    0.19 
   0  -3  -5    3.10    0.24 
   0  -3  -5    2.85    0.21 
   0  -3  -5    2.83    0.24 
   0   3   5    3.14    0.28 
   0   3   5    3.03    0.30 
   0   3   5    2.99    0.14 
   0   3   5    2.93    0.19 
   0   3   5    3.07    0.23 
   0   3   5    2.71    0.21 
  -1  -3  -5    3.18    0.20 
  -1  -3  -5    2.92    0.23 
  -1  -3  -5    2.99    0.22 
  -1  -3  -5    3.05    0.21 
  -1  -3  -5    3.26    0.27 
  -1  -3  -5    2.97    0.26 
  -1  -3  -5    2.96    0.22 
  -1  -3  -5    2.97    0.21 
  -1  -3  -5    3.13    0.26 
  -1  -3  -5    3.61    0.21 
   1   3   5    3.70    0.26 
   1   3   5    3.21    0.21 
   1   3   5    3.15    0.16 
   1   3   5    3.22    0.31 
   1   3   5    3.08    0.21 
   1   3   5    2.93    0.30 
   1   3   5    3.28    0.24 
  -2  -3  -5    8.77    0.39 
  -2  -3  -5    8.35    0.38 
  -2  -3  -5    7.11    0.41 
  -2  -3  -5    8.26    0.38 
  -2  -3  -5    8.45    0.37 
  -2  -3  -5    8.70    0.36 
  -2  -3  -5    8.26    0.39 
  -2  -3  -5    8.34    0.33 
  -2  -3  -5    8.68    0.57 
  -2  -3  -5    7.52    0.46 
   2   3   5    7.82    0.29 
   2   3   5    8.16    0.55 
   2   3   5    8.43    0.38 
   2   3   5    7.78    0.36 
   2   3   5    7.90    0.32 
  -3  -3  -5  120.24    3.23 
  -3  -3  -5  117.01    4.15 
  -3  -3  -5  113.75    3.80 
  -3  -3  -5  113.34    4.15 
  -3  -3  -5  125.43    5.59 
  -3  -3  -5  114.98    3.89 
   3   3   5  115.16    3.95 
   3   3   5  110.16    5.30 
   3   3   5  108.34    3.69 
  -4  -3  -5   46.56    1.44 
  -4  -3  -5   46.71    1.41 
  -4  -3  -5   45.84    1.67 
  -4  -3  -5   45.41    1.51 
  -4  -3  -5   44.77    1.27 
  -4  -3  -5   45.48    1.65 
  -4  -3  -5   44.91    1.43 
  -4  -3  -5   42.67    1.48 
  -4  -3  -5   44.90    1.22 
  -4  -3  -5   45.70    1.34 
  -4  -3  -5   44.18    1.53 
  -4  -3  -5   47.60    1.57 
  -4  -3  -5   45.61    1.63 
   4   3   5   42.99    1.22 
   4   3   5   45.93    1.62 
   4   3   5   43.71    1.44 
  -4   3  -5   43.37    1.38 
   4   3   5   43.58    1.66 
   4   3   5   44.26    1.63 
  -5  -3  -5   28.56    1.05 
  -5  -3  -5   29.67    1.06 
  -5  -3  -5   30.22    0.85 
  -5  -3  -5   28.68    0.94 
  -5  -3  -5   30.30    0.72 
  -5  -3  -5   30.03    0.89 
  -5  -3  -5   31.11    1.02 
  -5  -3  -5   28.08    0.95 
  -5  -3  -5   30.92    0.96 
  -5  -3  -5   30.19    0.98 
   5   3   5   29.01    1.09 
   5   3   5   29.12    0.81 
   5   3   5   28.66    0.96 
   5   3   5   28.47    0.97 
  -5   3  -5   30.19    0.92 
   5   3   5   28.51    0.93 
   5   3   5   27.83    0.85 
  -6  -3  -5   23.59    0.77 
  -6  -3  -5   21.36    0.71 
  -6  -3  -5   21.81    0.63 
  -6  -3  -5   22.21    0.73 
   6   3   5   22.13    0.74 
   6   3   5   21.90    0.71 
  -7  -4   5    5.82    0.24 
   7  -4  -5    6.55    0.24 
  -7  -4   5    5.96    0.26 
  -7  -4   5    6.07    0.26 
  -7   4   5    5.92    0.20 
   7   4  -5    6.06    0.25 
   7   4  -5    5.74    0.24 
   7   4  -5    5.91    0.20 
  -7   4   5    5.50    0.24 
  -7   4   5    6.14    0.21 
   7   4  -5    6.16    0.21 
  -7   4   5    6.00    0.24 
   7   4  -5    6.16    0.24 
  -6  -4   5    5.59    0.30 
  -6  -4   5    5.45    0.27 
  -6  -4   5    5.08    0.23 
   6  -4  -5    5.26    0.23 
  -6  -4   5    5.17    0.39 
  -6  -4   5    5.27    0.20 
   6  -4  -5    5.70    0.27 
  -6  -4   5    5.31    0.30 
   6  -4  -5    4.27    0.38 
  -6   4   5    5.39    0.22 
   6   4  -5    5.18    0.26 
  -6   4   5    5.23    0.25 
   6   4  -5    5.62    0.31 
   6   4  -5    5.27    0.28 
   6   4  -5    5.43    0.22 
  -6   4   5    5.48    0.23 
   6   4  -5    5.47    0.28 
  -6   4   5    5.36    0.26 
   6   4  -5    5.66    0.20 
   6   4  -5    5.46    0.25 
   6   4  -5    5.18    0.22 
  -6   4   5    5.86    0.25 
   6   4  -5    5.63    0.19 
   6   4  -5    5.39    0.24 
   5  -4  -5    0.66    0.15 
  -5  -4   5    0.22    0.13 
  -5  -4   5    0.85    0.21 
  -5  -4   5    0.51    0.18 
   5  -4  -5    0.20    0.11 
   5  -4  -5    0.38    0.18 
   5  -4  -5    0.34    0.13 
  -5  -4   5    0.66    0.14 
  -5  -4   5    0.62    0.19 
  -5  -4   5    0.35    0.15 
   5  -4  -5    0.59    0.12 
   5  -4  -5    0.45    0.09 
   5   4  -5    0.36    0.11 
   5   4  -5    0.83    0.13 
   5   4  -5    0.37    0.11 
  -5   4   5    0.72    0.17 
   5   4  -5    0.59    0.10 
   5   4  -5    0.21    0.09 
   5   4  -5    0.55    0.12 
   5   4  -5    0.29    0.10 
   5   4  -5    0.62    0.14 
  -5   4   5    0.41    0.11 
   5   4  -5    0.23    0.09 
   5   4  -5    0.63    0.17 
  -5   4   5    0.72    0.10 
  -5   4   5    0.52    0.10 
  -5   4   5    0.96    0.15 
   5   4  -5    0.34    0.10 
  -5   4   5    0.40    0.11 
  -5   4   5    0.60    0.13 
   5   4  -5    0.78    0.20 
   5   4  -5    0.61    0.18 
  -4  -4   5  102.32    4.37 
  -4  -4   5   91.73    3.40 
  -4  -4   5  101.19    3.63 
   4  -4  -5   99.33    3.46 
  -4  -4   5   91.37    3.53 
   4  -4  -5   98.60    3.63 
   4  -4  -5   98.56    4.32 
  -4  -4   5  101.04    3.50 
  -4  -4   5   97.83    3.30 
   4  -4  -5   99.36    3.28 
  -4  -4   5   97.16    4.72 
   4  -4  -5   95.08    3.50 
   4  -4  -5   99.55    3.41 
  -4   4   5   86.96    3.75 
  -4   4   5   93.07    3.47 
   4   4  -5   97.39    3.48 
   4   4  -5   95.29    3.24 
  -4   4   5   93.30    3.24 
   4   4  -5   90.39    3.20 
   4   4  -5   95.27    3.24 
   4   4  -5   95.39    2.51 
  -4   4   5   96.97    3.20 
  -4   4   5   96.37    3.22 
   4   4  -5   92.37    3.42 
   3  -4  -5   28.31    1.07 
   3  -4  -5   27.37    1.33 
   3  -4  -5   29.75    1.01 
   3  -4  -5   29.08    1.05 
  -3  -4   5   30.40    1.13 
   3  -4  -5   25.25    1.12 
   3  -4  -5   27.88    1.45 
  -3  -4   5   30.10    1.16 
  -3  -4   5   29.66    1.09 
  -3  -4   5   27.05    1.26 
   3  -4  -5   27.97    1.08 
  -3  -4   5   27.88    1.03 
  -3  -4   5   30.22    1.37 
   3  -4  -5   29.58    1.14 
  -3  -4   5   28.64    1.04 
   3  -4  -5   29.24    1.24 
  -3  -4   5   27.62    1.10 
   3   4  -5   28.85    1.16 
   3   4  -5   27.08    1.00 
   3   4  -5   27.17    0.74 
   3   4  -5   27.08    1.07 
  -3   4   5   27.49    1.00 
  -3   4   5   27.35    1.04 
   3   4  -5   27.55    0.99 
  -3   4   5   27.34    1.00 
   3   4  -5   27.48    1.03 
  -3   4   5   28.09    0.76 
  -3   4   5   28.41    1.18 
  -3   4   5   27.11    1.00 
   3   4  -5   27.91    0.99 
  -3   4   5   27.61    1.09 
   2  -4  -5   92.70    3.68 
  -2  -4   5   89.02    3.17 
   2  -4  -5   86.95    3.36 
   2  -4  -5   94.47    3.25 
   2  -4  -5   90.01    4.42 
   2  -4  -5   88.52    3.28 
   2  -4  -5   97.52    4.06 
   2  -4  -5   93.68    3.40 
   2  -4  -5   91.67    3.07 
  -2  -4   5   91.96    3.37 
   2  -4  -5   92.61    3.19 
  -2   4   5   88.80    4.33 
  -2   4   5   84.24    2.97 
   2   4  -5   86.15    2.90 
  -2   4   5   84.79    2.30 
  -2   4   5   90.33    3.45 
  -2   4   5   83.34    3.13 
   2   4  -5   84.83    2.94 
  -2   4   5   84.88    2.84 
   2   4  -5   86.99    3.41 
  -2   4   5   86.43    3.18 
  -2   4   5   81.42    2.93 
  -2   4   5   86.74    2.95 
   1  -4  -5   10.86    0.59 
   1  -4  -5   11.09    0.45 
   1  -4  -5   12.17    0.49 
   1  -4  -5   11.31    0.63 
   1  -4  -5   11.40    0.52 
   1  -4  -5   11.62    0.52 
   1  -4  -5   11.35    0.48 
  -1  -4   5   10.55    0.49 
   1  -4  -5   10.98    0.46 
   1  -4  -5   11.20    0.57 
  -1   4   5   10.09    0.34 
  -1   4   5   10.45    0.63 
  -1   4   5   10.50    0.45 
  -1   4   5   10.75    0.50 
  -1   4   5   10.47    0.48 
  -1   4   5   10.46    0.52 
  -1   4   5   10.09    0.43 
  -1   4   5   10.52    0.44 
  -1   4   5   10.53    0.43 
  -1   4   5   10.55    0.63 
   0  -4  -5   23.11    1.18 
   0  -4  -5   22.04    1.09 
   0  -4  -5   22.86    0.92 
   0  -4  -5   22.84    0.83 
   0  -4  -5   22.45    0.82 
   0  -4  -5   22.43    0.94 
   0  -4  -5   24.27    0.90 
   0  -4  -5   21.82    1.02 
   0  -4  -5   23.65    0.86 
   0  -4  -5   22.61    0.88 
   0   4   5   20.78    0.84 
   0   4   5   20.34    0.79 
   0   4   5   22.33    1.19 
   0   4   5   20.04    0.94 
   0   4   5   22.84    1.15 
   0   4   5   21.16    0.80 
   0   4   5   20.87    0.77 
   0   4   5   21.40    0.96 
   0   4   5   22.12    0.87 
  -1  -4  -5    3.25    0.31 
  -1  -4  -5    4.16    0.24 
  -1  -4  -5    4.13    0.27 
  -1  -4  -5    3.82    0.25 
  -1  -4  -5    3.60    0.25 
  -1  -4  -5    3.63    0.34 
  -1  -4  -5    3.89    0.32 
  -1  -4  -5    3.85    0.26 
  -1  -4  -5    3.78    0.27 
  -1  -4  -5    4.10    0.27 
   1   4   5    3.28    0.34 
   1   4   5    3.76    0.24 
   1   4   5    3.60    0.25 
   1   4   5    3.73    0.24 
   1   4   5    3.38    0.23 
   1   4   5    3.87    0.26 
   1   4   5    3.87    0.28 
   1   4   5    2.74    0.35 
   1   4   5    3.23    0.25 
  -2  -4  -5   93.85    4.50 
  -2  -4  -5   94.05    3.32 
  -2  -4  -5   90.62    3.47 
  -2  -4  -5   97.40    3.33 
  -2  -4  -5   94.80    3.14 
  -2  -4  -5   80.80    4.13 
  -2  -4  -5   94.72    3.37 
  -2  -4  -5   95.82    3.05 
  -2  -4  -5   96.66    3.32 
   2   4   5   91.51    3.11 
   2   4   5   96.51    3.81 
   2   4   5   85.26    3.30 
   2   4   5   89.02    3.35 
   2   4   5   91.42    3.13 
   2   4   5   90.66    2.46 
   2   4   5   90.30    3.00 
   2   4   5   86.72    3.20 
   2   4   5   86.85    4.59 
  -3  -4  -5   27.16    0.78 
  -3  -4  -5   29.76    1.06 
  -3  -4  -5   28.29    0.92 
  -3  -4  -5   25.54    0.86 
  -3  -4  -5   26.87    1.09 
  -3  -4  -5   26.47    0.93 
  -3  -4  -5   29.75    0.98 
  -3  -4  -5   28.50    1.07 
  -3  -4  -5   27.56    0.90 
   3   4   5   27.68    0.74 
   3   4   5   27.26    0.94 
   3   4   5   26.58    1.02 
   3   4   5   26.73    0.68 
   3   4   5   25.28    0.89 
   3   4   5   26.71    0.89 
   3   4   5   28.07    0.90 
   3   4   5   28.90    0.99 
   3   4   5   27.67    1.04 
   3   4   5   27.37    0.78 
   3   4   5   27.82    0.77 
   3   4   5   25.77    0.91 
  -4  -4  -5    9.56    0.41 
  -4  -4  -5    9.47    0.38 
  -4  -4  -5    9.16    0.37 
  -4  -4  -5    9.67    0.44 
  -4  -4  -5    9.66    0.38 
  -4  -4  -5    9.09    0.42 
  -4  -4  -5    8.81    0.36 
   4   4   5    9.19    0.39 
   4   4   5    8.35    0.28 
   4   4   5    9.17    0.37 
   4   4   5    9.06    0.27 
   4   4   5    9.12    0.37 
   4   4   5    9.17    0.37 
   4   4   5    9.34    0.42 
   4   4   5    9.25    0.36 
  -5  -4  -5   10.82    0.40 
  -5  -4  -5   10.42    0.40 
  -5  -4  -5   10.76    0.28 
  -5  -4  -5   10.93    0.37 
  -5  -4  -5   10.81    0.38 
  -5  -4  -5   10.18    0.35 
  -5  -4  -5   10.51    0.43 
   5   4   5   10.18    0.28 
   5   4   5   10.09    0.39 
   5   4   5   10.84    0.38 
   5   4   5   10.37    0.37 
   5   4   5   10.27    0.39 
  -6  -4  -5    1.70    0.13 
  -6  -4  -5    1.54    0.15 
  -6  -4  -5    1.22    0.14 
   6   4   5    1.46    0.12 
   6   4   5    1.69    0.07 
   6   4   5    1.57    0.12 
  -6  -5   5    5.39    0.22 
   6  -5  -5    5.65    0.22 
  -6  -5   5    5.41    0.19 
  -6  -5   5    5.65    0.25 
   6   5  -5    4.94    0.21 
  -6   5   5    5.16    0.21 
   6   5  -5    5.17    0.21 
  -6   5   5    5.42    0.18 
   6   5  -5    5.14    0.17 
   6   5  -5    5.03    0.17 
  -6   5   5    5.22    0.22 
   6   5  -5    5.07    0.21 
  -6   5   5    5.21    0.21 
   6   5  -5    5.26    0.20 
  -5  -5   5    6.31    0.42 
  -5  -5   5    6.14    0.25 
   5   5  -5    6.14    0.24 
  -5   5   5    5.61    0.25 
   5   5  -5    6.10    0.25 
  -5   5   5    5.86    0.22 
   5   5  -5    6.10    0.25 
  -5   5   5    5.80    0.25 
   5   5  -5    6.16    0.20 
  -5   5   5    6.05    0.23 
   5   5  -5    4.86    0.29 
   5   5  -5    5.97    0.27 
  -5   5   5    5.80    0.21 
   5   5  -5    5.41    0.27 
   5   5  -5    5.54    0.23 
   5   5  -5    5.92    0.25 
  -4  -5   5    0.40    0.16 
  -4  -5   5    0.68    0.18 
  -4  -5   5    0.27    0.09 
   4   5  -5    0.10    0.09 
  -4   5   5    0.21    0.07 
   4   5  -5    0.34    0.12 
  -4   5   5    0.15    0.10 
   4   5  -5    0.21    0.10 
   4   5  -5    0.37    0.07 
   4   5  -5    0.18    0.05 
  -4   5   5    0.21    0.08 
  -4   5   5    0.28    0.09 
   4   5  -5    0.38    0.09 
  -4   5   5    0.25    0.10 
   4   5  -5    0.20    0.09 
   3  -5  -5    1.31    0.17 
   3  -5  -5    1.15    0.16 
   3  -5  -5    1.29    0.15 
  -3  -5   5    1.45    0.17 
   3  -5  -5    1.29    0.20 
   3   5  -5    1.48    0.13 
  -3   5   5    1.50    0.16 
   3   5  -5    1.43    0.14 
  -3   5   5    1.04    0.15 
   3   5  -5    1.35    0.11 
  -3   5   5    1.04    0.17 
   3   5  -5    1.41    0.13 
  -3   5   5    1.14    0.17 
  -3   5   5    1.36    0.11 
  -3   5   5    1.30    0.14 
   3   5  -5    1.34    0.15 
  -3   5   5    1.42    0.17 
  -3   5   5    1.29    0.15 
   2  -5  -5   18.17    0.70 
   2  -5  -5   18.92    0.68 
   2  -5  -5   16.80    0.72 
   2  -5  -5   17.67    0.61 
   2  -5  -5   17.97    0.76 
  -2  -5   5   18.94    0.68 
   2  -5  -5   17.21    0.91 
   2  -5  -5   17.40    0.96 
   2  -5  -5   18.77    0.72 
  -2   5   5   17.44    0.46 
  -2   5   5   17.25    0.60 
  -2   5   5   16.94    0.58 
   2   5  -5   17.21    0.54 
  -2   5   5   18.00    0.67 
   2   5  -5   17.23    0.52 
  -2   5   5   17.90    0.72 
   2   5  -5   17.01    0.58 
  -2   5   5   17.29    0.61 
   2   5  -5   18.10    0.58 
  -2   5   5   18.06    0.66 
  -2   5   5   17.41    0.59 
  -2   5   5   17.36    0.50 
  -2   5   5   17.59    0.66 
  -2   5   5   17.23    0.57 
   1  -5  -5    8.41    0.50 
   1  -5  -5    8.53    0.38 
   1  -5  -5    8.18    0.38 
   1  -5  -5    8.44    0.43 
   1  -5  -5    7.92    0.40 
   1  -5  -5    8.53    0.53 
   1  -5  -5    8.85    0.40 
  -1   5   5    7.96    0.36 
  -1   5   5    7.99    0.40 
  -1   5   5    7.84    0.36 
  -1   5   5    8.23    0.37 
  -1   5   5    8.17    0.25 
  -1   5   5    7.64    0.36 
  -1   5   5    7.51    0.43 
   0  -5  -5   18.27    0.69 
   0  -5  -5   18.45    0.74 
   0  -5  -5   18.19    0.77 
   0  -5  -5   16.74    0.70 
   0  -5  -5   18.30    0.69 
   0  -5  -5   18.52    0.73 
   0  -5  -5   17.60    0.97 
   0  -5  -5   18.36    0.91 
   0   5   5   17.19    0.67 
   0   5   5   16.95    0.50 
   0   5   5   16.92    0.71 
   0   5   5   16.40    0.64 
   0   5   5   16.60    0.62 
   0   5   5   15.88    0.77 
   0   5   5   16.81    0.66 
   0   5   5   16.14    0.93 
   0   5   5   16.93    0.68 
  -1  -5  -5    9.46    0.42 
  -1  -5  -5    9.07    0.44 
  -1  -5  -5    8.67    0.35 
  -1  -5  -5    8.84    0.38 
  -1  -5  -5    9.47    0.47 
  -1  -5  -5    9.41    0.42 
  -1  -5  -5    9.26    0.45 
  -1  -5  -5    9.37    0.43 
  -1  -5  -5    9.24    0.58 
   1   5   5    8.14    0.34 
   1   5   5    8.86    0.40 
   1   5   5    8.40    0.38 
   1   5   5    7.96    0.34 
   1   5   5    8.45    0.39 
   1   5   5    8.60    0.43 
   1   5   5    8.89    0.30 
   1   5   5    8.43    0.30 
   1   5   5    8.32    0.34 
   1   5   5    8.26    0.36 
   1   5   5    8.27    0.39 
  -2  -5  -5   15.67    0.82 
  -2  -5  -5   14.41    0.44 
  -2  -5  -5   14.60    0.61 
  -2  -5  -5   13.91    0.61 
  -2  -5  -5   15.15    0.58 
  -2  -5  -5   14.46    0.50 
  -2  -5  -5   14.43    0.59 
  -2  -5  -5   14.85    0.54 
  -2  -5  -5   15.11    0.66 
  -2  -5  -5   13.70    0.64 
   2   5   5   13.66    0.58 
   2   5   5   14.13    0.62 
   2   5   5   13.71    0.54 
   2   5   5   13.76    0.57 
   2   5   5   14.06    0.50 
   2   5   5   13.16    0.55 
   2   5   5   13.72    0.52 
   2   5   5   13.42    0.40 
   2   5   5   13.63    0.43 
   2   5   5   13.75    0.49 
  -3  -5  -5    2.94    0.22 
  -3  -5  -5    3.18    0.25 
  -3  -5  -5    3.13    0.21 
  -3  -5  -5    2.72    0.24 
  -3  -5  -5    3.06    0.23 
  -3  -5  -5    3.15    0.14 
   3   5   5    3.24    0.17 
   3   5   5    2.97    0.19 
   3   5   5    3.15    0.23 
   3   5   5    3.15    0.23 
   3   5   5    2.94    0.20 
   3   5   5    2.93    0.21 
   3   5   5    3.40    0.23 
   3   5   5    3.15    0.20 
   3   5   5    2.64    0.24 
   3   5   5    3.25    0.13 
  -4  -5  -5    0.59    0.13 
  -4  -5  -5    0.43    0.11 
  -4  -5  -5    0.29    0.08 
  -4  -5  -5    0.26    0.10 
   4   5   5    0.29    0.10 
   4   5   5    0.47    0.08 
   4   5   5    0.09    0.10 
   4   5   5    0.12    0.09 
   4   5   5    0.40    0.10 
  -5  -5  -5    6.77    0.24 
  -5  -5  -5    6.45    0.25 
  -5  -5  -5    5.94    0.25 
  -5  -5  -5    6.41    0.22 
  -5  -5  -5    6.45    0.17 
   5   5   5    6.43    0.24 
   5   5   5    5.76    0.22 
   5   5   5    5.62    0.24 
   5  -6  -5    3.10    0.14 
  -5  -6   5    2.95    0.13 
  -5  -6   5    2.99    0.14 
   5   6  -5    2.80    0.14 
   5   6  -5    3.05    0.12 
   5   6  -5    3.09    0.12 
   5   6  -5    2.95    0.14 
  -5   6   5    2.99    0.13 
   5   6  -5    2.88    0.13 
  -5   6   5    2.95    0.13 
   4  -6  -5    7.32    0.28 
  -4  -6   5    7.62    0.28 
  -4   6   5    7.48    0.27 
   4   6  -5    6.48    0.24 
  -4   6   5    7.39    0.27 
  -4   6   5    7.12    0.29 
  -4   6   5    7.38    0.24 
   4   6  -5    7.58    0.27 
   4   6  -5    7.67    0.24 
   3  -6  -5   10.12    0.36 
   3   6  -5    9.92    0.36 
   3   6  -5   10.12    0.31 
   3   6  -5   10.16    0.32 
  -3   6   5    9.95    0.37 
  -3   6   5   10.36    0.34 
  -3   6   5   10.05    0.32 
  -3   6   5   10.27    0.37 
  -3   6   5   10.11    0.33 
   2  -6  -5   16.31    0.54 
   2  -6  -5   15.74    0.62 
  -2   6   5   15.38    0.53 
   2   6  -5   15.38    0.51 
  -2   6   5   15.20    0.49 
   2   6  -5   15.37    0.45 
  -2   6   5   15.67    0.53 
  -2   6   5   15.67    0.47 
  -2   6   5   15.18    0.50 
   1  -6  -5    4.59    0.37 
   1  -6  -5    5.25    0.27 
   1  -6  -5    5.14    0.23 
   1  -6  -5    5.30    0.32 
  -1   6   5    4.97    0.16 
  -1   6   5    5.19    0.23 
  -1   6   5    5.03    0.24 
  -1   6   5    4.60    0.22 
  -1   6   5    5.25    0.24 
  -1   6   5    5.37    0.22 
  -1   6   5    4.95    0.23 
   0  -6  -5    3.93    0.35 
   0  -6  -5    3.86    0.28 
   0  -6  -5    3.98    0.24 
   0  -6  -5    4.28    0.20 
   0   6   5    3.80    0.20 
   0   6   5    3.83    0.20 
   0   6   5    3.61    0.19 
   0   6   5    3.53    0.19 
   0   6   5    3.34    0.22 
   0   6   5    3.62    0.21 
   0   6   5    3.85    0.20 
   0   6   5    3.57    0.15 
   0   6   5    3.83    0.22 
   0   6   5    3.67    0.20 
  -1  -6  -5    4.38    0.18 
  -1  -6  -5    4.42    0.20 
  -1  -6  -5    4.21    0.36 
   1   6   5    4.49    0.17 
   1   6   5    4.36    0.22 
   1   6   5    3.82    0.25 
   1   6   5    4.30    0.22 
   1   6   5    4.38    0.20 
   1   6   5    4.41    0.18 
   1   6   5    4.39    0.24 
   1   6   5    4.60    0.22 
   1   6   5    4.33    0.22 
   1   6   5    4.23    0.21 
   1   6   5    4.47    0.23 
   1   6   5    4.50    0.21 
   1   6   5    4.38    0.15 
   1   6   5    4.52    0.22 
  -2  -6  -5    5.06    0.22 
  -2  -6  -5    5.41    0.25 
  -2  -6  -5    5.49    0.38 
  -2  -6  -5    5.22    0.19 
   2   6   5    4.86    0.17 
   2   6   5    4.63    0.18 
   2   6   5    4.82    0.22 
   2   6   5    4.46    0.25 
   2   6   5    4.80    0.22 
   2   6   5    4.86    0.22 
   2   6   5    4.59    0.20 
   2   6   5    4.68    0.23 
   2   6   5    4.93    0.16 
  -3  -6  -5    3.68    0.13 
  -3  -6  -5    3.93    0.20 
   3   6   5    3.75    0.18 
   3   6   5    3.65    0.13 
   3   6   5    3.62    0.19 
   3   6   5    3.71    0.15 
   3   6   5    3.78    0.18 
   3   6   5    3.79    0.15 
   2  -7  -5    3.12    0.14 
  -2   7   5    2.58    0.12 
  -2   7   5    3.03    0.13 
  -2   7   5    2.74    0.13 
  -2   7   5    2.75    0.11 
   1  -7  -5    5.22    0.20 
  -1   7   5    4.79    0.17 
  -1   7   5    5.01    0.20 
  -1   7   5    4.94    0.19 
   0  -7  -5    0.32    0.07 
   0  -7  -5    0.22    0.06 
   0   7   5    0.14    0.05 
   0   7   5    0.15    0.06 
   0   7   5    0.23    0.05 
   0   7   5    0.42    0.09 
   0   7   5    0.23    0.05 
   0   7   5    0.17    0.04 
   0   7   5    0.24    0.06 
  -1  -7  -5    0.13    0.04 
  -1  -7  -5    0.15    0.04 
   1   7   5    0.16    0.04 
   1   7   5    0.40    0.06 
   1   7   5    0.16    0.04 
   1   7   5    0.24    0.06 
   1   7   5    0.20    0.05 
  -8   0   6   12.37    0.45 
  -8   0   6   12.69    0.52 
   8   0  -6   12.50    0.44 
  -8   0   6   12.24    0.39 
   8   0  -6   12.58    0.42 
  -8   0   6   12.10    0.47 
   8   0  -6   12.29    0.35 
   8   0  -6   12.24    0.45 
  -8   0   6   12.53    0.43 
   8   0  -6   11.92    0.44 
  -8   0   6   10.98    0.50 
   7   0  -6    5.66    0.38 
  -7   0   6    6.47    0.23 
  -7   0   6    6.66    0.40 
   7   0  -6    6.64    0.30 
  -7   0   6    7.06    0.36 
   7   0  -6    6.62    0.34 
   7   0  -6    7.04    0.32 
  -7   0   6    6.54    0.32 
  -7   0   6    6.70    0.26 
   7   0  -6    6.64    0.35 
  -7   0   6    6.66    0.31 
  -7   0   6    6.52    0.37 
  -7   0   6    6.93    0.37 
  -7   0   6    6.95    0.35 
  -7   0   6    6.33    0.35 
   7   0  -6    6.92    0.34 
  -7   0   6    6.65    0.26 
   7   0  -6    5.97    0.36 
  -7   0   6    6.89    0.20 
  -7   0   6    6.79    0.27 
  -7   0   6    6.80    0.33 
   7   0  -6    6.66    0.24 
  -6   0   6    3.37    0.27 
  -6   0   6    4.34    0.30 
  -6   0   6    2.72    0.35 
  -6   0   6    3.45    0.20 
   6   0  -6    3.87    0.25 
   6   0  -6    3.47    0.27 
  -6   0   6    4.26    0.30 
   6   0  -6    3.84    0.23 
  -6   0   6    4.09    0.27 
  -6   0   6    4.49    0.32 
   6   0  -6    3.87    0.26 
   6   0  -6    3.54    0.26 
  -6   0   6    3.68    0.28 
  -6   0   6    3.46    0.28 
   6   0  -6    3.88    0.32 
   6   0  -6    3.97    0.26 
   6   0  -6    4.04    0.26 
  -6   0   6    3.97    0.16 
   6   0  -6    3.56    0.38 
   5   0  -6  112.12    3.69 
   5   0  -6  101.87    3.23 
   5   0  -6  101.86    3.47 
  -5   0   6  107.16    3.67 
   5   0  -6  100.50    3.67 
   5   0  -6  106.83    3.84 
   5   0  -6  106.83    4.58 
  -5   0   6  105.03    3.69 
  -5   0   6  103.92    3.22 
   5   0  -6  100.56    4.16 
  -5   0   6  107.49    3.48 
  -5   0   6  103.24    3.45 
  -5   0   6  104.51    3.57 
   5   0  -6  106.44    4.94 
   5   0  -6   93.72    4.99 
  -5   0   6   99.36    4.39 
   5   0  -6  104.65    3.72 
  -5   0   6  101.55    2.86 
   5   0  -6  107.70    3.69 
  -5   0   6  103.06    4.94 
   4   0  -6   56.81    2.64 
  -4   0   6   55.67    1.97 
   4   0  -6   54.81    1.98 
   4   0  -6   53.91    1.96 
   4   0  -6   54.66    1.95 
   4   0  -6   55.39    2.22 
  -4   0   6   54.55    1.85 
  -4   0   6   57.18    2.65 
   4   0  -6   52.87    2.43 
  -4   0   6   53.97    1.95 
  -4   0   6   56.08    1.99 
  -4   0   6   52.14    2.24 
  -4   0   6   49.27    1.97 
   4   0  -6   55.37    1.96 
  -3   0   6   12.92    0.53 
   3   0  -6   12.64    0.71 
   3   0  -6   13.44    0.60 
  -3   0   6   12.57    0.52 
   3   0  -6   12.61    0.61 
   3   0  -6   12.76    0.74 
  -3   0   6   12.99    0.65 
  -3   0   6   12.59    0.60 
  -3   0   6   13.21    0.72 
  -3   0   6   12.02    0.51 
  -3   0   6   12.45    0.60 
   3   0  -6   12.33    0.50 
   2   0  -6  123.18    4.46 
  -2   0   6  130.22    5.02 
  -2   0   6  127.42    4.60 
   2   0  -6  127.83    6.39 
   2   0  -6  123.92    5.30 
  -2   0   6  127.47    4.45 
  -2   0   6  125.78    4.95 
  -2   0   6  132.17    5.56 
  -2   0   6  126.43    4.51 
   2   0  -6  129.35    5.94 
   1   0  -6    5.75    0.30 
  -1   0   6    5.56    0.27 
  -1   0   6    6.47    0.34 
   1   0  -6    6.13    0.32 
  -1   0   6    5.64    0.32 
  -1   0   6    5.78    0.30 
   1   0  -6    6.49    0.39 
   1   0  -6    6.22    0.39 
  -1   0   6    6.38    0.33 
  -1   0   6    6.00    0.34 
   0   0   6   13.14    0.56 
   0   0   6   12.73    0.63 
   0   0  -6   12.03    0.57 
   0   0   6   12.92    0.51 
   0   0  -6   12.85    0.68 
   0   0   6   12.53    0.50 
   0   0   6   13.31    0.58 
   0   0  -6   13.55    0.71 
   0   0  -6   12.89    0.57 
   0   0   6   12.60    0.48 
   0   0   6   12.57    0.53 
   0   0   6   13.11    0.58 
   0   0  -6   13.12    0.58 
   1   0   6    0.88    0.15 
   1   0   6    0.88    0.10 
   1   0   6    0.82    0.11 
  -1   0  -6    0.80    0.15 
  -1   0  -6    0.83    0.18 
  -1   0  -6    0.80    0.14 
   1   0   6    0.84    0.13 
  -1   0  -6    0.88    0.13 
   1   0   6    0.82    0.12 
  -1   0  -6    0.90    0.12 
  -1   0  -6    0.86    0.13 
   1   0   6    0.96    0.14 
   1   0   6    0.90    0.13 
   2   0   6   34.50    1.54 
   2   0   6   33.61    1.20 
   2   0   6   32.71    1.29 
  -2   0  -6   34.14    1.43 
  -2   0  -6   35.36    1.40 
   2   0   6   33.92    1.24 
   2   0   6   33.86    1.39 
  -2   0  -6   34.97    1.75 
  -2   0  -6   32.21    1.38 
  -2   0  -6   33.23    1.29 
   2   0   6   34.78    1.25 
   2   0   6   34.95    1.30 
   2   0   6   34.23    1.41 
   2   0   6   32.88    1.17 
   3   0   6    3.49    0.21 
   3   0   6    3.85    0.23 
  -3   0  -6    3.46    0.22 
   3   0   6    3.37    0.27 
  -3   0  -6    3.43    0.25 
  -3   0  -6    3.49    0.21 
  -3   0  -6    3.54    0.26 
   3   0   6    3.74    0.27 
   3   0   6    3.60    0.22 
   3   0   6    3.55    0.25 
   3   0   6    3.70    0.22 
  -3   0  -6    3.49    0.15 
   3   0   6    3.61    0.20 
  -4   0  -6    2.02    0.10 
   4   0   6    2.17    0.19 
  -4   0  -6    1.75    0.21 
   4   0   6    1.96    0.18 
  -4   0  -6    2.11    0.19 
   4   0   6    1.78    0.23 
   4   0   6    1.97    0.24 
   4   0   6    1.90    0.26 
   4   0   6    2.13    0.20 
   4   0   6    1.99    0.18 
   4   0   6    2.03    0.17 
   5   0   6   10.45    0.39 
  -5   0  -6   10.79    0.40 
   5   0   6    9.06    0.46 
   5   0   6   11.19    0.44 
   5   0   6    9.98    0.62 
   5   0   6   10.33    0.44 
  -5   0  -6   11.34    0.43 
  -5   0  -6   10.46    0.31 
  -5   0  -6   10.08    0.39 
  -5   0  -6   10.27    0.37 
  -5   0  -6   10.73    0.39 
   5   0   6   10.37    0.48 
  -5   0  -6   10.30    0.47 
  -6   0  -6    6.23    0.31 
  -6   0  -6    7.09    0.27 
  -6   0  -6    7.40    0.27 
  -6   0  -6    7.38    0.29 
  -6   0  -6    7.52    0.31 
   6   0   6    7.71    0.29 
  -6   0  -6    7.39    0.30 
   6   0   6    6.74    0.45 
   7   0   6    0.11    0.05 
  -7   0  -6    0.09    0.06 
  -7   0  -6    0.02    0.07 
  -7   0  -6   -0.01    0.06 
   7   0   6    0.07    0.04 
  -7   0  -6    0.02    0.06 
  -7   0  -6    0.00    0.05 
  -7   0  -6    0.08    0.04 
  -8  -1   6    0.37    0.12 
  -8  -1   6    0.22    0.09 
   8  -1  -6    0.35    0.09 
   8  -1  -6    0.42    0.09 
  -8  -1   6    0.31    0.12 
   8  -1  -6    0.42    0.10 
  -8   1   6    0.43    0.12 
  -8   1   6    0.55    0.10 
  -8   1   6    0.65    0.11 
   8   1  -6    0.44    0.08 
  -8   1   6    0.30    0.08 
   8   1  -6    0.37    0.09 
  -8   1   6    0.36    0.12 
   8   1  -6    0.44    0.08 
  -8   1   6    0.30    0.12 
   8   1  -6    0.50    0.09 
  -8   1   6    0.24    0.08 
  -8   1   6    0.44    0.10 
  -8   1   6    0.49    0.11 
  -7  -1   6    6.63    0.21 
   7  -1  -6    6.51    0.33 
   7  -1  -6    6.45    0.47 
  -7  -1   6    5.67    0.34 
   7  -1  -6    6.29    0.24 
   7  -1  -6    6.47    0.27 
  -7  -1   6    6.48    0.33 
  -7  -1   6    6.68    0.27 
  -7  -1   6    6.11    0.31 
   7  -1  -6    6.46    0.34 
  -7  -1   6    6.58    0.30 
  -7  -1   6    6.47    0.21 
  -7  -1   6    7.11    0.29 
  -7  -1   6    6.48    0.28 
  -7  -1   6    6.64    0.36 
  -7  -1   6    7.11    0.33 
   7  -1  -6    6.56    0.32 
  -7   1   6    6.59    0.36 
   7   1  -6    6.69    0.30 
  -7   1   6    6.20    0.33 
  -7   1   6    6.49    0.38 
  -7   1   6    6.30    0.24 
   7   1  -6    6.88    0.28 
   7   1  -6    6.30    0.32 
  -7   1   6    6.69    0.35 
  -7   1   6    6.70    0.28 
  -7   1   6    6.69    0.26 
  -7   1   6    6.76    0.33 
  -7   1   6    6.46    0.32 
  -7   1   6    6.52    0.35 
  -7   1   6    6.65    0.32 
   7   1  -6    6.45    0.29 
   7   1  -6    6.20    0.24 
  -7   1   6    6.80    0.30 
  -7   1   6    6.72    0.36 
   7   1  -6    6.43    0.31 
   6  -1  -6    8.47    0.40 
   6  -1  -6    8.59    0.51 
   6  -1  -6    8.70    0.39 
  -6  -1   6    8.69    0.42 
   6  -1  -6    8.52    0.42 
  -6  -1   6    8.67    0.41 
   6  -1  -6    9.13    0.44 
  -6  -1   6    8.56    0.39 
  -6  -1   6    7.49    0.42 
   6  -1  -6    8.89    0.41 
   6  -1  -6    8.32    0.41 
  -6  -1   6    8.30    0.30 
   6  -1  -6    9.06    0.57 
  -6  -1   6    8.37    0.34 
  -6   1   6    8.03    0.30 
   6   1  -6    8.03    0.38 
  -6   1   6    8.28    0.41 
   6   1  -6    8.16    0.34 
  -6   1   6    7.13    0.43 
  -6   1   6    8.89    0.41 
   6   1  -6    7.85    0.40 
   6   1  -6    7.80    0.28 
  -6   1   6    8.47    0.40 
   6   1  -6    8.04    0.39 
  -6   1   6    8.52    0.39 
  -6   1   6    8.33    0.40 
  -6   1   6    8.46    0.44 
  -5  -1   6   31.88    1.58 
  -5  -1   6   28.67    1.09 
   5  -1  -6   30.97    1.14 
  -5  -1   6   31.31    1.13 
   5  -1  -6   30.44    1.19 
   5  -1  -6   28.80    1.41 
  -5  -1   6   31.00    1.08 
   5  -1  -6   30.00    1.53 
   5  -1  -6   31.04    1.32 
   5  -1  -6   31.64    1.13 
  -5  -1   6   29.59    0.98 
   5  -1  -6   30.40    1.07 
  -5  -1   6   29.31    1.51 
  -5  -1   6   30.61    1.15 
  -5  -1   6   29.70    1.20 
   5  -1  -6   30.38    1.14 
  -5  -1   6   30.52    1.15 
  -5  -1   6   27.59    1.33 
   5  -1  -6   30.73    1.15 
  -5  -1   6   29.48    1.17 
   5   1  -6   29.36    0.85 
  -5   1   6   30.34    0.83 
  -5   1   6   29.09    1.08 
  -5   1   6   29.96    1.06 
  -5   1   6   29.01    1.17 
   5   1  -6   28.70    1.53 
  -5   1   6   29.82    1.08 
   5   1  -6   29.97    1.11 
   5   1  -6   28.87    0.96 
  -5   1   6   31.43    1.32 
  -5   1   6   28.98    1.60 
   5   1  -6   29.81    1.10 
  -5   1   6   30.41    0.95 
  -5   1   6   28.59    1.14 
  -5   1   6   29.52    1.05 
  -5   1   6   28.49    1.11 
   5   1  -6   29.38    1.04 
   4  -1  -6   11.12    0.56 
  -4  -1   6   11.33    0.49 
  -4  -1   6   10.99    0.49 
  -4  -1   6   10.98    0.47 
   4  -1  -6   11.13    0.47 
  -4  -1   6   11.07    0.60 
  -4  -1   6   10.81    0.44 
  -4  -1   6   10.20    0.57 
  -4  -1   6   11.17    0.49 
   4  -1  -6   11.23    0.47 
   4  -1  -6   10.65    0.44 
   4  -1  -6   11.26    0.47 
  -4  -1   6   11.35    0.48 
   4  -1  -6   11.62    0.56 
   4  -1  -6   11.11    0.50 
  -4  -1   6   10.69    0.46 
   4  -1  -6   11.27    0.46 
   4  -1  -6   11.27    0.58 
  -4  -1   6   11.20    0.59 
   4   1  -6   10.86    0.66 
   4   1  -6   11.07    0.44 
  -4   1   6   10.89    0.49 
  -4   1   6    9.12    0.44 
  -4   1   6   10.41    0.44 
  -4   1   6   11.17    0.44 
   4   1  -6   11.23    0.48 
  -4   1   6   10.51    0.54 
   4   1  -6   11.02    0.54 
   4   1  -6   11.33    0.64 
  -4   1   6   10.73    0.66 
  -4   1   6   10.90    0.34 
  -4   1   6   11.42    0.66 
  -4   1   6   10.72    0.46 
   4   1  -6   10.55    0.43 
   4   1  -6   10.61    0.45 
   4   1  -6   10.89    0.34 
   3  -1  -6    9.02    0.38 
  -3  -1   6    9.07    0.37 
  -3  -1   6    9.40    0.48 
   3  -1  -6    9.19    0.39 
  -3  -1   6    9.08    0.40 
   3  -1  -6    9.39    0.40 
  -3  -1   6    9.01    0.41 
   3  -1  -6    9.48    0.46 
  -3  -1   6    9.67    0.49 
  -3  -1   6    8.74    0.44 
   3  -1  -6    9.95    0.56 
  -3  -1   6    8.62    0.40 
   3  -1  -6    9.46    0.46 
  -3  -1   6    8.31    0.40 
   3  -1  -6    9.51    0.49 
  -3  -1   6    9.32    0.50 
   3  -1  -6    8.99    0.42 
  -3   1   6   10.20    0.57 
   3   1  -6    8.83    0.43 
  -3   1   6    8.76    0.37 
  -3   1   6    9.80    0.43 
   3   1  -6    8.40    0.53 
   3   1  -6    8.61    0.40 
  -3   1   6    9.15    0.46 
   3   1  -6    8.80    0.45 
   3   1  -6    8.85    0.38 
  -3   1   6    8.86    0.57 
   3   1  -6    9.12    0.55 
  -3   1   6    9.13    0.39 
   2  -1  -6  164.86    6.21 
  -2  -1   6  168.48    5.95 
   2  -1  -6  170.25    7.41 
  -2  -1   6  170.54    5.85 
  -2  -1   6  172.55    7.42 
   2  -1  -6  171.73    6.70 
  -2  -1   6  169.02    6.20 
  -2  -1   6  167.03    6.70 
   2  -1  -6  170.05    5.97 
  -2  -1   6  171.62    6.04 
  -2  -1   6  171.46    6.02 
  -2  -1   6  176.84    6.60 
   2  -1  -6  174.92    5.94 
   2  -1  -6  169.93    6.60 
   2  -1  -6  169.09    6.02 
   2  -1  -6  171.19    7.94 
  -2  -1   6  171.36    6.14 
   2   1  -6  162.05    5.88 
  -2   1   6  160.29    7.84 
   2   1  -6  174.54    6.99 
   2   1  -6  173.97    7.82 
  -2   1   6  165.13    5.95 
  -2   1   6  167.60    6.52 
   2   1  -6  177.26    8.42 
  -2   1   6  168.97    5.90 
  -2   1   6  165.84    5.90 
  -2   1   6  171.74    7.33 
  -2   1   6  171.82    6.62 
   2   1  -6  165.58    6.65 
  -2   1   6  166.46    5.88 
  -1  -1   6   11.68    0.47 
  -1  -1   6   12.21    0.51 
   1  -1  -6   11.02    0.55 
   1  -1  -6   11.53    0.54 
  -1  -1   6   12.01    0.54 
   1  -1  -6   11.40    0.46 
  -1  -1   6   12.29    0.58 
  -1  -1   6   12.01    0.50 
  -1  -1   6   11.82    0.46 
   1  -1  -6   11.06    0.67 
   1  -1  -6   11.67    0.65 
  -1  -1   6   11.03    0.43 
   1  -1  -6   11.40    0.47 
  -1  -1   6   12.32    0.53 
   1   1  -6   11.62    0.60 
  -1   1   6   10.88    0.46 
   1   1  -6   11.41    0.50 
  -1   1   6   11.06    0.56 
  -1   1   6   10.65    0.45 
  -1   1   6   10.99    0.52 
  -1   1   6   10.67    0.63 
  -1   1   6   10.69    0.45 
   1   1  -6   12.00    0.62 
  -1   1   6   11.14    0.53 
   1   1  -6   11.04    0.50 
   1   1  -6   12.12    0.51 
   0  -1  -6  124.74    5.91 
   0  -1   6  125.33    4.42 
   0  -1   6  128.01    5.50 
   0  -1   6  129.05    4.97 
   0  -1   6  128.35    4.90 
   0  -1   6  123.41    4.34 
   0  -1   6  123.18    4.47 
   0  -1  -6  129.02    6.35 
   0  -1  -6  128.25    4.44 
   0  -1  -6  126.55    5.27 
   0  -1   6  126.62    4.55 
   0   1   6  123.79    4.48 
   0   1   6  119.49    4.38 
   0   1   6  127.04    4.89 
   0   1  -6  125.85    4.82 
   0   1  -6  127.53    4.90 
   0   1  -6  122.80    5.75 
   0   1   6  122.15    4.81 
   0   1   6  120.17    4.26 
   0   1   6  127.18    5.41 
   0   1   6  121.79    4.35 
   0   1   6  119.15    4.33 
   0   1  -6  130.04    6.18 
   1  -1   6    7.80    0.33 
  -1  -1  -6    8.27    0.35 
   1  -1   6    8.14    0.36 
   1  -1   6    7.71    0.39 
  -1  -1  -6    8.41    0.40 
   1  -1   6    7.90    0.32 
   1  -1   6    8.20    0.39 
  -1  -1  -6    8.60    0.50 
  -1  -1  -6    7.88    0.37 
  -1  -1  -6    8.34    0.50 
   1  -1   6    8.17    0.42 
   1  -1   6    8.09    0.34 
  -1   1  -6    8.35    0.37 
  -1   1  -6    7.75    0.45 
   1   1   6    8.53    0.36 
   1   1   6    8.23    0.35 
   1   1   6    8.12    0.42 
   1   1   6    8.08    0.33 
  -1   1  -6    7.56    0.36 
   1   1   6    8.34    0.41 
   1   1   6    8.06    0.38 
   1   1   6    8.51    0.38 
   1   1   6    8.42    0.44 
  -1   1  -6    7.50    0.34 
  -2  -1  -6   22.63    0.97 
  -2  -1  -6   21.70    1.16 
   2  -1   6   22.27    0.81 
   2  -1   6   22.78    1.04 
   2  -1   6   22.12    0.94 
  -2  -1  -6   22.60    1.00 
   2  -1   6   23.48    0.88 
  -2  -1  -6   21.64    0.84 
  -2  -1  -6   21.60    0.89 
  -2  -1  -6   21.88    0.63 
  -2  -1  -6   24.43    1.23 
   2  -1   6   23.59    0.88 
   2   1   6   22.07    0.83 
   2   1   6   21.74    0.84 
   2   1   6   21.40    0.88 
  -2   1  -6   21.47    0.91 
   2   1   6   22.32    0.87 
   2   1   6   21.03    0.78 
   2   1   6   22.25    0.96 
   2   1   6   20.97    0.80 
   2   1   6   21.83    0.95 
   2   1   6   22.59    1.03 
  -3  -1  -6   22.92    0.99 
  -3  -1  -6   23.49    0.99 
  -3  -1  -6   23.96    1.23 
   3  -1   6   22.27    0.89 
  -3  -1  -6   21.39    0.80 
   3  -1   6   22.52    0.82 
  -3  -1  -6   20.57    0.83 
   3   1   6   21.54    1.05 
   3   1   6   21.82    0.98 
  -3   1  -6   22.72    0.91 
   3   1   6   21.78    0.88 
   3   1   6   22.25    0.84 
  -3   1  -6   22.28    0.77 
   3   1   6   22.22    0.85 
   3   1   6   21.53    0.80 
  -3   1  -6   21.02    0.78 
   3   1   6   21.34    0.90 
   3   1   6   21.24    1.13 
   3   1   6   21.17    0.81 
  -4  -1  -6    6.98    0.39 
  -4  -1  -6    6.54    0.32 
  -4  -1  -6    6.47    0.24 
   4  -1   6    6.49    0.30 
  -4  -1  -6    5.62    0.43 
   4  -1   6    6.02    0.35 
  -4   1  -6    6.36    0.27 
   4   1   6    6.32    0.32 
   4   1   6    6.66    0.33 
   4   1   6    6.86    0.43 
   4   1   6    6.49    0.35 
   4   1   6    6.99    0.40 
  -4   1  -6    6.62    0.33 
   4   1   6    6.59    0.46 
   4   1   6    6.76    0.34 
   4   1   6    6.58    0.35 
  -5  -1  -6    6.62    0.30 
   5  -1   6    6.61    0.32 
  -5  -1  -6    6.72    0.25 
  -5  -1  -6    6.34    0.30 
  -5  -1  -6    6.76    0.23 
  -5  -1  -6    7.18    0.23 
  -5  -1  -6    7.20    0.34 
  -5  -1  -6    6.57    0.31 
  -5  -1  -6    6.63    0.31 
  -5  -1  -6    7.01    0.27 
  -5  -1  -6    6.87    0.30 
  -5   1  -6    6.97    0.28 
  -5   1  -6    7.12    0.26 
   5   1   6    6.89    0.37 
  -5   1  -6    6.92    0.26 
  -5   1  -6    6.93    0.29 
   5   1   6    6.98    0.34 
  -5   1  -6    7.20    0.29 
   5   1   6    6.28    0.36 
   5   1   6    7.14    0.30 
   5   1   6    7.64    0.49 
  -6  -1  -6    2.43    0.18 
  -6  -1  -6    2.20    0.17 
   6  -1   6    2.33    0.15 
  -6  -1  -6    2.43    0.18 
  -6  -1  -6    2.39    0.19 
  -6  -1  -6    2.65    0.14 
  -6  -1  -6    2.52    0.18 
  -6  -1  -6    2.44    0.19 
  -6  -1  -6    2.48    0.17 
  -6  -1  -6    2.37    0.13 
  -6  -1  -6    2.44    0.16 
  -6   1  -6    2.32    0.17 
  -6   1  -6    2.36    0.13 
  -6   1  -6    2.39    0.16 
   6   1   6    2.34    0.15 
   6   1   6    2.28    0.14 
   6   1   6    2.38    0.25 
  -6   1  -6    2.23    0.12 
  -7  -1  -6    5.08    0.21 
  -7  -1  -6    5.08    0.19 
  -7  -1  -6    5.07    0.18 
  -7  -1  -6    5.28    0.20 
  -7  -1  -6    5.36    0.16 
   7  -1   6    4.97    0.20 
   7   1   6    5.27    0.16 
  -7   1  -6    5.06    0.15 
  -7   1  -6    4.09    0.19 
   7   1   6    5.06    0.19 
   8  -2  -6    3.00    0.15 
  -8  -2   6    2.77    0.15 
  -8  -2   6    3.02    0.20 
  -8  -2   6    2.95    0.10 
  -8  -2   6    3.01    0.21 
   8  -2  -6    3.12    0.14 
  -8  -2   6    2.86    0.17 
   8  -2  -6    2.73    0.19 
  -8   2   6    2.98    0.19 
   8   2  -6    2.96    0.16 
  -8   2   6    2.98    0.17 
  -8   2   6    3.19    0.14 
  -8   2   6    2.93    0.19 
   8   2  -6    2.90    0.11 
  -8   2   6    2.93    0.17 
  -8   2   6    2.99    0.17 
  -8   2   6    2.86    0.12 
   8   2  -6    3.14    0.19 
  -8   2   6    3.16    0.17 
   8   2  -6    2.97    0.15 
  -7  -2   6   12.74    0.55 
  -7  -2   6   12.83    0.47 
   7  -2  -6   13.41    0.46 
   7  -2  -6   13.49    0.53 
  -7  -2   6   12.63    0.49 
   7  -2  -6   12.95    0.42 
  -7  -2   6   13.29    0.48 
   7  -2  -6   13.37    0.74 
  -7  -2   6   13.21    0.53 
  -7  -2   6   13.29    0.45 
  -7  -2   6   12.83    0.40 
  -7  -2   6   13.48    0.49 
   7   2  -6   12.32    0.42 
  -7   2   6   12.38    0.46 
  -7   2   6   12.35    0.48 
  -7   2   6   12.79    0.36 
   7   2  -6   12.75    0.46 
  -7   2   6   12.41    0.39 
  -7   2   6   13.12    0.42 
  -7   2   6   12.22    0.52 
  -7   2   6   12.53    0.49 
   7   2  -6   12.80    0.52 
   7   2  -6   12.96    0.49 
   7   2  -6   12.72    0.45 
  -7   2   6   12.84    0.52 
  -7   2   6   12.91    0.37 
  -7   2   6   12.71    0.52 
   7   2  -6   12.33    0.46 
  -7   2   6   13.21    0.48 
  -7   2   6   12.64    0.53 
   7   2  -6   12.95    0.34 
  -7   2   6   12.79    0.47 
  -7   2   6   13.61    0.47 
   7   2  -6   12.92    0.47 
   6  -2  -6   14.55    0.50 
  -6  -2   6   14.21    0.43 
  -6  -2   6   14.18    0.63 
  -6  -2   6   14.28    0.65 
   6  -2  -6   13.69    0.61 
  -6  -2   6   14.67    0.58 
  -6  -2   6   13.70    0.52 
  -6  -2   6   13.84    0.60 
   6  -2  -6   14.14    0.57 
   6  -2  -6   15.12    0.64 
  -6  -2   6   14.11    0.52 
  -6  -2   6   14.07    0.53 
   6  -2  -6   15.01    0.82 
   6  -2  -6   15.05    0.60 
  -6   2   6   13.16    0.49 
   6   2  -6   13.91    0.41 
   6   2  -6   13.52    0.40 
   6   2  -6   13.66    0.43 
   6   2  -6   14.08    0.60 
   6   2  -6   13.37    0.38 
  -6   2   6   13.45    0.51 
  -6   2   6   14.26    0.43 
   6   2  -6   13.61    0.50 
  -6   2   6   13.92    0.53 
  -6   2   6   14.53    0.59 
   6   2  -6   13.03    0.50 
   6   2  -6   13.05    0.52 
  -6   2   6   13.78    0.41 
   6   2  -6   13.05    0.49 
  -6   2   6   14.69    0.58 
  -6   2   6   13.50    0.46 
  -6   2   6   13.97    0.54 
  -6   2   6   14.33    0.59 
  -6   2   6   15.77    0.54 
   6   2  -6   14.51    0.59 
   6   2  -6   13.74    0.55 
  -6   2   6   14.15    0.51 
   6   2  -6   13.26    0.46 
   6   2  -6   14.07    0.49 
   6   2  -6   14.55    0.62 
  -6   2   6   13.97    0.62 
  -6   2   6   14.60    0.58 
  -6   2   6   13.63    0.51 
  -5  -2   6   27.17    1.21 
   5  -2  -6   25.80    1.34 
  -5  -2   6   25.63    1.04 
  -5  -2   6   26.31    0.94 
   5  -2  -6   25.98    0.94 
   5  -2  -6   26.34    1.04 
   5  -2  -6   26.49    1.01 
  -5  -2   6   26.11    1.01 
  -5  -2   6   26.14    1.02 
   5  -2  -6   25.27    0.98 
  -5  -2   6   26.85    0.97 
  -5  -2   6   26.02    1.32 
   5  -2  -6   23.15    1.14 
  -5  -2   6   24.00    1.26 
   5  -2  -6   25.69    1.05 
  -5  -2   6   27.34    1.04 
   5  -2  -6   26.66    1.24 
  -5  -2   6   26.19    0.99 
  -5   2   6   24.91    1.10 
   5   2  -6   25.59    0.99 
  -5   2   6   24.74    1.01 
   5   2  -6   25.52    0.93 
  -5   2   6   24.87    1.32 
  -5   2   6   23.36    1.36 
  -5   2   6   24.23    0.94 
  -5   2   6   25.10    0.90 
   5   2  -6   25.75    0.71 
   5   2  -6   24.71    0.95 
   5   2  -6   25.26    0.82 
   5   2  -6   26.55    1.39 
   5   2  -6   26.17    0.96 
  -5   2   6   25.23    0.94 
   5   2  -6   26.53    0.91 
   5   2  -6   23.33    1.33 
   5   2  -6   25.44    1.14 
  -5   2   6   24.86    0.94 
  -5   2   6   25.35    0.98 
   5   2  -6   25.97    1.01 
  -5   2   6   24.13    1.11 
   4  -2  -6   13.44    0.61 
  -4  -2   6   13.34    0.70 
   4  -2  -6   13.75    0.53 
  -4  -2   6   14.34    0.71 
   4  -2  -6   13.43    0.55 
  -4  -2   6   13.75    0.75 
   4  -2  -6   13.27    0.77 
   4  -2  -6   14.07    0.57 
   4  -2  -6   14.31    0.57 
   4  -2  -6   13.55    0.60 
   4  -2  -6   14.22    0.68 
  -4  -2   6   12.72    0.55 
  -4  -2   6   14.26    0.64 
  -4  -2   6   14.61    0.59 
  -4  -2   6   14.37    0.56 
  -4  -2   6   13.47    0.60 
  -4  -2   6   14.33    0.60 
  -4  -2   6   14.11    0.74 
   4  -2  -6   14.34    0.71 
  -4   2   6   14.12    0.63 
  -4   2   6   13.54    0.78 
   4   2  -6   13.86    0.63 
  -4   2   6   13.06    0.53 
   4   2  -6   13.11    0.56 
  -4   2   6   12.77    0.51 
   4   2  -6   13.22    0.75 
   4   2  -6   11.19    0.52 
   4   2  -6   12.66    0.45 
   4   2  -6   13.03    0.54 
  -4   2   6   13.29    0.62 
  -4   2   6   12.53    0.52 
  -4   2   6   13.01    0.53 
  -4   2   6   12.71    0.55 
  -4   2   6   12.01    0.44 
  -4   2   6   13.30    0.52 
  -4   2   6   13.44    0.57 
  -4   2   6   13.39    0.76 
   4   2  -6   13.41    0.51 
   4   2  -6   12.92    0.61 
   4   2  -6   12.48    0.76 
   4   2  -6   13.05    0.51 
  -3  -2   6   21.17    0.80 
   3  -2  -6   19.73    0.89 
   3  -2  -6   20.73    0.77 
   3  -2  -6   19.91    0.81 
  -3  -2   6   20.45    0.74 
  -3  -2   6   21.23    0.98 
   3  -2  -6   20.61    0.81 
   3  -2  -6   19.59    0.72 
  -3  -2   6   20.09    0.78 
  -3  -2   6   21.05    0.80 
   3  -2  -6   19.62    0.77 
  -3  -2   6   21.03    0.92 
   3  -2  -6   20.09    0.78 
  -3  -2   6   19.97    0.83 
   3  -2  -6   20.04    0.77 
   3  -2  -6   20.19    0.96 
   3  -2  -6   18.99    0.75 
  -3  -2   6   19.97    0.74 
  -3  -2   6   18.24    0.89 
   3  -2  -6   19.47    0.89 
  -3   2   6   18.99    0.87 
   3   2  -6   19.16    0.99 
  -3   2   6   17.92    0.55 
   3   2  -6   19.27    0.76 
  -3   2   6   19.54    1.03 
  -3   2   6   18.52    0.73 
  -3   2   6   19.18    0.78 
   3   2  -6   19.55    0.83 
  -3   2   6   18.36    0.70 
   3   2  -6   19.98    0.85 
  -3   2   6   19.54    1.07 
  -3   2   6   18.80    0.74 
   3   2  -6   20.08    1.04 
   2  -2  -6   36.67    1.49 
  -2  -2   6   38.31    1.49 
   2  -2  -6   36.12    1.31 
  -2  -2   6   36.80    1.51 
  -2  -2   6   35.80    1.27 
   2  -2  -6   35.12    1.38 
   2  -2  -6   35.87    1.50 
  -2  -2   6   36.34    1.64 
  -2  -2   6   34.91    1.31 
  -2  -2   6   35.29    1.36 
  -2  -2   6   35.92    1.33 
   2  -2  -6   35.31    1.33 
   2  -2  -6   36.87    1.64 
   2  -2  -6   36.03    1.32 
  -2  -2   6   36.82    1.38 
  -2   2   6   36.02    1.83 
  -2   2   6   35.93    1.51 
   2   2  -6   35.39    1.46 
   2   2  -6   33.10    1.67 
  -2   2   6   36.47    1.73 
   2   2  -6   34.41    1.42 
   2   2  -6   32.87    1.78 
   2   2  -6   33.74    1.41 
  -2   2   6   35.00    1.27 
   2   2  -6   34.16    1.31 
  -2   2   6   33.81    1.33 
  -1  -2   6    1.19    0.13 
   1  -2  -6    1.53    0.16 
  -1  -2   6    1.62    0.17 
   1  -2  -6    1.63    0.15 
  -1  -2   6    1.49    0.14 
   1  -2  -6    1.52    0.15 
  -1  -2   6    1.45    0.17 
   1  -2  -6    1.35    0.18 
  -1  -2   6    1.32    0.17 
   1  -2  -6    1.57    0.19 
   1  -2  -6    1.55    0.15 
   1  -2  -6    1.88    0.22 
   1  -2  -6    1.48    0.15 
  -1  -2   6    1.43    0.13 
  -1  -2   6    1.29    0.15 
  -1  -2   6    1.41    0.12 
   1   2  -6    1.24    0.13 
  -1   2   6    1.47    0.14 
   1   2  -6    1.39    0.13 
   1   2  -6    1.40    0.12 
   1   2  -6    1.36    0.13 
  -1   2   6    1.66    0.22 
  -1   2   6    1.34    0.22 
  -1   2   6    1.52    0.22 
  -1   2   6    1.50    0.18 
   0  -2   6   40.82    1.45 
   0  -2  -6   38.61    1.43 
   0  -2  -6   37.98    1.59 
   0  -2   6   38.14    1.36 
   0  -2  -6   38.77    1.76 
   0  -2  -6   40.43    1.92 
   0  -2  -6   39.37    1.41 
   0  -2  -6   37.49    1.47 
   0  -2  -6   38.08    1.40 
   0  -2  -6   39.48    1.61 
   0   2   6   36.32    1.55 
   0   2  -6   39.40    1.52 
   0   2   6   36.99    1.37 
   0   2   6   38.29    1.57 
   0   2   6   37.96    1.87 
   0   2   6   37.85    1.39 
   0   2   6   37.63    1.71 
   0   2   6   38.02    1.38 
  -1  -2  -6    7.58    0.50 
  -1  -2  -6    7.56    0.34 
  -1  -2  -6    7.13    0.33 
   1  -2   6    7.40    0.33 
   1   2   6    6.80    0.34 
   1   2   6    7.02    0.34 
   1   2   6    7.10    0.35 
   1   2   6    7.21    0.49 
   1   2   6    7.64    0.40 
   1   2   6    7.08    0.33 
   1   2   6    7.30    0.41 
   1   2   6    7.04    0.33 
  -1   2  -6    6.96    0.31 
   1   2   6    7.29    0.32 
   1   2   6    7.30    0.41 
  -2  -2  -6    7.37    0.50 
  -2  -2  -6    7.12    0.33 
  -2  -2  -6    7.34    0.41 
  -2  -2  -6    7.23    0.33 
  -2  -2  -6    7.67    0.34 
  -2  -2  -6    6.37    0.29 
  -2  -2  -6    7.43    0.51 
   2  -2   6    7.72    0.33 
   2   2   6    7.22    0.36 
   2   2   6    7.86    0.35 
   2   2   6    7.52    0.42 
   2   2   6    7.46    0.34 
   2   2   6    7.22    0.36 
   2   2   6    7.53    0.36 
   2   2   6    7.07    0.42 
   2   2   6    7.37    0.44 
   2   2   6    7.47    0.37 
  -3  -2  -6    1.08    0.17 
   3  -2   6    1.06    0.15 
  -3  -2  -6    0.82    0.24 
  -3  -2  -6    0.97    0.18 
  -3  -2  -6    0.76    0.26 
  -3  -2  -6    0.79    0.20 
  -3  -2  -6    0.78    0.18 
  -3  -2  -6    1.00    0.14 
   3   2   6    0.91    0.16 
   3   2   6    0.96    0.21 
   3   2   6    0.84    0.18 
   3   2   6    1.04    0.18 
   3   2   6    0.87    0.17 
   3   2   6    0.92    0.17 
   3   2   6    1.15    0.22 
   3   2   6    1.07    0.27 
   4  -2   6   12.04    0.45 
  -4  -2  -6   11.42    0.56 
  -4  -2  -6   10.61    0.70 
  -4  -2  -6    9.15    0.45 
  -4  -2  -6   11.85    0.47 
  -4  -2  -6   11.31    0.36 
  -4  -2  -6   11.41    0.29 
   4   2   6   10.73    0.37 
   4   2   6   11.53    0.52 
   4   2   6    9.46    0.41 
   4   2   6   12.19    0.67 
   4   2   6    9.63    0.61 
  -4   2  -6   11.83    0.41 
  -4   2  -6   11.01    0.35 
   4   2   6   10.00    0.45 
   4   2   6   11.71    0.47 
   4   2   6   11.17    0.50 
   4   2   6   11.03    0.50 
   4   2   6   11.72    0.51 
  -5  -2  -6    2.72    0.22 
  -5  -2  -6    2.65    0.14 
  -5  -2  -6    2.77    0.19 
  -5  -2  -6    2.50    0.18 
  -5  -2  -6    2.98    0.23 
  -5  -2  -6    2.88    0.22 
  -5  -2  -6    2.81    0.17 
  -5  -2  -6    2.10    0.25 
  -5   2  -6    2.93    0.16 
   5   2   6    2.99    0.33 
   5   2   6    2.76    0.21 
  -5   2  -6    2.56    0.17 
   5   2   6    2.77    0.21 
  -5   2  -6    2.80    0.13 
   5   2   6    2.83    0.17 
  -5   2  -6    2.59    0.17 
   5   2   6    2.74    0.16 
   5   2   6    2.25    0.25 
  -6  -2  -6    1.16    0.17 
  -6  -2  -6    1.32    0.16 
  -6  -2  -6    1.30    0.10 
  -6  -2  -6    1.23    0.10 
  -6  -2  -6    1.31    0.14 
  -6  -2  -6    1.32    0.17 
  -6  -2  -6    1.30    0.12 
  -6   2  -6    1.08    0.12 
   6   2   6    1.40    0.16 
  -6   2  -6    1.33    0.06 
   6   2   6    1.11    0.10 
  -8  -3   6    7.28    0.24 
  -8  -3   6    6.83    0.26 
  -8  -3   6    7.03    0.26 
  -8  -3   6    6.94    0.27 
   8  -3  -6    6.80    0.25 
   8  -3  -6    7.20    0.22 
  -8  -3   6    7.09    0.19 
   8   3  -6    6.41    0.25 
  -8   3   6    6.67    0.24 
  -8   3   6    6.95    0.23 
  -8   3   6    6.57    0.26 
   8   3  -6    6.76    0.24 
  -8   3   6    6.76    0.23 
  -8   3   6    6.86    0.21 
  -8   3   6    6.47    0.26 
  -8   3   6    7.21    0.23 
   8   3  -6    6.90    0.26 
   7  -3  -6    7.80    0.29 
  -7  -3   6    7.70    0.32 
  -7  -3   6    7.75    0.29 
   7  -3  -6    7.32    0.49 
  -7  -3   6    7.80    0.31 
  -7  -3   6    7.80    0.32 
   7   3  -6    8.13    0.31 
  -7   3   6    7.42    0.32 
  -7   3   6    7.24    0.30 
   7   3  -6    7.25    0.28 
  -7   3   6    7.17    0.29 
  -7   3   6    7.88    0.32 
  -7   3   6    7.07    0.32 
   7   3  -6    7.74    0.31 
  -7   3   6    7.33    0.29 
   7   3  -6    7.46    0.25 
   7   3  -6    8.37    0.35 
   7   3  -6    7.26    0.35 
  -7   3   6    7.33    0.30 
  -7   3   6    7.03    0.22 
   7   3  -6    7.61    0.32 
   6  -3  -6   11.25    0.51 
  -6  -3   6   11.71    0.51 
   6  -3  -6   12.46    0.69 
   6  -3  -6   12.01    0.48 
  -6  -3   6    9.46    0.55 
   6  -3  -6   12.04    0.42 
  -6  -3   6   11.22    0.51 
  -6  -3   6   11.37    0.36 
  -6  -3   6   12.32    0.68 
  -6  -3   6   11.43    0.49 
  -6  -3   6   11.69    0.41 
  -6  -3   6   11.32    0.45 
   6   3  -6   10.87    0.40 
   6   3  -6   11.17    0.42 
  -6   3   6   12.02    0.43 
   6   3  -6   11.00    0.42 
   6   3  -6   11.39    0.34 
  -6   3   6   11.10    0.42 
  -6   3   6   11.77    0.41 
   6   3  -6   10.86    0.47 
   6   3  -6   10.90    0.50 
  -6   3   6   11.96    0.41 
  -6   3   6   11.29    0.43 
   6   3  -6   11.47    0.37 
  -6   3   6   11.68    0.35 
  -6   3   6   11.76    0.44 
   6   3  -6   11.37    0.44 
   6   3  -6   11.18    0.53 
   6   3  -6   10.97    0.50 
  -6   3   6   11.44    0.47 
   6   3  -6   10.75    0.46 
  -6   3   6   11.64    0.44 
  -6   3   6   10.57    0.51 
  -6   3   6   11.18    0.32 
  -6   3   6   11.68    0.47 
  -6   3   6   11.17    0.46 
  -6   3   6   11.34    0.47 
  -5  -3   6   21.89    0.86 
  -5  -3   6   22.66    0.93 
   5  -3  -6   23.29    0.87 
   5  -3  -6   23.74    1.18 
   5  -3  -6   23.08    0.93 
  -5  -3   6   23.73    0.93 
   5  -3  -6   19.08    1.08 
   5  -3  -6   24.46    0.83 
   5  -3  -6   23.11    0.89 
  -5  -3   6   23.15    0.91 
  -5  -3   6   22.03    1.17 
  -5  -3   6   21.15    0.83 
  -5  -3   6   21.31    0.87 
   5  -3  -6   23.02    0.85 
   5   3  -6   21.59    0.97 
   5   3  -6   21.18    0.79 
   5   3  -6   21.52    0.81 
   5   3  -6   21.89    0.84 
   5   3  -6   19.44    0.96 
  -5   3   6   23.73    0.89 
  -5   3   6   17.64    0.95 
   5   3  -6   21.19    0.89 
  -5   3   6   24.23    0.85 
   5   3  -6   22.31    0.86 
  -5   3   6   23.16    0.82 
  -5   3   6   23.14    0.62 
   5   3  -6   21.42    1.20 
  -5   3   6   21.86    0.81 
  -5   3   6   22.17    0.82 
  -5   3   6   18.87    1.15 
  -4  -3   6   53.70    2.03 
   4  -3  -6   57.05    2.82 
  -4  -3   6   58.45    1.98 
   4  -3  -6   60.36    2.18 
  -4  -3   6   59.19    2.17 
  -4  -3   6   48.94    2.38 
  -4  -3   6   59.71    2.13 
   4  -3  -6   58.35    1.96 
   4  -3  -6   61.16    2.60 
  -4  -3   6   59.75    2.10 
   4  -3  -6   60.25    2.08 
  -4  -3   6   56.85    2.20 
  -4  -3   6   58.78    2.81 
   4  -3  -6   49.31    2.35 
  -4  -3   6   61.07    2.63 
   4  -3  -6   60.07    2.04 
   4  -3  -6   62.43    2.11 
   4  -3  -6   50.17    2.15 
  -4   3   6   53.68    2.69 
   4   3  -6   55.43    2.68 
   4   3  -6   56.06    2.85 
   4   3  -6   54.61    1.51 
  -4   3   6   53.95    1.87 
  -4   3   6   56.37    1.95 
  -4   3   6   57.06    2.86 
  -4   3   6   53.79    2.33 
   4   3  -6   54.26    2.27 
  -4   3   6   53.93    2.28 
  -4   3   6   55.22    1.94 
  -4   3   6   55.28    1.51 
   4   3  -6   56.96    2.05 
   4   3  -6   56.81    2.09 
   4   3  -6   55.83    1.94 
   4   3  -6   56.94    1.95 
  -4   3   6   58.65    2.06 
   4   3  -6   54.62    2.33 
   4   3  -6   52.33    1.86 
  -4   3   6   57.36    2.10 
   3  -3  -6    0.81    0.18 
   3  -3  -6    0.88    0.14 
  -3  -3   6    0.96    0.17 
  -3  -3   6    0.92    0.23 
   3  -3  -6    0.93    0.18 
   3  -3  -6    0.83    0.21 
   3  -3  -6    0.96    0.15 
   3  -3  -6    1.13    0.24 
  -3  -3   6    1.06    0.20 
  -3  -3   6    1.19    0.18 
   3  -3  -6    1.13    0.15 
   3  -3  -6    0.98    0.16 
  -3  -3   6    1.31    0.16 
  -3  -3   6    0.98    0.14 
  -3  -3   6    0.94    0.21 
  -3  -3   6    0.64    0.21 
  -3  -3   6    1.22    0.19 
   3  -3  -6    0.90    0.14 
  -3   3   6    0.95    0.18 
   3   3  -6    0.86    0.14 
   3   3  -6    0.97    0.16 
  -3   3   6    0.80    0.16 
   3   3  -6    0.89    0.16 
  -3   3   6    0.71    0.20 
  -3   3   6    1.21    0.24 
   3   3  -6    0.88    0.14 
   3   3  -6    1.14    0.14 
   3   3  -6    1.02    0.11 
  -3   3   6    0.78    0.17 
  -3   3   6    0.80    0.18 
  -3   3   6    1.26    0.18 
   3   3  -6    1.09    0.16 
   3   3  -6    1.03    0.16 
  -3   3   6    0.94    0.15 
  -3   3   6    0.76    0.19 
   3   3  -6    0.90    0.15 
  -2  -3   6   12.27    0.48 
  -2  -3   6   12.38    0.51 
   2  -3  -6   12.83    0.64 
   2  -3  -6   12.58    0.55 
  -2  -3   6   12.19    0.52 
   2  -3  -6   12.11    0.48 
  -2  -3   6   11.69    0.49 
   2  -3  -6   12.89    0.52 
   2  -3  -6   12.48    0.49 
  -2  -3   6   12.21    0.63 
  -2  -3   6   11.74    0.51 
  -2  -3   6   11.80    0.55 
   2  -3  -6   12.04    0.60 
  -2  -3   6   12.01    0.60 
   2  -3  -6   12.67    0.54 
   2  -3  -6   12.68    0.51 
   2  -3  -6   13.28    0.61 
  -2  -3   6   10.73    0.58 
  -2   3   6   12.60    0.58 
  -2   3   6   11.86    0.57 
   2   3  -6   11.35    0.48 
   2   3  -6   11.00    0.33 
  -2   3   6   11.51    0.48 
  -2   3   6   12.46    0.70 
   2   3  -6   11.21    0.44 
   2   3  -6   11.63    0.52 
  -2   3   6   12.86    0.72 
  -2   3   6   11.38    0.47 
  -2   3   6   12.11    0.48 
  -2   3   6   10.86    0.51 
  -1  -3   6   17.26    0.68 
  -1  -3   6   17.02    0.61 
   1  -3  -6   16.46    0.76 
   1  -3  -6   16.35    0.65 
   1  -3  -6   16.64    0.77 
   1  -3  -6   15.50    0.65 
   1  -3  -6   16.77    0.62 
   1  -3  -6   15.97    0.66 
   1  -3  -6   16.77    0.70 
   1  -3  -6   17.27    0.67 
   1  -3  -6   16.97    0.82 
  -1   3   6   16.21    0.72 
  -1   3   6   14.78    0.58 
  -1   3   6   15.50    0.65 
  -1   3   6   15.52    0.45 
   1   3  -6   15.83    0.64 
   1   3  -6   15.41    0.54 
  -1   3   6   14.22    0.88 
  -1   3   6   15.29    0.60 
  -1   3   6   13.93    0.84 
  -1   3   6   14.92    0.59 
   0  -3   6   28.72    1.08 
   0  -3  -6   27.81    1.06 
   0  -3  -6   27.97    1.22 
   0  -3  -6   28.91    1.07 
   0  -3  -6   29.27    1.01 
   0  -3  -6   29.94    1.33 
   0  -3  -6   29.00    1.12 
   0  -3  -6   26.98    0.97 
   0  -3  -6   27.18    1.05 
   0  -3  -6   28.99    1.08 
   0  -3  -6   27.11    1.22 
   0   3   6   24.94    1.18 
   0   3   6   27.43    0.99 
   0   3   6   25.30    1.43 
   0   3   6   27.21    1.38 
   0   3   6   26.71    0.94 
   0   3   6   26.99    1.05 
   0   3   6   25.61    0.97 
   0   3   6   26.29    0.99 
   0   3   6   26.59    0.76 
  -1  -3  -6    5.41    0.43 
  -1  -3  -6    5.47    0.30 
  -1  -3  -6    6.02    0.38 
  -1  -3  -6    5.38    0.29 
  -1  -3  -6    5.82    0.30 
  -1  -3  -6    5.69    0.29 
  -1  -3  -6    5.36    0.36 
  -1  -3  -6    5.23    0.31 
  -1  -3  -6    5.80    0.28 
  -1  -3  -6    5.15    0.25 
  -1  -3  -6    4.26    0.39 
   1   3   6    5.34    0.21 
   1   3   6    4.82    0.25 
   1   3   6    5.21    0.28 
   1   3   6    5.44    0.28 
   1   3   6    5.10    0.28 
   1   3   6    3.67    0.38 
  -2  -3  -6   14.21    0.54 
  -2  -3  -6   13.36    0.48 
  -2  -3  -6   10.71    0.77 
  -2  -3  -6   14.08    0.57 
  -2  -3  -6   13.94    0.55 
   2   3   6   12.87    0.53 
   2   3   6   12.86    0.44 
   2   3   6   12.60    0.47 
   2   3   6   13.28    0.56 
  -3  -3  -6    1.94    0.21 
  -3  -3  -6    1.46    0.25 
  -3  -3  -6    1.82    0.17 
  -3  -3  -6    1.66    0.20 
  -3  -3  -6    1.48    0.19 
   3   3   6    1.93    0.22 
  -4  -3  -6   54.12    1.64 
  -4  -3  -6   56.09    1.27 
  -4  -3  -6   51.79    1.62 
  -4  -3  -6   52.65    1.46 
  -4  -3  -6   52.14    1.54 
  -4  -3  -6   55.17    1.66 
  -4  -3  -6   48.19    1.91 
  -4  -3  -6   53.63    1.74 
  -4  -3  -6   52.25    1.41 
  -4  -3  -6   51.09    1.80 
   4   3   6   52.83    1.69 
   4   3   6   50.98    1.91 
  -4   3  -6   52.88    1.63 
   4   3   6   52.09    1.44 
  -5  -3  -6   19.88    0.67 
  -5  -3  -6   18.82    0.63 
  -5  -3  -6   20.31    0.65 
  -5  -3  -6   19.39    0.70 
  -5  -3  -6   18.95    0.72 
  -5  -3  -6   20.31    0.58 
   5   3   6   19.26    0.67 
   5   3   6   18.62    0.66 
  -5   3  -6   19.76    0.61 
   5   3   6   19.22    0.65 
  -6  -3  -6    2.18    0.11 
  -6  -3  -6    2.10    0.13 
  -6  -3  -6    1.64    0.17 
  -6  -3  -6    2.01    0.16 
  -6  -3  -6    2.38    0.13 
   6   3   6    2.01    0.14 
   6   3   6    1.84    0.14 
  -7  -4   6    8.16    0.30 
  -7  -4   6    7.40    0.27 
  -7  -4   6    7.18    0.29 
   7  -4  -6    7.75    0.28 
  -7   4   6    6.93    0.28 
  -7   4   6    7.32    0.24 
  -7   4   6    7.08    0.27 
   7   4  -6    7.05    0.28 
   7   4  -6    7.54    0.27 
   7   4  -6    7.03    0.26 
  -7   4   6    7.55    0.25 
  -7   4   6    6.80    0.24 
   7   4  -6    7.56    0.23 
   7   4  -6    7.29    0.27 
   7   4  -6    7.09    0.21 
   7   4  -6    7.16    0.23 
   6  -4  -6    0.69    0.19 
  -6  -4   6    0.63    0.25 
  -6  -4   6    0.90    0.17 
  -6  -4   6    0.81    0.11 
   6  -4  -6    0.62    0.12 
  -6  -4   6    0.69    0.11 
  -6   4   6    0.54    0.13 
   6   4  -6    0.81    0.14 
   6   4  -6    0.76    0.15 
   6   4  -6    0.46    0.12 
  -6   4   6    0.62    0.15 
   6   4  -6    0.60    0.14 
   6   4  -6    0.64    0.10 
   6   4  -6    0.40    0.10 
  -6   4   6    0.53    0.11 
   6   4  -6    0.75    0.10 
   6   4  -6    0.73    0.14 
  -6   4   6    0.80    0.13 
  -6   4   6    0.98    0.10 
   6   4  -6    0.65    0.12 
   6   4  -6    0.55    0.13 
   6   4  -6    0.62    0.11 
  -6   4   6    0.64    0.17 
   5  -4  -6   10.86    0.49 
   5  -4  -6   11.13    0.63 
  -5  -4   6   10.86    0.39 
  -5  -4   6   11.15    0.48 
   5  -4  -6   11.08    0.40 
  -5  -4   6   11.03    0.63 
   5  -4  -6    9.80    0.47 
   5  -4  -6   10.61    0.45 
   5   4  -6   10.63    0.32 
   5   4  -6   10.09    0.46 
   5   4  -6   10.74    0.45 
   5   4  -6   10.62    0.36 
   5   4  -6   11.16    0.42 
  -5   4   6   11.02    0.42 
  -5   4   6   11.70    0.41 
  -5   4   6   11.42    0.41 
   5   4  -6   10.38    0.39 
   5   4  -6    8.85    0.48 
  -5   4   6   10.47    0.48 
  -5   4   6   11.38    0.45 
  -5   4   6   10.96    0.45 
  -5   4   6   11.25    0.45 
   5   4  -6   11.38    0.40 
  -5   4   6   10.80    0.39 
   5   4  -6   10.76    0.46 
   5   4  -6   10.66    0.34 
  -5   4   6   11.23    0.41 
   5   4  -6   11.21    0.48 
   5   4  -6   10.75    0.33 
  -5   4   6   11.05    0.32 
   4  -4  -6   61.44    2.14 
  -4  -4   6   63.06    2.37 
   4  -4  -6   63.50    3.08 
  -4  -4   6   63.48    3.07 
   4  -4  -6   62.98    2.38 
  -4  -4   6   64.65    2.22 
   4  -4  -6   60.92    2.29 
  -4  -4   6   61.95    1.96 
  -4  -4   6   65.17    2.17 
   4  -4  -6   64.06    2.27 
   4  -4  -6   60.11    1.96 
   4  -4  -6   63.90    2.23 
  -4  -4   6   61.62    2.29 
  -4  -4   6   65.32    2.32 
  -4   4   6   57.44    1.87 
   4   4  -6   60.37    1.60 
  -4   4   6   59.06    1.78 
  -4   4   6   58.68    1.60 
   4   4  -6   62.38    2.10 
   4   4  -6   60.86    2.08 
   4   4  -6   59.47    1.95 
   4   4  -6   58.00    1.77 
   4   4  -6   62.19    2.11 
  -4   4   6   57.74    2.26 
  -4   4   6   59.36    1.84 
  -4   4   6   58.99    2.09 
  -4   4   6   58.08    1.96 
  -4   4   6   62.07    2.09 
   4   4  -6   61.44    1.61 
  -4   4   6   58.88    1.52 
   4   4  -6   62.94    2.26 
  -4   4   6   59.82    2.21 
   4   4  -6   63.58    2.21 
   4   4  -6   60.55    1.86 
  -4   4   6   61.89    1.61 
   4   4  -6   61.63    1.88 
  -4   4   6   60.42    1.90 
  -4   4   6   59.13    1.89 
  -4   4   6   60.78    2.11 
   4   4  -6   61.14    1.53 
   3  -4  -6   22.00    0.89 
   3  -4  -6   21.59    0.78 
   3  -4  -6   21.02    1.11 
   3  -4  -6   20.51    0.82 
  -3  -4   6   21.33    0.80 
   3  -4  -6   21.91    0.89 
  -3  -4   6   22.94    0.86 
  -3  -4   6   22.24    0.91 
  -3  -4   6   21.88    0.80 
  -3  -4   6   21.68    0.85 
  -3  -4   6   17.89    1.04 
  -3  -4   6   20.84    0.85 
   3  -4  -6   19.86    0.80 
   3  -4  -6   22.15    0.84 
  -3   4   6   20.17    0.76 
  -3   4   6   21.43    0.84 
  -3   4   6   20.61    0.58 
  -3   4   6   18.83    0.90 
  -3   4   6   20.34    0.77 
  -3   4   6   18.21    1.08 
  -3   4   6   20.51    0.77 
   3   4  -6   20.97    0.74 
   3   4  -6   20.86    0.74 
  -3   4   6   20.54    0.79 
   3   4  -6   21.40    0.87 
  -3   4   6   18.31    0.74 
   3   4  -6   19.58    0.76 
   3   4  -6   20.13    0.80 
   2  -4  -6    5.61    0.37 
   2  -4  -6    6.77    0.32 
   2  -4  -6    7.15    0.35 
  -2  -4   6    6.59    0.38 
   2  -4  -6    6.98    0.43 
   2  -4  -6    7.02    0.33 
  -2  -4   6    7.26    0.31 
   2  -4  -6    6.78    0.45 
   2  -4  -6    7.60    0.38 
   2  -4  -6    7.27    0.35 
  -2   4   6    6.37    0.47 
  -2   4   6    6.60    0.33 
  -2   4   6    6.64    0.32 
  -2   4   6    6.89    0.46 
  -2   4   6    6.43    0.33 
   2   4  -6    6.58    0.31 
  -2   4   6    6.69    0.39 
  -2   4   6    6.20    0.35 
  -2   4   6    6.51    0.33 
   2   4  -6    7.11    0.27 
  -2   4   6    6.43    0.25 
  -2   4   6    6.58    0.33 
   1  -4  -6    0.68    0.19 
   1  -4  -6    0.76    0.17 
   1  -4  -6    0.83    0.15 
   1  -4  -6    0.83    0.18 
  -1  -4   6    0.91    0.17 
   1  -4  -6    0.84    0.20 
   1  -4  -6    0.72    0.23 
   1  -4  -6    0.72    0.17 
   1  -4  -6    0.81    0.16 
  -1   4   6    0.92    0.16 
  -1   4   6    0.99    0.19 
  -1   4   6    0.83    0.17 
  -1   4   6    1.09    0.19 
  -1   4   6    0.85    0.16 
  -1   4   6    0.65    0.18 
  -1   4   6    0.88    0.22 
  -1   4   6    0.86    0.19 
  -1   4   6    0.85    0.23 
   0  -4  -6   12.31    0.52 
   0  -4  -6   12.94    0.53 
   0  -4  -6    9.94    0.60 
   0  -4  -6   11.18    0.64 
   0  -4  -6   11.99    0.69 
   0  -4  -6   12.72    0.54 
   0  -4  -6   12.33    0.49 
   0  -4  -6   13.70    0.57 
   0  -4  -6   12.17    0.49 
   0   4   6   12.65    0.56 
   0   4   6   12.41    0.43 
   0   4   6   12.40    0.52 
   0   4   6   12.31    0.50 
   0   4   6   12.19    0.50 
   0   4   6   12.72    0.53 
   0   4   6   10.37    0.73 
   0   4   6   11.39    0.60 
  -1  -4  -6   25.17    1.23 
  -1  -4  -6   24.53    0.87 
  -1  -4  -6   24.00    0.92 
  -1  -4  -6   23.90    0.91 
  -1  -4  -6   25.02    0.86 
  -1  -4  -6   23.30    0.92 
  -1  -4  -6   19.37    1.13 
  -1  -4  -6   22.66    0.96 
  -1  -4  -6   24.48    0.94 
   1   4   6   23.60    0.91 
   1   4   6   24.49    1.10 
   1   4   6   23.35    0.90 
   1   4   6   24.60    0.92 
   1   4   6   23.59    0.98 
   1   4   6   24.19    0.88 
   1   4   6   24.72    1.35 
   1   4   6   23.50    0.67 
   1   4   6   24.03    0.96 
  -2  -4  -6   43.72    1.40 
  -2  -4  -6   39.73    1.51 
  -2  -4  -6   42.01    1.53 
  -2  -4  -6   41.12    1.33 
  -2  -4  -6   41.71    1.45 
  -2  -4  -6   41.61    1.15 
  -2  -4  -6   38.42    1.55 
   2   4   6   39.75    1.09 
   2   4   6   41.28    1.50 
   2   4   6   36.10    1.29 
   2   4   6   41.45    1.13 
   2   4   6   39.73    1.14 
   2   4   6   37.47    1.79 
   2   4   6   40.76    1.38 
   2   4   6   39.35    0.99 
   2   4   6   41.61    1.46 
   2   4   6   40.54    2.17 
   2   4   6   41.69    1.42 
   2   4   6   40.53    1.30 
   2   4   6   45.49    1.57 
  -3  -4  -6   23.61    0.78 
  -3  -4  -6   24.09    0.74 
  -3  -4  -6   23.46    0.93 
  -3  -4  -6   23.78    0.80 
  -3  -4  -6   23.73    0.81 
  -3  -4  -6   24.20    0.86 
  -3  -4  -6   24.37    0.91 
   3   4   6   20.52    0.81 
   3   4   6   22.59    0.76 
   3   4   6   22.19    0.86 
   3   4   6   22.53    0.78 
   3   4   6   22.14    0.74 
   3   4   6   22.21    0.56 
   3   4   6   21.97    0.63 
   3   4   6   22.81    0.74 
   3   4   6   21.11    0.64 
  -4  -4  -6    1.35    0.18 
  -4  -4  -6    1.13    0.18 
  -4  -4  -6    0.99    0.17 
  -4  -4  -6    1.26    0.10 
  -4  -4  -6    1.20    0.14 
  -4  -4  -6    1.05    0.14 
  -4  -4  -6    1.32    0.21 
   4   4   6    1.19    0.10 
   4   4   6    0.98    0.19 
   4   4   6    1.30    0.16 
   4   4   6    1.03    0.19 
   4   4   6    1.28    0.17 
   4   4   6    1.35    0.18 
  -5  -4  -6    5.31    0.19 
  -5  -4  -6    5.18    0.26 
  -5  -4  -6    5.77    0.24 
  -5  -4  -6    5.62    0.22 
  -5  -4  -6    5.69    0.27 
   5   4   6    5.43    0.16 
   5   4   6    4.88    0.23 
   5   4   6    5.00    0.22 
   5   4   6    5.60    0.23 
   6  -5  -6    7.27    0.26 
  -6  -5   6    6.79    0.27 
  -6  -5   6    6.88    0.25 
  -6  -5   6    6.98    0.22 
  -6   5   6    6.89    0.25 
   6   5  -6    6.59    0.24 
   6   5  -6    6.35    0.24 
  -6   5   6    6.96    0.22 
  -6   5   6    6.78    0.25 
   6   5  -6    5.86    0.25 
   6   5  -6    6.69    0.25 
   6   5  -6    6.74    0.19 
   6   5  -6    6.59    0.24 
   6   5  -6    6.62    0.22 
   6   5  -6    6.70    0.20 
  -5  -5   6    1.09    0.13 
  -5  -5   6    0.83    0.22 
   5  -5  -6    1.11    0.12 
  -5   5   6    0.95    0.13 
  -5   5   6    1.14    0.12 
   5   5  -6    1.23    0.08 
   5   5  -6    1.04    0.13 
  -5   5   6    1.14    0.14 
  -5   5   6    1.16    0.14 
   5   5  -6    0.99    0.12 
   5   5  -6    1.10    0.13 
  -5   5   6    1.00    0.14 
   5   5  -6    1.15    0.12 
   5   5  -6    1.00    0.12 
   4  -5  -6    2.94    0.21 
  -4  -5   6    2.83    0.29 
   4  -5  -6    2.36    0.27 
  -4  -5   6    2.87    0.23 
  -4  -5   6    2.90    0.16 
   4  -5  -6    3.19    0.18 
  -4   5   6    3.31    0.19 
   4   5  -6    2.70    0.17 
   4   5  -6    2.96    0.16 
  -4   5   6    3.44    0.19 
  -4   5   6    3.29    0.17 
   4   5  -6    2.96    0.17 
  -4   5   6    3.25    0.19 
   4   5  -6    3.22    0.17 
  -4   5   6    3.21    0.19 
  -4   5   6    3.19    0.20 
  -4   5   6    2.86    0.18 
   3  -5  -6    4.59    0.22 
   3  -5  -6    3.61    0.26 
  -3  -5   6    5.36    0.26 
   3  -5  -6    5.14    0.26 
   3  -5  -6    4.52    0.26 
   3  -5  -6    4.23    0.35 
  -3   5   6    4.57    0.25 
  -3   5   6    4.48    0.24 
  -3   5   6    4.37    0.22 
  -3   5   6    4.63    0.23 
   3   5  -6    4.81    0.19 
   3   5  -6    4.70    0.19 
  -3   5   6    4.64    0.24 
  -3   5   6    4.49    0.24 
  -3   5   6    4.41    0.26 
  -3   5   6    4.77    0.25 
  -3   5   6    4.25    0.18 
   3   5  -6    4.53    0.22 
  -3   5   6    4.42    0.23 
   2  -5  -6    6.16    0.31 
   2  -5  -6    5.90    0.42 
   2  -5  -6    6.10    0.31 
  -2  -5   6    6.02    0.28 
   2  -5  -6    5.99    0.30 
   2  -5  -6    5.58    0.35 
   2  -5  -6    5.43    0.26 
  -2   5   6    5.49    0.27 
  -2   5   6    5.61    0.30 
  -2   5   6    5.69    0.19 
  -2   5   6    5.44    0.29 
   2   5  -6    5.59    0.24 
  -2   5   6    5.53    0.27 
  -2   5   6    5.58    0.22 
  -2   5   6    5.59    0.25 
   2   5  -6    5.47    0.20 
  -2   5   6    5.42    0.26 
  -2   5   6    5.42    0.29 
   2   5  -6    5.54    0.21 
  -2   5   6    5.68    0.27 
  -2   5   6    5.85    0.31 
  -2   5   6    5.47    0.26 
  -2   5   6    5.86    0.28 
  -2   5   6    5.47    0.17 
   1  -5  -6   53.00    1.73 
   1  -5  -6   52.40    1.92 
   1  -5  -6   46.25    1.84 
   1  -5  -6   51.32    2.47 
   1  -5  -6   53.46    1.70 
   1  -5  -6   48.62    1.57 
   1  -5  -6   45.41    1.82 
  -1   5   6   47.43    1.51 
  -1   5   6   47.62    1.69 
  -1   5   6   51.21    1.71 
  -1   5   6   48.36    1.52 
   1   5  -6   47.91    1.33 
  -1   5   6   47.95    1.53 
  -1   5   6   47.73    1.84 
  -1   5   6   47.04    1.34 
  -1   5   6   49.94    1.49 
  -1   5   6   47.29    1.45 
  -1   5   6   46.24    1.58 
  -1   5   6   49.36    1.31 
  -1   5   6   50.12    1.79 
  -1   5   6   47.55    1.23 
  -1   5   6   47.56    1.29 
  -1   5   6   46.29    1.70 
   0  -5  -6   32.29    1.28 
   0  -5  -6   33.07    1.22 
   0  -5  -6   30.67    1.03 
   0  -5  -6   33.53    1.64 
   0  -5  -6   32.93    1.15 
   0  -5  -6   31.59    1.12 
   0  -5  -6   32.42    1.08 
   0  -5  -6   31.49    1.25 
   0   5   6   30.62    0.86 
   0   5   6   30.31    1.04 
   0   5   6   32.16    1.08 
   0   5   6   29.35    0.88 
   0   5   6   30.51    0.99 
   0   5   6   30.61    0.97 
   0   5   6   30.17    0.81 
   0   5   6   29.49    0.86 
   0   5   6   30.93    1.12 
   0   5   6   31.36    0.98 
   0   5   6   31.79    1.22 
   0   5   6   29.42    1.17 
   0   5   6   31.64    1.13 
  -1  -5  -6   14.90    0.62 
  -1  -5  -6   16.52    0.83 
  -1  -5  -6   13.02    0.65 
  -1  -5  -6   14.63    0.62 
  -1  -5  -6   14.40    0.54 
  -1  -5  -6   14.30    0.58 
  -1  -5  -6   14.76    0.50 
  -1  -5  -6   14.26    0.57 
  -1  -5  -6   15.03    0.45 
   1   5   6   13.20    0.50 
   1   5   6   14.23    0.60 
   1   5   6   14.51    0.50 
   1   5   6   14.42    0.58 
   1   5   6   14.18    0.45 
   1   5   6   13.84    0.53 
   1   5   6   14.47    0.56 
   1   5   6   14.98    0.59 
   1   5   6   15.24    0.64 
   1   5   6   14.17    0.45 
   1   5   6   13.92    0.42 
   1   5   6   14.03    0.51 
  -2  -5  -6   14.35    0.76 
  -2  -5  -6   12.30    0.57 
  -2  -5  -6   13.51    0.54 
  -2  -5  -6   14.07    0.51 
  -2  -5  -6   13.92    0.55 
  -2  -5  -6   13.72    0.41 
   2   5   6   13.16    0.55 
   2   5   6   13.14    0.56 
   2   5   6   13.33    0.38 
   2   5   6   12.90    0.41 
   2   5   6   12.61    0.53 
   2   5   6   13.14    0.47 
   2   5   6   13.43    0.50 
   2   5   6   13.16    0.48 
   2   5   6   13.35    0.53 
  -3  -5  -6    5.29    0.26 
  -3  -5  -6    5.54    0.27 
  -3  -5  -6    5.54    0.25 
  -3  -5  -6    5.46    0.23 
   3   5   6    5.19    0.30 
   3   5   6    5.42    0.26 
   3   5   6    5.21    0.20 
   3   5   6    5.40    0.24 
   3   5   6    5.56    0.28 
   3   5   6    5.10    0.23 
   3   5   6    5.16    0.28 
   3   5   6    4.90    0.24 
  -4  -5  -6    3.16    0.15 
  -4  -5  -6    3.10    0.18 
  -4  -5  -6    3.16    0.18 
  -4  -5  -6    2.91    0.11 
  -4  -5  -6    2.90    0.18 
   4   5   6    2.30    0.17 
   4   5   6    2.88    0.17 
   4   5   6    3.04    0.17 
   4   5   6    2.91    0.15 
   5  -6  -6    3.47    0.15 
  -5  -6   6    3.67    0.14 
  -5  -6   6    3.50    0.15 
   5   6  -6    3.23    0.13 
   5   6  -6    3.27    0.14 
  -5   6   6    3.10    0.14 
   5   6  -6    2.79    0.14 
  -5   6   6    3.36    0.10 
  -5   6   6    3.13    0.14 
   5   6  -6    3.33    0.12 
  -4  -6   6   11.50    0.40 
   4  -6  -6   11.97    0.40 
  -4   6   6   11.54    0.39 
  -4   6   6   11.58    0.35 
   4   6  -6   11.71    0.39 
   4   6  -6   11.10    0.35 
  -4   6   6   11.42    0.39 
   3   6  -6    4.02    0.15 
   3   6  -6    4.01    0.18 
  -3   6   6    4.27    0.17 
  -3   6   6    3.90    0.20 
  -3   6   6    4.06    0.20 
  -3   6   6    4.03    0.18 
  -3   6   6    4.08    0.18 
   2  -6  -6    6.03    0.43 
   2  -6  -6    7.50    0.27 
  -2   6   6    7.28    0.27 
  -2   6   6    7.46    0.28 
   2   6  -6    7.79    0.27 
   2   6  -6    7.46    0.22 
  -2   6   6    7.19    0.29 
  -2   6   6    6.97    0.29 
   1  -6  -6    5.85    0.24 
   1  -6  -6    5.73    0.41 
  -1   6   6    5.70    0.24 
  -1   6   6    5.41    0.24 
  -1   6   6    5.69    0.23 
  -1   6   6    5.68    0.23 
  -1   6   6    5.77    0.18 
  -1   6   6    5.45    0.25 
  -1   6   6    5.71    0.25 
  -1   6   6    5.38    0.26 
  -1   6   6    5.59    0.23 
   0  -6  -6   -0.01    0.06 
   0  -6  -6   -0.12    0.16 
   0  -6  -6   -0.02    0.06 
   0   6   6    0.08    0.08 
   0   6   6    0.01    0.07 
   0   6   6    0.17    0.09 
   0   6   6    0.05    0.07 
   0   6   6    0.03    0.08 
   0   6   6    0.06    0.06 
   0   6   6   -0.03    0.07 
   0   6   6    0.02    0.06 
   0   6   6   -0.07    0.09 
   0   6   6    0.09    0.09 
   0   6   6    0.13    0.09 
   0   6   6    0.03    0.08 
  -1  -6  -6    4.76    0.23 
  -1  -6  -6    4.39    0.35 
  -1  -6  -6    4.65    0.20 
  -1  -6  -6    4.86    0.18 
   1   6   6    4.34    0.21 
   1   6   6    4.26    0.17 
   1   6   6    4.28    0.19 
   1   6   6    4.48    0.21 
   1   6   6    4.20    0.15 
   1   6   6    4.15    0.21 
   1   6   6    4.52    0.23 
   1   6   6    4.50    0.16 
   1   6   6    4.63    0.22 
  -2  -6  -6   15.03    0.52 
  -2  -6  -6   14.69    0.42 
   2   6   6   13.65    0.36 
   2   6   6   13.81    0.40 
   2   6   6   13.51    0.46 
   2   6   6   13.95    0.48 
   2   6   6   12.18    0.45 
   2   6   6   13.53    0.37 
   2   6   6   13.28    0.39 
  -3  -6  -6    6.68    0.25 
  -3  -6  -6    7.01    0.26 
  -3  -6  -6    6.70    0.23 
   3   6   6    6.03    0.25 
   3   6   6    6.54    0.24 
   3   6   6    6.60    0.18 
   3   6   6    6.39    0.20 
   3   6   6    6.22    0.25 
   1  -7  -6    0.61    0.08 
  -1   7   6    0.68    0.09 
  -1   7   6    0.54    0.08 
  -1   7   6    0.63    0.06 
  -8   0   7    7.43    0.30 
   8   0  -7    7.28    0.28 
   8   0  -7    7.40    0.29 
  -8   0   7    7.73    0.33 
   8   0  -7    7.95    0.31 
  -8   0   7    7.55    0.27 
  -8   0   7    7.31    0.32 
   7   0  -7   11.73    0.43 
  -7   0   7   11.74    0.46 
  -7   0   7   11.32    0.45 
   7   0  -7   11.49    0.40 
   7   0  -7    9.93    0.48 
  -7   0   7   11.24    0.48 
  -7   0   7   11.56    0.38 
   7   0  -7   11.79    0.43 
  -7   0   7   11.12    0.51 
  -7   0   7   10.99    0.39 
  -7   0   7   11.41    0.49 
   7   0  -7   10.97    0.38 
  -7   0   7   11.46    0.38 
  -7   0   7   11.17    0.43 
   7   0  -7   11.53    0.44 
  -7   0   7   11.29    0.52 
  -7   0   7   11.84    0.30 
   7   0  -7   11.06    0.34 
  -6   0   7    0.25    0.18 
   6   0  -7    0.21    0.10 
  -6   0   7    0.36    0.10 
  -6   0   7    0.34    0.14 
  -6   0   7    0.06    0.16 
  -6   0   7    0.23    0.14 
  -6   0   7    0.25    0.07 
   6   0  -7    0.28    0.13 
  -6   0   7    0.49    0.15 
   6   0  -7    0.26    0.10 
   6   0  -7    0.20    0.06 
  -6   0   7    0.50    0.11 
  -6   0   7    0.26    0.10 
   6   0  -7    0.67    0.17 
  -5   0   7    3.81    0.29 
  -5   0   7    4.66    0.26 
   5   0  -7    4.59    0.26 
   5   0  -7    3.74    0.38 
  -5   0   7    3.62    0.24 
  -5   0   7    4.46    0.20 
   5   0  -7    4.37    0.27 
   5   0  -7    4.44    0.26 
   5   0  -7    3.92    0.23 
  -5   0   7    4.37    0.41 
  -5   0   7    3.91    0.22 
  -5   0   7    4.45    0.29 
  -4   0   7  187.12    6.68 
  -4   0   7  198.24    7.55 
  -4   0   7  192.53    6.70 
   4   0  -7  179.88    6.26 
   4   0  -7  189.92    6.69 
  -4   0   7  185.13    6.32 
  -4   0   7  194.43    6.77 
  -4   0   7  200.84    8.34 
   4   0  -7  183.11    5.22 
  -4   0   7  194.13    6.70 
  -4   0   7  188.20    6.30 
   4   0  -7  201.40    8.92 
   4   0  -7  187.46    6.69 
   3   0  -7   50.86    1.81 
   3   0  -7   49.71    2.15 
  -3   0   7   52.16    2.27 
  -3   0   7   49.80    1.84 
   3   0  -7   49.13    1.40 
  -3   0   7   49.35    1.81 
   3   0  -7   48.75    1.80 
  -3   0   7   51.60    1.81 
   3   0  -7   49.48    2.60 
   3   0  -7   48.32    1.89 
   3   0  -7   53.95    2.45 
  -3   0   7   48.75    1.81 
  -3   0   7   50.03    1.72 
  -3   0   7   52.26    2.05 
  -3   0   7   49.34    2.07 
  -2   0   7    7.25    0.34 
  -2   0   7    6.99    0.40 
  -2   0   7    7.32    0.34 
  -2   0   7    7.50    0.38 
   2   0  -7    7.50    0.33 
  -2   0   7    7.47    0.35 
   2   0  -7    7.30    0.35 
   2   0  -7    7.48    0.48 
  -2   0   7    7.66    0.43 
  -2   0   7    7.74    0.42 
   2   0  -7    7.70    0.48 
   2   0  -7    7.82    0.40 
  -2   0   7    7.45    0.31 
  -1   0   7    3.55    0.26 
   1   0  -7    3.68    0.24 
   1   0  -7    3.48    0.23 
  -1   0   7    3.66    0.21 
  -1   0   7    3.78    0.25 
  -1   0   7    3.27    0.20 
   1   0  -7    3.44    0.19 
   1   0  -7    3.37    0.29 
  -1   0   7    3.52    0.24 
   1   0  -7    3.37    0.21 
   1   0  -7    3.77    0.29 
  -1   0   7    3.68    0.26 
   0   0  -7    0.62    0.14 
   0   0  -7    0.54    0.12 
   0   0   7    0.52    0.15 
   0   0   7    0.50    0.16 
   0   0   7    0.62    0.11 
   0   0  -7    0.58    0.17 
   0   0   7    0.48    0.11 
   0   0   7    0.43    0.11 
   0   0  -7    0.55    0.11 
   0   0  -7    0.32    0.12 
   0   0   7    0.48    0.15 
   0   0   7    0.53    0.15 
  -1   0  -7   40.34    1.64 
   1   0   7   38.98    1.37 
   1   0   7   40.91    1.66 
  -1   0  -7   40.63    1.69 
  -1   0  -7   41.07    2.06 
   1   0   7   38.76    1.41 
   1   0   7   42.05    1.82 
  -1   0  -7   39.11    1.51 
  -1   0  -7   37.57    1.94 
   1   0   7   40.80    1.63 
   1   0   7   40.53    1.47 
   1   0   7   39.84    1.45 
   1   0   7   40.32    1.52 
  -2   0  -7    4.61    0.27 
  -2   0  -7    4.48    0.25 
   2   0   7    5.01    0.30 
   2   0   7    4.65    0.23 
   2   0   7    4.75    0.25 
   2   0   7    5.04    0.30 
  -2   0  -7    4.64    0.18 
  -2   0  -7    5.27    0.29 
   2   0   7    5.02    0.32 
   2   0   7    4.76    0.27 
  -2   0  -7    3.96    0.32 
   2   0   7    4.77    0.32 
   2   0   7    4.81    0.26 
   2   0   7    4.68    0.24 
  -2   0  -7    4.45    0.24 
  -3   0  -7   34.54    0.94 
  -3   0  -7   35.13    1.23 
   3   0   7   34.03    1.35 
  -3   0  -7   35.19    1.45 
   3   0   7   35.16    1.25 
  -3   0  -7   35.47    1.23 
   3   0   7   34.72    1.60 
   3   0   7   35.12    1.28 
   3   0   7   32.34    1.73 
   3   0   7   35.68    1.34 
   3   0   7   35.14    1.30 
   3   0   7   34.68    1.21 
   3   0   7   32.13    1.47 
   4   0   7    8.80    0.43 
  -4   0  -7    9.58    0.34 
   4   0   7    9.40    0.41 
   4   0   7    9.53    0.41 
  -4   0  -7    9.25    0.30 
  -4   0  -7    9.16    0.26 
   4   0   7    9.23    0.43 
   4   0   7    9.54    0.36 
  -4   0  -7    9.73    0.44 
  -4   0  -7    9.29    0.37 
   4   0   7    9.32    0.57 
  -4   0  -7    9.04    0.36 
  -4   0  -7    9.77    0.36 
   4   0   7    9.47    0.44 
  -4   0  -7    9.22    0.39 
   5   0   7   14.85    0.82 
  -5   0  -7   15.49    0.53 
  -5   0  -7   15.12    0.41 
   5   0   7   14.71    0.58 
  -5   0  -7   15.09    0.51 
   5   0   7   15.31    0.52 
  -5   0  -7   15.20    0.49 
  -5   0  -7   15.36    0.56 
  -5   0  -7   15.53    0.53 
  -6   0  -7    4.28    0.17 
  -6   0  -7    4.23    0.19 
   6   0   7    3.96    0.18 
  -6   0  -7    4.04    0.20 
  -6   0  -7    4.30    0.21 
  -8  -1   7    0.61    0.15 
  -8  -1   7    0.46    0.11 
   8  -1  -7    0.39    0.07 
  -8  -1   7    0.67    0.17 
   8  -1  -7    0.23    0.08 
  -8  -1   7    0.45    0.09 
  -8   1   7    0.48    0.11 
   8   1  -7    0.27    0.08 
  -8   1   7    0.52    0.11 
   8   1  -7    0.35    0.06 
  -8   1   7    0.52    0.09 
  -8   1   7    0.52    0.12 
   8   1  -7    0.63    0.12 
   8   1  -7    0.56    0.13 
   8   1  -7    0.59    0.15 
  -8   1   7    0.30    0.08 
  -8   1   7    0.40    0.07 
  -8   1   7    0.27    0.09 
  -7  -1   7    1.72    0.24 
   7  -1  -7    1.49    0.30 
  -7  -1   7    1.54    0.20 
   7  -1  -7    1.70    0.20 
  -7  -1   7    1.71    0.23 
  -7  -1   7    1.48    0.18 
  -7  -1   7    1.61    0.12 
   7  -1  -7    1.78    0.13 
   7  -1  -7    1.46    0.20 
  -7  -1   7    1.74    0.10 
  -7  -1   7    1.87    0.22 
   7  -1  -7    1.80    0.19 
   7  -1  -7    1.59    0.14 
  -7  -1   7    2.01    0.16 
   7   1  -7    1.75    0.17 
   7   1  -7    1.96    0.12 
   7   1  -7    1.36    0.19 
  -7   1   7    1.47    0.23 
   7   1  -7    1.72    0.19 
   7   1  -7    1.51    0.19 
  -7   1   7    1.91    0.19 
  -7   1   7    2.04    0.22 
   7   1  -7    1.87    0.16 
  -7   1   7    1.74    0.21 
  -7   1   7    1.85    0.21 
   7   1  -7    1.57    0.22 
  -7   1   7    1.31    0.20 
  -7   1   7    1.73    0.23 
  -7   1   7    1.89    0.13 
   7   1  -7    1.79    0.17 
  -7   1   7    1.78    0.21 
   6  -1  -7    9.58    0.60 
  -6  -1   7    9.61    0.45 
  -6  -1   7    8.56    0.42 
  -6  -1   7    9.15    0.42 
   6  -1  -7    9.26    0.40 
   6  -1  -7    9.00    0.43 
   6  -1  -7    9.20    0.46 
   6  -1  -7   10.01    0.45 
  -6  -1   7    9.40    0.29 
   6  -1  -7    9.89    0.44 
   6  -1  -7    9.24    0.41 
  -6  -1   7    8.68    0.36 
  -6  -1   7    9.13    0.39 
  -6  -1   7   10.09    0.46 
   6  -1  -7    8.32    0.43 
  -6  -1   7    9.17    0.38 
  -6  -1   7    9.34    0.37 
   6  -1  -7    9.27    0.35 
  -6  -1   7    9.43    0.33 
   6  -1  -7    9.25    0.31 
  -6   1   7    9.37    0.35 
   6   1  -7    8.77    0.39 
   6   1  -7    8.91    0.38 
   6   1  -7    9.72    0.42 
  -6   1   7    9.17    0.44 
   6   1  -7    9.44    0.35 
  -6   1   7    9.59    0.42 
  -6   1   7    9.49    0.31 
   6   1  -7    9.95    0.45 
  -6   1   7    9.46    0.27 
   6   1  -7    9.87    0.31 
  -6   1   7    9.26    0.33 
  -6   1   7    9.28    0.45 
  -6   1   7    9.37    0.35 
  -6   1   7   10.11    0.46 
   6   1  -7    9.35    0.32 
   6   1  -7    9.23    0.38 
  -6   1   7    9.13    0.40 
   6   1  -7    9.96    0.37 
  -6   1   7    9.01    0.40 
  -6   1   7    9.61    0.49 
  -6   1   7    9.63    0.43 
   6   1  -7   10.46    0.41 
   6   1  -7    9.51    0.43 
  -6   1   7    9.73    0.45 
   5  -1  -7   52.65    1.84 
   5  -1  -7   52.78    2.63 
   5  -1  -7   56.23    1.95 
  -5  -1   7   56.85    1.97 
  -5  -1   7   54.08    1.84 
  -5  -1   7   53.26    1.70 
  -5  -1   7   57.15    2.00 
  -5  -1   7   53.60    2.62 
  -5  -1   7   53.62    1.86 
   5  -1  -7   52.04    1.95 
  -5  -1   7   53.61    1.96 
  -5  -1   7   56.66    2.27 
  -5  -1   7   55.24    1.94 
   5  -1  -7   52.71    1.95 
   5  -1  -7   54.49    2.04 
   5  -1  -7   52.00    2.22 
   5  -1  -7   53.28    1.97 
  -5  -1   7   53.65    2.03 
   5  -1  -7   49.05    2.42 
  -5  -1   7   49.65    2.44 
   5   1  -7   55.85    1.92 
  -5   1   7   53.27    1.86 
  -5   1   7   50.72    2.63 
  -5   1   7   52.18    1.97 
   5   1  -7   51.01    2.27 
   5   1  -7   52.06    2.75 
  -5   1   7   52.47    2.27 
   5   1  -7   51.68    1.89 
  -5   1   7   53.24    1.82 
  -5   1   7   48.38    2.74 
   5   1  -7   52.85    1.47 
  -5   1   7   52.73    1.46 
   5   1  -7   54.71    1.80 
  -5   1   7   53.77    1.91 
   5   1  -7   55.19    2.61 
  -5   1   7   50.70    2.01 
  -5   1   7   53.61    1.80 
   5   1  -7   53.05    1.66 
  -5   1   7   52.15    1.66 
   4  -1  -7   52.70    1.88 
   4  -1  -7   55.47    2.34 
  -4  -1   7   52.11    2.17 
   4  -1  -7   53.08    1.96 
   4  -1  -7   49.82    2.11 
   4  -1  -7   53.30    1.88 
  -4  -1   7   52.59    2.16 
  -4  -1   7   51.29    1.91 
   4  -1  -7   51.29    1.87 
   4  -1  -7   49.74    2.53 
  -4  -1   7   50.71    1.78 
  -4  -1   7   50.68    2.53 
   4  -1  -7   53.11    1.77 
  -4  -1   7   50.88    1.89 
  -4  -1   7   50.16    1.87 
  -4  -1   7   49.10    2.35 
  -4  -1   7   52.11    1.95 
   4  -1  -7   53.32    1.90 
  -4  -1   7   53.50    1.89 
   4  -1  -7   51.52    2.14 
  -4   1   7   51.38    1.83 
  -4   1   7   49.83    1.59 
  -4   1   7   49.77    1.77 
  -4   1   7   46.92    2.47 
   4   1  -7   47.75    1.77 
  -4   1   7   50.34    1.41 
   4   1  -7   51.52    1.88 
   4   1  -7   46.74    1.81 
   4   1  -7   50.69    1.40 
  -4   1   7   49.44    1.71 
  -4   1   7   49.30    1.72 
  -4   1   7   52.84    2.18 
  -4   1   7   55.85    2.64 
  -4   1   7   51.25    1.82 
   4   1  -7   49.35    1.80 
   4   1  -7   50.60    2.17 
   4   1  -7   51.93    2.47 
   4   1  -7   49.23    1.58 
   4   1  -7   49.73    1.71 
   4   1  -7   49.60    1.91 
   4   1  -7   53.19    2.62 
  -3  -1   7   31.03    1.32 
  -3  -1   7   32.01    1.11 
  -3  -1   7   32.69    1.45 
  -3  -1   7   31.04    1.09 
  -3  -1   7   31.72    1.17 
  -3  -1   7   31.56    1.15 
   3  -1  -7   29.47    1.56 
   3  -1  -7   31.92    1.16 
  -3  -1   7   31.18    1.19 
  -3  -1   7   32.88    1.34 
   3  -1  -7   31.77    1.32 
   3  -1  -7   30.71    1.15 
  -3  -1   7   31.69    1.22 
   3  -1  -7   28.73    1.19 
   3  -1  -7   30.58    1.31 
   3  -1  -7   31.27    1.43 
   3  -1  -7   29.64    1.08 
   3  -1  -7   29.72    1.14 
   3  -1  -7   28.85    1.14 
   3   1  -7   30.11    0.83 
  -3   1   7   29.99    1.11 
  -3   1   7   30.19    1.53 
   3   1  -7   29.88    1.04 
   3   1  -7   28.80    1.10 
   3   1  -7   28.19    1.49 
  -3   1   7   29.32    1.11 
  -3   1   7   29.52    1.29 
   3   1  -7   30.67    1.59 
   3   1  -7   31.19    1.31 
  -3   1   7   29.66    1.14 
   3   1  -7   30.40    1.26 
   3   1  -7   30.11    1.16 
  -2  -1   7   14.72    0.54 
  -2  -1   7   15.17    0.68 
  -2  -1   7   14.64    0.67 
  -2  -1   7   13.95    0.58 
  -2  -1   7   14.01    0.55 
   2  -1  -7   13.98    0.57 
  -2  -1   7   14.46    0.62 
  -2  -1   7   15.04    0.58 
  -2  -1   7   14.50    0.72 
   2  -1  -7   14.79    0.67 
   2  -1  -7   14.94    0.59 
   2  -1  -7   14.23    0.80 
   2  -1  -7   13.39    0.57 
  -2   1   7   15.13    0.69 
  -2   1   7   13.88    0.58 
   2   1  -7   15.05    0.78 
  -2   1   7   14.88    0.82 
  -2   1   7   13.83    0.58 
   2   1  -7   14.96    0.81 
   2   1  -7   14.53    0.64 
  -2   1   7   14.05    0.59 
  -2   1   7   14.39    0.68 
  -2   1   7   14.04    0.58 
  -2   1   7   14.10    0.72 
   2   1  -7   14.33    0.59 
   2   1  -7   14.73    0.66 
  -2   1   7   14.47    0.58 
   1  -1  -7    3.71    0.21 
  -1  -1   7    3.84    0.19 
   1  -1  -7    3.85    0.32 
   1  -1  -7    3.93    0.26 
  -1  -1   7    3.82    0.24 
   1  -1  -7    4.11    0.33 
  -1  -1   7    3.86    0.26 
  -1  -1   7    3.57    0.21 
  -1  -1   7    3.74    0.22 
  -1  -1   7    4.04    0.26 
   1  -1  -7    3.60    0.23 
  -1  -1   7    4.22    0.27 
   1   1  -7    3.62    0.21 
   1   1  -7    3.84    0.27 
   1   1  -7    3.66    0.22 
  -1   1   7    3.41    0.22 
  -1   1   7    3.53    0.26 
  -1   1   7    3.70    0.22 
   1   1  -7    3.52    0.27 
  -1   1   7    3.97    0.22 
   1   1  -7    3.43    0.21 
   1   1  -7    3.08    0.22 
  -1   1   7    3.71    0.27 
  -1   1   7    3.67    0.26 
   0  -1   7   40.91    1.78 
   0  -1   7   38.88    1.39 
   0  -1   7   38.81    1.60 
   0  -1   7   38.12    1.44 
   0  -1   7   40.88    1.49 
   0  -1  -7   39.82    1.43 
   0  -1   7   39.47    1.62 
   0  -1  -7   40.03    1.70 
   0  -1  -7   39.75    1.94 
   0  -1  -7   38.26    1.50 
   0  -1  -7   38.07    1.42 
   0  -1   7   39.09    1.42 
   0  -1  -7   40.64    2.06 
   0  -1  -7   40.39    1.10 
   0   1   7   41.40    1.39 
   0   1  -7   38.98    1.98 
   0   1   7   37.76    1.42 
   0   1   7   38.84    1.41 
   0   1   7   39.65    1.62 
   0   1   7   38.27    1.48 
   0   1  -7   38.15    1.45 
   0   1   7   38.31    1.59 
   0   1   7   39.05    1.76 
   0   1   7   38.17    1.34 
   0   1  -7   39.61    1.58 
   0   1   7   38.85    1.43 
   0   1  -7   37.61    1.55 
  -1  -1  -7   29.65    1.53 
   1  -1   7   27.19    1.18 
   1  -1   7   28.47    1.11 
  -1  -1  -7   28.45    0.80 
   1  -1   7   29.44    1.21 
   1  -1   7   29.25    1.07 
  -1  -1  -7   28.06    1.21 
  -1  -1  -7   28.31    1.12 
   1  -1   7   27.46    1.00 
  -1  -1  -7   29.39    1.06 
  -1  -1  -7   30.74    1.46 
  -1  -1  -7   28.16    1.00 
   1  -1   7   29.98    1.02 
   1  -1   7   29.61    1.31 
  -1  -1  -7   26.03    1.25 
   1  -1   7   28.34    1.05 
   1   1   7   28.96    1.23 
   1   1   7   29.79    1.08 
   1   1   7   29.29    1.06 
   1   1   7   28.70    1.21 
   1   1   7   29.32    1.13 
  -1   1  -7   26.34    0.77 
  -1   1  -7   29.31    1.08 
   1   1   7   28.07    1.03 
   1   1   7   27.74    1.00 
   1   1   7   28.45    1.33 
  -1   1  -7   27.33    1.00 
  -1   1  -7   29.10    1.18 
   2  -1   7    1.39    0.12 
  -2  -1  -7    1.20    0.16 
  -2  -1  -7    1.35    0.17 
  -2  -1  -7    1.15    0.19 
  -2  -1  -7    1.08    0.12 
  -2  -1  -7    1.27    0.17 
  -2  -1  -7    0.99    0.15 
  -2  -1  -7    0.80    0.18 
   2  -1   7    1.37    0.17 
   2  -1   7    1.52    0.16 
  -2  -1  -7    1.33    0.24 
  -2  -1  -7    1.16    0.22 
   2  -1   7    1.21    0.16 
   2   1   7    1.28    0.19 
  -2   1  -7    1.13    0.12 
   2   1   7    1.03    0.16 
   2   1   7    1.13    0.14 
   2   1   7    1.08    0.17 
   2   1   7    0.87    0.20 
  -2   1  -7    1.29    0.13 
   2   1   7    0.96    0.24 
   2   1   7    1.15    0.16 
  -2   1  -7    1.31    0.14 
   2   1   7    1.11    0.16 
   2   1   7    0.97    0.19 
  -3  -1  -7   22.88    1.04 
  -3  -1  -7   24.76    1.03 
  -3  -1  -7   23.88    0.68 
  -3  -1  -7   21.97    1.28 
   3  -1   7   23.75    0.95 
  -3  -1  -7   23.62    0.84 
  -3  -1  -7   24.21    0.88 
   3  -1   7   23.55    0.87 
   3   1   7   23.29    1.15 
   3   1   7   24.14    0.89 
   3   1   7   22.36    0.98 
   3   1   7   24.32    0.94 
   3   1   7   23.24    1.23 
   3   1   7   24.43    0.96 
  -3   1  -7   23.91    0.84 
   3   1   7   24.27    0.92 
  -3   1  -7   23.29    0.99 
   3   1   7   24.59    0.87 
   4  -1   7    9.22    0.38 
  -4  -1  -7    8.91    0.29 
  -4  -1  -7    9.30    0.38 
  -4  -1  -7    8.77    0.32 
  -4  -1  -7    8.17    0.34 
  -4  -1  -7    8.95    0.30 
  -4  -1  -7    9.11    0.37 
  -4  -1  -7    8.74    0.36 
  -4  -1  -7    9.02    0.35 
  -4  -1  -7    8.80    0.36 
  -4  -1  -7    8.73    0.28 
   4   1   7    8.54    0.33 
  -4   1  -7    8.56    0.31 
  -4   1  -7    8.43    0.30 
  -4   1  -7    8.78    0.32 
   4   1   7    9.27    0.56 
   4   1   7    8.40    0.42 
  -4   1  -7    8.53    0.33 
   4   1   7    8.13    0.41 
  -4   1  -7    7.96    0.30 
   4   1   7    9.36    0.40 
  -4   1  -7    8.51    0.33 
   4   1   7    8.28    0.42 
  -5  -1  -7   22.69    0.68 
  -5  -1  -7   23.88    0.64 
  -5  -1  -7   23.47    0.72 
  -5  -1  -7   22.66    0.77 
  -5  -1  -7   23.42    0.60 
  -5  -1  -7   23.06    0.79 
  -5  -1  -7   23.13    0.76 
  -5  -1  -7   23.19    0.76 
  -5  -1  -7   21.88    0.84 
  -5  -1  -7   23.46    0.75 
  -5   1  -7   23.29    0.67 
  -5   1  -7   22.76    0.69 
  -5   1  -7   23.00    0.75 
   5   1   7   22.61    0.75 
  -5   1  -7   23.17    0.74 
   5   1   7   22.11    0.84 
   5   1   7   23.43    1.19 
  -5   1  -7   22.35    0.72 
  -6  -1  -7    5.28    0.22 
  -6  -1  -7    5.09    0.25 
   6  -1   7    5.24    0.21 
  -6  -1  -7    5.30    0.21 
  -6  -1  -7    5.40    0.21 
  -6  -1  -7    5.45    0.19 
  -6   1  -7    5.20    0.21 
   6   1   7    5.11    0.19 
   6   1   7    5.27    0.21 
  -6   1  -7    5.19    0.18 
  -6   1  -7    4.92    0.22 
   8  -2  -7    6.76    0.25 
  -8  -2   7    7.35    0.28 
   8  -2  -7    7.16    0.22 
  -8  -2   7    7.10    0.25 
   8  -2  -7    7.24    0.29 
  -8  -2   7    7.14    0.19 
  -8   2   7    6.56    0.28 
  -8   2   7    7.44    0.28 
  -8   2   7    7.43    0.25 
   8   2  -7    7.21    0.27 
  -8   2   7    7.27    0.27 
   8   2  -7    7.13    0.23 
  -8   2   7    7.07    0.27 
   8   2  -7    6.15    0.28 
  -8   2   7    7.10    0.22 
   8   2  -7    7.32    0.26 
  -8   2   7    7.19    0.21 
  -8   2   7    7.02    0.28 
  -7  -2   7    5.03    0.20 
   7  -2  -7    5.44    0.40 
  -7  -2   7    5.25    0.27 
   7  -2  -7    5.19    0.20 
  -7  -2   7    5.42    0.24 
  -7  -2   7    5.10    0.24 
  -7  -2   7    5.41    0.26 
   7  -2  -7    5.00    0.27 
   7  -2  -7    5.20    0.23 
   7  -2  -7    3.85    0.27 
  -7   2   7    4.77    0.18 
   7   2  -7    5.01    0.21 
   7   2  -7    4.91    0.29 
   7   2  -7    4.84    0.21 
   7   2  -7    5.24    0.26 
  -7   2   7    4.55    0.26 
  -7   2   7    5.08    0.19 
  -7   2   7    5.18    0.22 
  -7   2   7    4.86    0.27 
  -7   2   7    5.30    0.20 
   7   2  -7    5.06    0.28 
  -7   2   7    4.53    0.24 
   7   2  -7    4.87    0.26 
  -7   2   7    5.07    0.29 
   7   2  -7    4.90    0.16 
  -7   2   7    4.67    0.26 
   7   2  -7    5.06    0.23 
  -7   2   7    4.76    0.27 
   7   2  -7    5.10    0.25 
  -7   2   7    5.21    0.28 
   6  -2  -7    7.64    0.39 
  -6  -2   7    7.83    0.36 
   6  -2  -7    8.77    0.33 
   6  -2  -7    8.25    0.29 
  -6  -2   7    8.24    0.27 
   6  -2  -7    8.93    0.39 
  -6  -2   7    8.61    0.40 
  -6  -2   7    8.30    0.36 
  -6  -2   7    8.34    0.40 
   6  -2  -7    8.39    0.37 
  -6  -2   7    8.05    0.42 
  -6  -2   7    8.56    0.44 
  -6  -2   7    8.45    0.35 
   6  -2  -7    8.65    0.42 
   6  -2  -7    8.60    0.43 
   6  -2  -7    9.24    0.55 
  -6   2   7    8.58    0.40 
  -6   2   7    8.35    0.42 
  -6   2   7    8.52    0.29 
   6   2  -7    8.10    0.43 
  -6   2   7    8.02    0.35 
   6   2  -7    8.12    0.34 
   6   2  -7    8.35    0.34 
  -6   2   7    9.06    0.41 
   6   2  -7    8.28    0.24 
   6   2  -7    8.40    0.36 
  -6   2   7    8.66    0.40 
   6   2  -7    8.25    0.34 
   6   2  -7    8.37    0.42 
   6   2  -7    8.51    0.39 
  -6   2   7    7.59    0.43 
   6   2  -7    8.65    0.32 
   6   2  -7    8.38    0.40 
  -6   2   7    8.40    0.36 
   6   2  -7    7.88    0.30 
  -6   2   7    8.63    0.38 
  -6   2   7    8.21    0.36 
   6   2  -7    8.24    0.30 
  -6   2   7    8.25    0.38 
   6   2  -7    8.09    0.26 
   6   2  -7    8.16    0.40 
  -6   2   7    8.34    0.33 
   5  -2  -7    1.07    0.20 
  -5  -2   7    1.41    0.23 
  -5  -2   7    1.19    0.27 
  -5  -2   7    1.29    0.21 
   5  -2  -7    1.11    0.18 
   5  -2  -7    1.09    0.21 
  -5  -2   7    1.40    0.23 
  -5  -2   7    1.52    0.22 
  -5  -2   7    0.97    0.22 
  -5  -2   7    1.25    0.23 
   5  -2  -7    1.06    0.17 
  -5  -2   7    1.16    0.31 
   5  -2  -7    1.63    0.21 
   5  -2  -7    1.13    0.30 
   5  -2  -7    1.26    0.17 
   5   2  -7    0.99    0.13 
  -5   2   7    1.12    0.19 
  -5   2   7    1.33    0.19 
  -5   2   7    1.21    0.25 
   5   2  -7    1.41    0.19 
   5   2  -7    0.91    0.17 
  -5   2   7    1.22    0.21 
   5   2  -7    1.18    0.18 
   5   2  -7    1.26    0.19 
   5   2  -7    1.24    0.19 
   5   2  -7    0.84    0.18 
  -5   2   7    1.29    0.19 
  -5   2   7    1.17    0.19 
   5   2  -7    0.93    0.25 
  -5   2   7    1.20    0.20 
  -5   2   7    1.23    0.23 
   5   2  -7    1.15    0.20 
  -4  -2   7    6.97    0.44 
  -4  -2   7    8.13    0.52 
   4  -2  -7    7.64    0.47 
   4  -2  -7    7.99    0.47 
   4  -2  -7    8.29    0.39 
   4  -2  -7    8.52    0.39 
   4  -2  -7    8.37    0.39 
   4  -2  -7    8.15    0.36 
  -4  -2   7    7.61    0.50 
   4  -2  -7    8.76    0.53 
   4  -2  -7    8.57    0.41 
  -4  -2   7    7.84    0.39 
  -4  -2   7    8.09    0.41 
  -4  -2   7    7.64    0.49 
  -4  -2   7    8.48    0.41 
   4  -2  -7    8.39    0.38 
  -4  -2   7    8.88    0.42 
   4   2  -7    8.03    0.43 
  -4   2   7    8.08    0.31 
   4   2  -7    7.33    0.35 
  -4   2   7    7.77    0.41 
  -4   2   7    8.40    0.56 
  -4   2   7    8.29    0.44 
   4   2  -7    7.36    0.52 
   4   2  -7    7.45    0.35 
  -4   2   7    8.56    0.38 
   4   2  -7    7.64    0.30 
   4   2  -7    7.79    0.42 
  -4   2   7    8.19    0.38 
   4   2  -7    8.26    0.53 
  -4   2   7    7.84    0.38 
  -4   2   7    7.93    0.37 
   4   2  -7    7.89    0.39 
   4   2  -7    7.80    0.37 
  -4   2   7    7.85    0.38 
  -4   2   7    7.87    0.39 
  -4   2   7    8.10    0.56 
  -4   2   7    8.14    0.24 
  -3  -2   7   12.98    0.53 
   3  -2  -7   12.20    0.50 
   3  -2  -7   11.90    0.51 
   3  -2  -7   12.74    0.64 
   3  -2  -7   13.68    0.71 
  -3  -2   7   12.34    0.48 
   3  -2  -7   12.39    0.48 
  -3  -2   7   12.18    0.49 
   3  -2  -7   11.98    0.60 
   3  -2  -7   12.27    0.51 
  -3  -2   7   11.99    0.57 
  -3  -2   7    9.80    0.59 
   3  -2  -7   12.59    0.52 
   3  -2  -7   12.68    0.55 
  -3  -2   7    9.97    0.69 
  -3  -2   7   13.14    0.66 
  -3  -2   7   11.48    0.61 
  -3  -2   7   12.54    0.53 
  -3  -2   7   12.84    0.53 
   3  -2  -7   11.11    0.60 
   3   2  -7   10.76    0.66 
  -3   2   7   11.83    0.53 
   3   2  -7   10.98    0.48 
  -3   2   7   11.51    0.71 
   3   2  -7   11.84    0.55 
  -3   2   7   12.98    0.72 
   3   2  -7   10.85    0.67 
  -3   2   7   12.39    0.49 
  -3   2   7   12.56    0.59 
   3   2  -7   11.20    0.37 
  -3   2   7   11.59    0.48 
   3   2  -7   11.53    0.54 
  -3   2   7   11.84    0.48 
   3   2  -7   11.17    0.45 
   3   2  -7   11.42    0.50 
  -3   2   7   11.68    0.48 
  -3   2   7   11.97    0.36 
   3   2  -7   11.43    0.46 
  -3   2   7   11.23    0.42 
   2  -2  -7    4.50    0.30 
  -2  -2   7    4.59    0.25 
  -2  -2   7    4.22    0.24 
   2  -2  -7    4.33    0.30 
  -2  -2   7    4.28    0.30 
  -2  -2   7    4.42    0.30 
  -2  -2   7    4.45    0.25 
  -2  -2   7    4.39    0.25 
   2  -2  -7    4.39    0.24 
   2  -2  -7    4.02    0.25 
  -2  -2   7    4.41    0.22 
   2  -2  -7    4.23    0.23 
   2  -2  -7    4.47    0.28 
   2  -2  -7    3.96    0.36 
   2  -2  -7    4.81    0.25 
   2  -2  -7    4.56    0.24 
   2  -2  -7    3.99    0.29 
  -2  -2   7    4.57    0.31 
  -2  -2   7    4.74    0.28 
  -2   2   7    4.17    0.25 
  -2   2   7    4.26    0.28 
  -2   2   7    4.58    0.19 
   2   2  -7    4.28    0.18 
  -2   2   7    4.76    0.39 
  -2   2   7    3.78    0.36 
  -2   2   7    4.71    0.28 
  -2   2   7    4.63    0.28 
   2   2  -7    4.23    0.24 
  -2   2   7    4.70    0.31 
  -2   2   7    4.60    0.26 
   2   2  -7    4.13    0.23 
   2   2  -7    4.70    0.30 
   2   2  -7    4.55    0.26 
  -1  -2   7   26.99    1.17 
  -1  -2   7   26.85    0.98 
  -1  -2   7   27.72    1.03 
   1  -2  -7   26.38    1.29 
   1  -2  -7   27.81    0.98 
   1  -2  -7   27.74    1.10 
  -1  -2   7   29.44    1.29 
   1  -2  -7   26.62    1.04 
  -1  -2   7   29.57    1.19 
  -1  -2   7   28.36    1.09 
   1  -2  -7   27.09    1.20 
   1  -2  -7   28.73    1.05 
   1  -2  -7   27.37    1.06 
   1  -2  -7   29.08    1.45 
  -1  -2   7   29.39    1.05 
   1  -2  -7   28.25    1.20 
  -1  -2   7   29.28    1.00 
   1  -2  -7   27.38    1.04 
   1   2  -7   26.45    1.00 
  -1   2   7   26.07    0.98 
  -1   2   7   25.97    1.14 
   1   2  -7   26.37    1.08 
   1   2  -7   25.60    0.71 
  -1   2   7   25.59    1.01 
  -1   2   7   26.37    1.36 
  -1   2   7   27.37    0.99 
   1   2  -7   25.76    0.92 
   0  -2  -7    4.62    0.25 
   0  -2  -7    4.36    0.25 
   0  -2  -7    4.83    0.26 
   0  -2   7    4.59    0.26 
   0  -2  -7    4.86    0.39 
   0  -2   7    4.52    0.21 
   0   2   7    4.38    0.26 
   0   2   7    4.48    0.26 
   0   2   7    4.19    0.31 
   0   2   7    4.86    0.32 
   0   2  -7    4.24    0.20 
   0   2  -7    4.46    0.23 
   0   2   7    4.41    0.32 
   0   2   7    4.80    0.26 
   0   2   7    4.35    0.25 
   0   2   7    4.88    0.40 
   0   2   7    4.13    0.25 
  -1  -2  -7   20.74    0.77 
   1  -2   7   20.09    0.79 
  -1  -2  -7   19.91    0.73 
  -1  -2  -7   18.59    1.11 
  -1  -2  -7   19.18    0.81 
  -1  -2  -7   19.39    0.66 
  -1  -2  -7   19.66    0.76 
   1  -2   7   19.78    0.72 
  -1  -2  -7   21.16    1.08 
   1   2   7   19.80    0.76 
   1   2   7   19.84    0.80 
   1   2   7   19.87    0.76 
   1   2   7   19.09    0.72 
   1   2   7   19.93    0.95 
  -1   2  -7   18.78    0.67 
   1   2   7   18.07    0.88 
   1   2   7   19.16    0.76 
   1   2   7   19.28    0.88 
   1   2   7   19.67    0.77 
  -2  -2  -7   37.07    1.36 
  -2  -2  -7   33.59    1.96 
  -2  -2  -7   36.37    1.33 
  -2  -2  -7   38.72    1.62 
  -2  -2  -7   38.13    1.18 
  -2  -2  -7   36.50    1.86 
   2  -2   7   36.64    1.30 
   2  -2   7   37.51    1.39 
  -2  -2  -7   37.21    1.28 
   2   2   7   35.04    1.55 
   2   2   7   35.61    1.35 
   2   2   7   36.35    1.36 
   2   2   7   37.17    1.28 
   2   2   7   37.04    1.69 
   2   2   7   37.10    1.38 
   2   2   7   35.86    1.41 
   2   2   7   36.26    1.35 
   2   2   7   36.09    1.82 
  -3  -2  -7   43.95    1.98 
   3  -2   7   47.94    1.63 
  -3  -2  -7   48.13    1.45 
  -3  -2  -7   40.63    2.41 
  -3  -2  -7   47.65    1.58 
  -3  -2  -7   47.85    1.65 
   3   2   7   48.04    1.64 
   3   2   7   42.57    2.15 
   3   2   7   45.85    1.75 
   3   2   7   48.59    1.81 
   3   2   7   48.26    2.33 
   3   2   7   46.93    1.74 
   3   2   7   49.05    1.73 
  -4  -2  -7   43.32    1.36 
  -4  -2  -7   42.49    1.37 
  -4  -2  -7   43.82    1.49 
  -4  -2  -7   43.56    1.44 
   4  -2   7   43.98    1.54 
  -4  -2  -7   43.93    1.22 
  -4  -2  -7   43.51    1.19 
   4   2   7   42.54    1.35 
   4   2   7   44.21    1.66 
   4   2   7   43.17    1.50 
  -4   2  -7   42.51    1.34 
  -4   2  -7   42.53    1.34 
   4   2   7   44.73    2.14 
   4   2   7   41.61    1.59 
   4   2   7   42.97    1.21 
  -4   2  -7   43.52    1.20 
   4   2   7   42.79    1.41 
  -4   2  -7   41.93    1.37 
  -5  -2  -7    0.21    0.11 
  -5  -2  -7    0.18    0.08 
  -5  -2  -7   -0.05    0.11 
  -5  -2  -7    0.10    0.08 
  -5  -2  -7    0.14    0.07 
  -5  -2  -7    0.03    0.06 
  -5  -2  -7    0.11    0.10 
  -5  -2  -7    0.05    0.08 
  -5  -2  -7    0.27    0.10 
  -5  -2  -7    0.02    0.10 
  -5   2  -7    0.18    0.07 
   5   2   7    0.13    0.07 
  -5   2  -7    0.00    0.07 
   5   2   7    0.05    0.08 
   5   2   7    0.05    0.16 
  -5   2  -7    0.08    0.05 
   5   2   7    0.04    0.06 
  -6  -2  -7    0.21    0.06 
  -6  -2  -7    0.44    0.10 
  -6  -2  -7    0.31    0.08 
  -6  -2  -7    0.19    0.07 
  -6  -2  -7    0.30    0.08 
  -6  -2  -7    0.36    0.08 
   6   2   7    0.28    0.06 
  -6   2  -7    0.27    0.07 
   6   2   7    0.29    0.07 
  -8  -3   7    6.35    0.23 
  -8  -3   7    6.75    0.17 
  -8   3   7    6.73    0.22 
  -8   3   7    6.51    0.19 
  -8   3   7    5.51    0.23 
  -7  -3   7   15.84    0.56 
  -7  -3   7   15.48    0.51 
   7  -3  -7   16.41    0.53 
   7  -3  -7   16.90    0.48 
   7  -3  -7   15.69    0.84 
  -7  -3   7   15.87    0.54 
  -7   3   7   16.54    0.46 
   7   3  -7   15.31    0.56 
  -7   3   7   16.65    0.53 
   7   3  -7   15.45    0.53 
  -7   3   7   16.54    0.44 
   7   3  -7   15.66    0.54 
  -7   3   7   15.86    0.55 
  -7   3   7   15.80    0.52 
  -7   3   7   16.43    0.54 
  -7   3   7   16.87    0.49 
   7   3  -7   15.34    0.47 
  -7   3   7   16.97    0.56 
  -6  -3   7   22.84    0.88 
  -6  -3   7   22.33    0.74 
   6  -3  -7   24.00    1.19 
  -6  -3   7   22.30    0.65 
  -6  -3   7   23.79    1.18 
   6  -3  -7   22.39    0.83 
  -6  -3   7   22.22    0.86 
  -6  -3   7   22.58    0.78 
   6  -3  -7   23.05    0.75 
   6   3  -7   21.59    0.79 
  -6   3   7   21.71    0.66 
   6   3  -7   21.73    0.72 
   6   3  -7   21.68    0.64 
  -6   3   7   21.90    0.72 
   6   3  -7   22.31    0.76 
  -6   3   7   22.05    0.58 
   6   3  -7   21.77    0.86 
   6   3  -7   22.65    0.85 
  -6   3   7   21.92    0.70 
  -6   3   7   21.94    0.74 
  -6   3   7   21.70    0.82 
  -6   3   7   20.72    0.82 
   6   3  -7   21.57    0.71 
  -6   3   7   22.07    0.62 
  -6   3   7   21.77    0.60 
   6   3  -7   21.76    0.82 
   6   3  -7   21.55    0.61 
  -6   3   7   21.57    0.74 
  -6   3   7   22.55    0.82 
  -6   3   7   22.10    0.84 
   6   3  -7   22.48    0.65 
  -5  -3   7  131.23    4.18 
  -5  -3   7  131.85    5.98 
  -5  -3   7  123.62    4.41 
  -5  -3   7  120.06    4.41 
   5  -3  -7  112.48    4.59 
  -5  -3   7  114.82    4.58 
  -5  -3   7  123.95    3.81 
   5  -3  -7  131.01    5.99 
   5  -3  -7  122.56    3.81 
  -5  -3   7  125.70    4.47 
   5  -3  -7  131.39    4.39 
  -5  -3   7  125.50    3.93 
   5  -3  -7  123.99    4.15 
  -5   3   7  115.29    3.04 
   5   3  -7  126.42    4.47 
   5   3  -7  120.79    3.66 
  -5   3   7  123.25    4.48 
  -5   3   7  121.85    3.99 
   5   3  -7  127.75    4.17 
  -5   3   7  116.92    3.17 
   5   3  -7  120.72    3.70 
  -5   3   7  120.15    3.88 
  -5   3   7  125.12    4.18 
   5   3  -7  122.67    4.41 
   5   3  -7  118.54    3.87 
  -5   3   7  117.86    3.29 
   5   3  -7  122.37    4.16 
  -5   3   7  121.57    3.70 
   5   3  -7  124.22    3.29 
  -5   3   7  119.02    3.65 
   5   3  -7  123.31    4.00 
  -5   3   7  123.14    4.41 
  -5   3   7  121.47    3.63 
   5   3  -7  119.42    3.62 
  -5   3   7  117.64    3.72 
  -5   3   7  115.85    3.74 
  -4  -3   7   25.34    0.98 
  -4  -3   7   24.18    1.20 
   4  -3  -7   24.51    0.89 
  -4  -3   7   23.01    1.03 
   4  -3  -7   23.69    0.96 
   4  -3  -7   21.86    1.17 
  -4  -3   7   25.53    0.92 
   4  -3  -7   24.69    1.00 
  -4  -3   7   25.53    0.99 
   4  -3  -7   25.00    0.94 
  -4  -3   7   25.34    1.26 
  -4  -3   7   26.93    0.97 
  -4  -3   7   23.12    0.91 
   4  -3  -7   24.12    1.26 
  -4   3   7   22.61    1.04 
   4   3  -7   23.84    0.67 
   4   3  -7   24.01    0.83 
  -4   3   7   23.44    0.85 
   4   3  -7   23.83    0.87 
   4   3  -7   24.53    0.89 
  -4   3   7   22.94    0.96 
   4   3  -7   24.72    1.26 
  -4   3   7   23.00    0.88 
   4   3  -7   24.75    0.91 
   4   3  -7   23.84    0.86 
  -4   3   7   20.48    1.27 
   4   3  -7   23.96    1.02 
  -4   3   7   22.95    0.88 
   4   3  -7   23.43    0.93 
  -4   3   7   22.06    0.92 
  -4   3   7   22.88    0.68 
  -4   3   7   22.30    1.03 
  -3  -3   7   27.47    1.02 
   3  -3  -7   25.06    0.99 
  -3  -3   7   25.84    1.24 
   3  -3  -7   26.46    1.15 
  -3  -3   7   24.53    1.05 
   3  -3  -7   26.06    1.00 
  -3  -3   7   25.13    1.31 
   3  -3  -7   26.43    1.23 
   3  -3  -7   26.48    1.04 
   3  -3  -7   25.84    0.93 
  -3  -3   7   25.04    1.00 
  -3  -3   7   26.73    0.99 
   3  -3  -7   25.28    0.98 
  -3  -3   7   26.33    0.95 
   3  -3  -7   26.45    1.32 
  -3  -3   7   26.27    0.94 
  -3  -3   7   22.03    1.14 
  -3   3   7   25.22    0.98 
  -3   3   7   25.49    0.92 
  -3   3   7   24.63    1.11 
   3   3  -7   24.53    0.90 
   3   3  -7   25.44    0.69 
  -3   3   7   24.36    0.92 
   3   3  -7   25.21    0.94 
  -3   3   7   23.23    0.80 
  -3   3   7   25.12    0.90 
  -3   3   7   25.38    1.01 
   3   3  -7   25.35    0.97 
   3   3  -7   25.82    1.06 
  -3   3   7   23.95    1.09 
   3   3  -7   25.44    0.90 
  -3   3   7   22.37    1.35 
   2  -3  -7    4.48    0.32 
   2  -3  -7    4.36    0.32 
  -2  -3   7    4.27    0.30 
   2  -3  -7    4.43    0.35 
   2  -3  -7    4.41    0.27 
  -2  -3   7    4.69    0.32 
  -2  -3   7    4.25    0.26 
   2  -3  -7    4.86    0.27 
   2  -3  -7    4.50    0.25 
   2  -3  -7    4.43    0.25 
   2  -3  -7    4.35    0.27 
  -2  -3   7    4.37    0.23 
  -2  -3   7    4.69    0.26 
   2  -3  -7    4.46    0.29 
  -2  -3   7    4.33    0.26 
  -2   3   7    5.00    0.31 
  -2   3   7    4.46    0.28 
   2   3  -7    4.33    0.25 
  -2   3   7    4.40    0.15 
   2   3  -7    4.12    0.24 
  -2   3   7    4.54    0.26 
  -2   3   7    4.18    0.26 
  -2   3   7    4.20    0.27 
   2   3  -7    4.05    0.22 
   2   3  -7    4.19    0.21 
  -2   3   7    4.24    0.22 
  -2   3   7    4.69    0.39 
  -2   3   7    4.65    0.26 
  -2   3   7    4.56    0.40 
  -2   3   7    4.68    0.30 
   1  -3  -7    7.17    0.44 
  -1  -3   7    8.28    0.39 
   1  -3  -7    7.40    0.48 
   1  -3  -7    7.06    0.44 
   1  -3  -7    7.25    0.34 
   1  -3  -7    7.69    0.40 
   1  -3  -7    7.95    0.36 
  -1  -3   7    8.07    0.32 
   1  -3  -7    7.87    0.37 
   1  -3  -7    7.20    0.36 
   1  -3  -7    7.66    0.37 
  -1   3   7    7.70    0.54 
  -1   3   7    7.92    0.36 
  -1   3   7    7.57    0.36 
   1   3  -7    7.60    0.35 
  -1   3   7    7.26    0.43 
  -1   3   7    7.44    0.31 
  -1   3   7    8.11    0.38 
  -1   3   7    7.32    0.54 
  -1   3   7    7.31    0.37 
  -1   3   7    7.51    0.26 
  -1   3   7    7.34    0.37 
   1   3  -7    7.73    0.29 
  -1   3   7    7.46    0.40 
  -1   3   7    7.56    0.35 
   0  -3  -7    3.30    0.29 
   0  -3  -7    3.63    0.24 
   0  -3  -7    3.61    0.25 
   0  -3  -7    3.75    0.24 
   0  -3  -7    3.70    0.22 
   0  -3  -7    3.75    0.31 
   0  -3  -7    3.81    0.22 
   0  -3  -7    3.96    0.25 
   0  -3  -7    3.70    0.35 
   0  -3  -7    4.52    0.28 
   0  -3   7    3.59    0.23 
   0   3   7    3.55    0.26 
   0   3   7    3.61    0.24 
   0   3   7    3.53    0.30 
   0   3   7    3.93    0.38 
   0   3   7    3.54    0.37 
   0   3   7    3.76    0.26 
   0   3   7    3.77    0.25 
   0   3   7    3.86    0.22 
   0   3   7    3.82    0.18 
  -1  -3  -7   13.08    0.52 
  -1  -3  -7   12.73    0.51 
  -1  -3  -7    9.97    0.73 
  -1  -3  -7   12.62    0.53 
  -1  -3  -7   12.50    0.45 
   1   3   7   11.95    0.45 
   1   3   7   11.49    0.51 
   1   3   7   12.13    0.40 
   1   3   7   12.38    0.53 
   1   3   7   12.30    0.77 
  -2  -3  -7   11.64    0.51 
  -2  -3  -7   12.23    0.50 
  -2  -3  -7   11.57    0.43 
  -2  -3  -7   11.26    0.50 
   2   3   7   11.35    0.44 
   2   3   7   11.27    0.41 
   2   3   7   11.59    0.52 
  -3  -3  -7    4.16    0.16 
  -3  -3  -7    4.07    0.23 
  -3  -3  -7    3.80    0.24 
  -3  -3  -7    3.86    0.16 
  -3  -3  -7    4.05    0.28 
  -3  -3  -7    3.87    0.21 
  -3  -3  -7    3.98    0.20 
  -3  -3  -7    3.91    0.24 
  -3  -3  -7    3.65    0.24 
  -3  -3  -7    4.05    0.25 
  -3  -3  -7    3.21    0.25 
  -3  -3  -7    3.91    0.21 
   3   3   7    3.92    0.24 
   3   3   7    4.09    0.30 
  -3   3  -7    3.70    0.17 
   3   3   7    3.61    0.17 
   3   3   7    3.90    0.28 
  -4  -3  -7   10.74    0.44 
  -4  -3  -7   10.55    0.41 
  -4  -3  -7   10.95    0.39 
  -4  -3  -7   11.13    0.36 
  -4  -3  -7   10.84    0.28 
  -4  -3  -7   10.66    0.35 
  -4  -3  -7   11.15    0.46 
   4   3   7   10.88    0.47 
   4   3   7   10.53    0.37 
   4   3   7   10.64    0.42 
  -4   3  -7   10.54    0.35 
   4   3   7   10.51    0.32 
  -5  -3  -7   11.20    0.41 
  -5  -3  -7   11.51    0.39 
  -5  -3  -7   10.63    0.43 
  -5  -3  -7   11.53    0.35 
   5   3   7   10.54    0.40 
   5   3   7   10.73    0.39 
  -7  -4   7   13.28    0.47 
  -7  -4   7   13.66    0.43 
   7  -4  -7   13.74    0.40 
   7  -4  -7   13.67    0.44 
  -7   4   7   13.95    0.43 
   7   4  -7   12.71    0.44 
   7   4  -7   12.48    0.36 
  -7   4   7   13.28    0.39 
  -7   4   7   13.16    0.38 
  -7   4   7   11.84    0.43 
  -7   4   7   13.02    0.41 
   7   4  -7   12.83    0.37 
  -7   4   7   12.76    0.39 
   7   4  -7   11.99    0.42 
   7   4  -7   12.81    0.33 
   7   4  -7   12.69    0.42 
  -7   4   7   12.98    0.36 
  -6  -4   7    5.23    0.22 
  -6  -4   7    5.36    0.26 
   6  -4  -7    5.02    0.37 
  -6  -4   7    5.71    0.20 
   6  -4  -7    5.61    0.23 
  -6  -4   7    5.45    0.39 
   6   4  -7    5.49    0.17 
  -6   4   7    5.64    0.24 
  -6   4   7    5.50    0.25 
  -6   4   7    5.08    0.23 
   6   4  -7    5.32    0.23 
   6   4  -7    5.19    0.26 
  -6   4   7    5.37    0.25 
  -6   4   7    5.85    0.22 
   6   4  -7    5.49    0.23 
  -6   4   7    5.48    0.24 
   6   4  -7    4.78    0.25 
   6   4  -7    5.60    0.18 
   6   4  -7    5.38    0.24 
   6   4  -7    5.48    0.21 
   6   4  -7    5.35    0.20 
  -5  -4   7    0.78    0.15 
   5  -4  -7    0.83    0.13 
  -5  -4   7    1.09    0.20 
  -5  -4   7    0.69    0.27 
   5  -4  -7    0.79    0.16 
   5  -4  -7    0.68    0.18 
  -5   4   7    0.57    0.11 
  -5   4   7    0.78    0.16 
   5   4  -7    0.31    0.11 
   5   4  -7    0.90    0.14 
  -5   4   7    0.96    0.16 
   5   4  -7    0.75    0.16 
   5   4  -7    0.80    0.15 
   5   4  -7    0.77    0.14 
  -5   4   7    0.68    0.13 
  -5   4   7    0.70    0.16 
  -5   4   7    0.67    0.16 
   5   4  -7    0.71    0.11 
  -5   4   7    0.63    0.11 
   5   4  -7    0.66    0.14 
  -5   4   7    0.71    0.16 
   5   4  -7    0.74    0.09 
   5   4  -7    1.02    0.14 
   5   4  -7    0.33    0.10 
   5   4  -7    0.94    0.15 
  -5   4   7    0.70    0.15 
   5   4  -7    0.81    0.13 
  -5   4   7    0.80    0.16 
  -5   4   7    0.66    0.10 
  -5   4   7    0.86    0.08 
   4  -4  -7   11.67    0.51 
  -4  -4   7   11.77    0.50 
   4  -4  -7   11.60    0.48 
  -4  -4   7   11.97    0.42 
   4  -4  -7   11.31    0.67 
  -4  -4   7   12.31    0.68 
  -4  -4   7   12.53    0.49 
  -4  -4   7   11.65    0.53 
   4  -4  -7   11.24    0.42 
   4  -4  -7   11.68    0.55 
  -4  -4   7   11.12    0.53 
   4   4  -7   11.06    0.33 
   4   4  -7   11.14    0.40 
   4   4  -7    9.40    0.46 
   4   4  -7   11.05    0.38 
  -4   4   7   10.51    0.35 
  -4   4   7   10.65    0.47 
  -4   4   7   10.82    0.41 
  -4   4   7   11.29    0.33 
  -4   4   7   10.95    0.33 
   4   4  -7   11.33    0.40 
  -4   4   7   10.88    0.42 
   4   4  -7   11.56    0.40 
  -4   4   7   11.19    0.52 
  -4   4   7   10.99    0.44 
  -4   4   7   11.24    0.47 
  -4   4   7   10.91    0.38 
   4   4  -7   11.84    0.45 
  -4   4   7   11.07    0.40 
  -4   4   7   10.49    0.42 
  -4   4   7   11.32    0.47 
   4   4  -7   10.82    0.48 
   4   4  -7   11.49    0.45 
   4   4  -7   10.89    0.30 
   3  -4  -7    1.24    0.19 
   3  -4  -7    1.36    0.15 
   3  -4  -7    1.21    0.22 
  -3  -4   7    1.08    0.20 
   3  -4  -7    1.35    0.18 
  -3  -4   7    1.56    0.28 
  -3  -4   7    1.45    0.16 
   3  -4  -7    1.59    0.22 
  -3  -4   7    1.18    0.20 
   3  -4  -7    1.41    0.26 
   3  -4  -7    1.38    0.19 
  -3  -4   7    1.15    0.19 
   3   4  -7    1.03    0.10 
  -3   4   7    1.00    0.17 
  -3   4   7    1.23    0.19 
  -3   4   7    1.07    0.15 
  -3   4   7    1.15    0.17 
  -3   4   7    1.16    0.18 
  -3   4   7    1.33    0.17 
  -3   4   7    1.32    0.21 
  -3   4   7    0.88    0.19 
   3   4  -7    1.13    0.14 
  -3   4   7    1.02    0.17 
   3   4  -7    1.28    0.14 
  -3   4   7    1.14    0.19 
  -3   4   7    1.05    0.19 
   3   4  -7    0.92    0.13 
  -3   4   7    1.21    0.18 
  -3   4   7    0.87    0.15 
   3   4  -7    0.88    0.16 
   3   4  -7    0.92    0.14 
  -3   4   7    1.12    0.19 
   3   4  -7    1.18    0.14 
  -3   4   7    1.08    0.19 
   2  -4  -7    1.43    0.21 
   2  -4  -7    1.25    0.27 
   2  -4  -7    1.26    0.21 
   2  -4  -7    1.34    0.17 
   2  -4  -7    0.84    0.16 
   2  -4  -7    1.50    0.18 
  -2  -4   7    1.20    0.15 
  -2   4   7    0.99    0.18 
  -2   4   7    0.93    0.18 
  -2   4   7    0.83    0.22 
  -2   4   7    0.83    0.16 
  -2   4   7    0.92    0.16 
  -2   4   7    1.11    0.20 
   2   4  -7    0.83    0.08 
  -2   4   7    1.00    0.21 
  -2   4   7    0.77    0.20 
  -2   4   7    1.04    0.19 
   1  -4  -7   11.06    0.49 
   1  -4  -7   10.23    0.46 
   1  -4  -7   10.32    0.45 
  -1  -4   7   10.53    0.42 
  -1  -4   7    9.51    0.48 
   1  -4  -7   10.64    0.47 
   1  -4  -7    9.64    0.49 
   1  -4  -7   10.98    0.63 
   1  -4  -7    9.76    0.57 
  -1   4   7   10.05    0.45 
  -1   4   7    9.63    0.46 
  -1   4   7   10.10    0.44 
  -1   4   7    9.85    0.44 
  -1   4   7    9.63    0.48 
  -1   4   7    9.97    0.51 
   0  -4  -7   26.58    1.13 
   0  -4  -7   28.32    1.02 
   0  -4  -7   26.64    1.09 
   0  -4  -7   27.98    1.34 
   0  -4  -7   30.17    1.45 
   0  -4  -7   27.42    1.07 
   0  -4  -7   29.10    1.00 
   0  -4  -7   28.01    1.07 
   0  -4  -7   28.80    1.08 
   0   4   7   27.22    0.95 
   0   4   7   27.04    1.02 
   0   4   7   27.00    0.98 
   0   4   7   25.66    1.05 
   0   4   7   25.92    0.85 
   0   4   7   25.46    0.97 
   0   4   7   26.16    1.17 
   0   4   7   22.79    0.98 
  -1  -4  -7    8.44    0.45 
  -1  -4  -7    9.88    0.42 
  -1  -4  -7   10.48    0.49 
  -1  -4  -7    9.58    0.40 
  -1  -4  -7    9.60    0.31 
  -1  -4  -7    9.47    0.45 
  -1  -4  -7    9.19    0.38 
  -1  -4  -7    9.04    0.44 
  -1  -4  -7    9.29    0.44 
   1   4   7    8.82    0.32 
   1   4   7    9.10    0.44 
   1   4   7    8.94    0.28 
   1   4   7    8.60    0.38 
   1   4   7    9.01    0.42 
   1   4   7    9.33    0.42 
   1   4   7    8.63    0.38 
   1   4   7    9.05    0.42 
   1   4   7    8.75    0.27 
   1   4   7    9.39    0.48 
   1   4   7    9.02    0.39 
  -2  -4  -7   21.77    0.76 
  -2  -4  -7   22.84    0.86 
  -2  -4  -7   21.64    0.70 
  -2  -4  -7   21.37    0.74 
  -2  -4  -7   23.10    0.75 
   2   4   7   20.38    0.71 
   2   4   7   19.61    0.73 
   2   4   7   20.52    0.53 
   2   4   7   21.07    0.60 
   2   4   7   21.14    0.83 
   2   4   7   20.19    0.81 
   2   4   7   20.50    0.59 
   2   4   7   21.07    0.70 
   2   4   7   20.58    0.78 
  -3  -4  -7    0.77    0.14 
  -3  -4  -7    0.71    0.20 
  -3  -4  -7    0.71    0.18 
  -3  -4  -7    0.30    0.10 
  -3  -4  -7    0.65    0.13 
   3   4   7    0.45    0.11 
   3   4   7    0.58    0.10 
   3   4   7    0.56    0.07 
   3   4   7    0.46    0.07 
   3   4   7    0.57    0.12 
   3   4   7    0.62    0.11 
   3   4   7    0.50    0.13 
  -4  -4  -7   12.55    0.48 
  -4  -4  -7   12.74    0.45 
  -4  -4  -7   12.95    0.32 
  -4  -4  -7   12.77    0.40 
  -4  -4  -7   12.66    0.43 
   4   4   7   12.46    0.44 
   4   4   7   12.27    0.33 
   4   4   7   12.22    0.43 
   4   4   7   12.44    0.44 
   4   4   7   12.37    0.44 
  -5  -4  -7    4.48    0.21 
  -5  -4  -7    3.90    0.20 
  -5  -4  -7    4.36    0.18 
   5   4   7    4.12    0.19 
   5   4   7    4.52    0.19 
   5   4   7    4.20    0.12 
  -6  -5   7    3.64    0.15 
   6  -5  -7    3.80    0.16 
  -6  -5   7    3.52    0.13 
  -6   5   7    3.28    0.15 
  -6   5   7    3.32    0.15 
   6   5  -7    3.47    0.12 
   6   5  -7    3.33    0.14 
  -6   5   7    3.60    0.14 
   6   5  -7    3.09    0.14 
   6   5  -7    3.02    0.15 
   6   5  -7    3.32    0.15 
  -6   5   7    3.57    0.15 
  -5  -5   7    3.76    0.18 
   5  -5  -7    3.92    0.18 
   5   5  -7    3.42    0.19 
  -5   5   7    3.94    0.18 
   5   5  -7    3.35    0.17 
  -5   5   7    3.83    0.16 
   5   5  -7    3.43    0.16 
  -5   5   7    3.85    0.18 
  -5   5   7    3.40    0.17 
   5   5  -7    3.70    0.18 
   5   5  -7    3.49    0.16 
  -5   5   7    3.80    0.19 
  -4  -5   7    7.47    0.48 
   4  -5  -7    8.25    0.30 
   4  -5  -7    7.48    0.48 
  -4  -5   7    7.97    0.30 
  -4   5   7    7.10    0.29 
  -4   5   7    7.30    0.30 
  -4   5   7    7.91    0.28 
  -4   5   7    6.87    0.31 
  -4   5   7    7.30    0.31 
  -4   5   7    7.43    0.30 
   4   5  -7    7.70    0.26 
   4   5  -7    7.08    0.28 
   4   5  -7    7.62    0.28 
   4   5  -7    7.39    0.27 
  -4   5   7    7.53    0.28 
  -4   5   7    7.20    0.22 
   3  -5  -7    0.55    0.22 
   3  -5  -7    0.31    0.08 
   3  -5  -7    0.57    0.16 
  -3   5   7    0.12    0.10 
  -3   5   7    0.45    0.07 
   3   5  -7    0.47    0.10 
  -3   5   7    0.44    0.11 
  -3   5   7    0.19    0.09 
  -3   5   7    0.39    0.10 
  -3   5   7    0.37    0.09 
   3   5  -7    0.27    0.07 
  -3   5   7    0.43    0.10 
   3   5  -7    0.30    0.08 
  -3   5   7    0.71    0.14 
  -3   5   7    0.59    0.15 
   3   5  -7    0.48    0.08 
  -3   5   7    0.30    0.08 
  -3   5   7    0.51    0.11 
  -3   5   7    0.44    0.07 
   2  -5  -7    5.45    0.29 
   2  -5  -7    5.98    0.42 
   2  -5  -7    5.42    0.25 
   2   5  -7    5.68    0.22 
  -2   5   7    4.85    0.26 
  -2   5   7    5.46    0.29 
  -2   5   7    5.37    0.25 
  -2   5   7    5.13    0.23 
  -2   5   7    5.15    0.27 
  -2   5   7    5.27    0.25 
  -2   5   7    5.10    0.26 
   2   5  -7    5.46    0.23 
  -2   5   7    5.42    0.22 
  -2   5   7    4.89    0.28 
  -2   5   7    5.23    0.28 
  -2   5   7    4.68    0.26 
  -2   5   7    5.38    0.18 
   2   5  -7    5.71    0.19 
  -2   5   7    5.28    0.26 
  -2   5   7    5.11    0.19 
  -2   5   7    5.46    0.31 
   1  -5  -7   15.18    0.53 
   1  -5  -7   15.88    0.66 
   1  -5  -7   15.53    0.57 
   1  -5  -7   14.87    0.61 
   1  -5  -7   15.99    0.86 
   1  -5  -7   15.66    0.61 
  -1   5   7   14.61    0.54 
  -1   5   7   14.69    0.42 
  -1   5   7   14.31    0.50 
  -1   5   7   15.54    0.53 
   1   5  -7   14.53    0.42 
  -1   5   7   15.23    0.59 
  -1   5   7   14.77    0.55 
  -1   5   7   14.05    0.51 
  -1   5   7   14.10    0.64 
  -1   5   7   14.11    0.46 
  -1   5   7   15.00    0.45 
  -1   5   7   14.16    0.58 
  -1   5   7   15.14    0.60 
  -1   5   7   14.74    0.44 
   0  -5  -7   21.64    0.76 
   0  -5  -7   22.16    0.82 
   0  -5  -7   22.01    0.81 
   0  -5  -7   21.30    0.72 
   0  -5  -7   21.67    0.87 
   0  -5  -7   22.30    0.65 
   0  -5  -7   24.24    1.17 
   0   5   7   21.97    0.79 
   0   5   7   21.85    0.71 
   0   5   7   21.24    0.83 
   0   5   7   22.13    0.71 
   0   5   7   20.37    0.89 
   0   5   7   21.03    0.64 
   0   5   7   20.87    0.61 
   0   5   7   22.06    0.86 
   0   5   7   22.29    0.76 
   0   5   7   21.86    0.82 
   0   5   7   22.19    0.63 
   0   5   7   21.99    0.73 
  -1  -5  -7    0.89    0.19 
  -1  -5  -7    1.07    0.11 
  -1  -5  -7    0.79    0.19 
  -1  -5  -7    0.70    0.15 
  -1  -5  -7    1.03    0.17 
  -1  -5  -7    1.04    0.27 
   1   5   7    1.23    0.18 
   1   5   7    1.12    0.10 
   1   5   7    0.73    0.18 
   1   5   7    0.82    0.16 
   1   5   7    0.81    0.14 
   1   5   7    1.02    0.16 
   1   5   7    0.60    0.12 
   1   5   7    0.95    0.18 
   1   5   7    1.01    0.17 
  -2  -5  -7    8.67    0.34 
  -2  -5  -7    8.47    0.34 
  -2  -5  -7    8.68    0.34 
  -2  -5  -7    8.05    0.32 
   2   5   7    8.40    0.32 
   2   5   7    7.75    0.32 
   2   5   7    8.64    0.27 
   2   5   7    7.93    0.36 
   2   5   7    6.76    0.35 
   2   5   7    7.80    0.38 
   2   5   7    8.45    0.38 
   2   5   7    8.42    0.34 
  -3  -5  -7    1.42    0.14 
  -3  -5  -7    1.27    0.11 
  -3  -5  -7    1.47    0.15 
  -3  -5  -7    1.53    0.13 
   3   5   7    1.37    0.13 
   3   5   7    1.17    0.14 
   3   5   7    1.55    0.15 
  -4  -5  -7   20.38    0.61 
  -4  -5  -7   18.55    0.62 
  -4  -5  -7   19.83    0.58 
   4   5   7   16.75    0.61 
   4   5   7   19.27    0.57 
   4  -6  -7    0.13    0.04 
  -4  -6   7    0.06    0.06 
  -4   6   7    0.12    0.03 
   4   6  -7    0.19    0.04 
  -4   6   7    0.14    0.04 
  -4   6   7    0.11    0.05 
   4   6  -7    0.16    0.05 
   4   6  -7    0.15    0.05 
  -4   6   7    0.03    0.06 
   3  -6  -7    7.29    0.27 
  -3   6   7    7.15    0.26 
  -3   6   7    7.08    0.25 
  -3   6   7    7.31    0.27 
   3   6  -7    7.32    0.26 
  -3   6   7    6.85    0.24 
  -3   6   7    7.18    0.25 
   3   6  -7    7.22    0.25 
   3   6  -7    7.06    0.21 
  -3   6   7    7.26    0.27 
   2  -6  -7    6.87    0.26 
   2  -6  -7    7.88    0.28 
  -2   6   7    7.68    0.29 
   2   6  -7    7.37    0.26 
  -2   6   7    7.79    0.29 
  -2   6   7    7.44    0.24 
  -2   6   7    7.90    0.26 
  -2   6   7    7.18    0.28 
  -2   6   7    7.42    0.27 
   1  -6  -7   13.58    0.40 
   1  -6  -7   12.49    0.73 
   1  -6  -7   14.01    0.45 
  -1   6   7   12.96    0.38 
  -1   6   7   13.29    0.46 
  -1   6   7   13.61    0.41 
  -1   6   7   14.22    0.45 
  -1   6   7   12.50    0.46 
  -1   6   7   13.55    0.37 
  -1   6   7   13.23    0.44 
  -1   6   7   13.28    0.43 
   0  -6  -7    2.50    0.12 
   0  -6  -7    2.70    0.17 
   0  -6  -7    2.43    0.14 
   0   6   7    2.29    0.14 
   0   6   7    2.30    0.16 
   0   6   7    2.24    0.12 
   0   6   7    2.32    0.15 
   0   6   7    2.27    0.15 
   0   6   7    2.20    0.17 
   0   6   7    2.36    0.11 
   0   6   7    2.74    0.15 
  -1  -6  -7    1.42    0.09 
  -1  -6  -7    1.24    0.15 
   1   6   7    1.31    0.13 
   1   6   7    1.40    0.13 
   1   6   7    1.46    0.11 
   1   6   7    1.30    0.07 
   1   6   7    1.20    0.14 
   1   6   7    1.36    0.08 
   1   6   7    1.31    0.10 
  -2  -6  -7    0.55    0.10 
  -2  -6  -7    1.00    0.10 
  -2  -6  -7    0.98    0.12 
   2   6   7    0.80    0.11 
   2   6   7    0.83    0.08 
   2   6   7    0.90    0.11 
   2   6   7    0.81    0.06 
   2   6   7    0.74    0.08 
   2   6   7    0.93    0.11 
  -8   0   8   12.74    0.42 
   8   0  -8   11.60    0.32 
   8   0  -8   12.09    0.43 
  -8   0   8   12.19    0.44 
  -8   0   8   12.37    0.46 
   8   0  -8   12.40    0.40 
   8   0  -8   12.55    0.42 
  -7   0   8    2.15    0.25 
  -7   0   8    2.10    0.11 
  -7   0   8    2.37    0.14 
  -7   0   8    2.01    0.15 
   7   0  -8    1.95    0.13 
  -7   0   8    2.50    0.21 
  -7   0   8    1.71    0.21 
  -7   0   8    2.45    0.24 
   7   0  -8    1.96    0.18 
  -7   0   8    2.57    0.22 
   7   0  -8    1.80    0.17 
   7   0  -8    2.12    0.19 
   7   0  -8    2.22    0.17 
   7   0  -8    2.10    0.19 
  -7   0   8    2.05    0.21 
  -6   0   8    5.94    0.31 
  -6   0   8    6.32    0.28 
  -6   0   8    5.99    0.33 
   6   0  -8    6.13    0.30 
   6   0  -8    6.02    0.28 
   6   0  -8    6.13    0.29 
  -6   0   8    5.68    0.34 
  -6   0   8    6.23    0.22 
  -6   0   8    5.96    0.31 
  -6   0   8    5.60    0.30 
   6   0  -8    6.37    0.33 
  -6   0   8    5.55    0.28 
   6   0  -8    6.28    0.33 
   6   0  -8    6.04    0.32 
   6   0  -8    6.20    0.27 
  -6   0   8    6.05    0.35 
  -6   0   8    5.73    0.33 
  -6   0   8    5.97    0.27 
   6   0  -8    6.30    0.23 
  -5   0   8   29.99    1.01 
   5   0  -8   30.32    1.10 
   5   0  -8   30.64    1.01 
  -5   0   8   31.97    1.18 
   5   0  -8   31.89    1.16 
   5   0  -8   30.24    0.89 
  -5   0   8   30.75    1.11 
   5   0  -8   30.56    1.17 
  -5   0   8   30.43    0.89 
  -5   0   8   29.98    1.11 
  -5   0   8   32.13    1.16 
   4   0  -8   14.41    0.58 
  -4   0   8   14.99    0.59 
  -4   0   8   14.02    0.52 
  -4   0   8   15.75    0.63 
   4   0  -8   14.31    0.92 
  -4   0   8   14.74    0.62 
  -4   0   8   15.39    0.82 
   4   0  -8   15.87    0.87 
   4   0  -8   15.07    0.73 
   4   0  -8   15.69    0.61 
   4   0  -8   15.35    0.45 
  -4   0   8   13.74    0.78 
   4   0  -8   15.40    0.60 
   4   0  -8   14.01    0.52 
  -4   0   8   15.57    0.61 
  -4   0   8   15.44    0.64 
  -4   0   8   12.70    0.73 
  -3   0   8    0.28    0.14 
  -3   0   8    0.36    0.15 
   3   0  -8    0.57    0.25 
   3   0  -8    0.56    0.12 
   3   0  -8    0.53    0.17 
   3   0  -8    0.42    0.12 
  -3   0   8    0.32    0.13 
  -3   0   8    0.37    0.10 
  -3   0   8    0.36    0.17 
   3   0  -8    0.63    0.15 
  -3   0   8    0.09    0.15 
   3   0  -8    0.17    0.08 
   3   0  -8    0.26    0.15 
   3   0  -8    0.22    0.10 
  -3   0   8    0.16    0.13 
  -3   0   8    0.27    0.20 
  -3   0   8    0.37    0.13 
   3   0  -8    0.38    0.06 
  -2   0   8    0.76    0.16 
  -2   0   8    0.67    0.14 
   2   0  -8    0.70    0.21 
   2   0  -8    0.74    0.13 
  -2   0   8    0.75    0.17 
  -2   0   8    0.73    0.18 
  -2   0   8    0.72    0.16 
   2   0  -8    0.46    0.15 
   2   0  -8    0.75    0.14 
   2   0  -8    0.48    0.08 
   2   0  -8    0.84    0.13 
  -2   0   8    0.74    0.17 
  -2   0   8    1.03    0.16 
   2   0  -8    0.57    0.19 
  -2   0   8    0.93    0.15 
  -2   0   8    0.83    0.18 
   1   0  -8    6.79    0.45 
  -1   0   8    6.76    0.32 
  -1   0   8    6.53    0.30 
  -1   0   8    7.06    0.34 
  -1   0   8    6.73    0.32 
  -1   0   8    6.74    0.41 
  -1   0   8    7.48    0.40 
   1   0  -8    6.81    0.30 
  -1   0   8    7.00    0.37 
  -1   0   8    6.75    0.40 
   1   0  -8    6.62    0.45 
   1   0  -8    6.69    0.33 
   1   0  -8    7.10    0.37 
   1   0  -8    6.26    0.31 
   1   0  -8    6.73    0.36 
   0   0   8   19.02    0.74 
   0   0   8   21.34    0.97 
   0   0  -8   20.48    0.81 
   0   0  -8   20.75    1.05 
   0   0   8   20.80    0.79 
   0   0   8   21.04    0.91 
   0   0  -8   19.78    1.09 
   0   0   8   20.53    0.83 
   0   0   8   19.74    0.73 
   0   0  -8   18.90    0.58 
   0   0  -8   19.53    0.72 
   0   0   8   20.03    0.78 
   0   0   8   18.89    0.88 
   0   0  -8   20.68    0.88 
   1   0   8   63.63    3.20 
  -1   0  -8   59.49    2.19 
   1   0   8   68.13    2.95 
   1   0   8   66.78    2.23 
  -1   0  -8   67.01    2.46 
  -1   0  -8   67.52    2.75 
   1   0   8   68.99    2.39 
  -1   0  -8   64.43    2.42 
  -1   0  -8   66.44    2.67 
  -1   0  -8   71.01    3.35 
   1   0   8   65.53    2.68 
  -1   0  -8   63.95    2.27 
  -1   0  -8   61.65    3.13 
   1   0   8   68.45    2.36 
   1   0   8   65.60    2.31 
   1   0   8   68.60    2.46 
  -1   0  -8   64.63    2.29 
  -2   0  -8    5.97    0.41 
   2   0   8    6.74    0.46 
  -2   0  -8    6.21    0.37 
   2   0   8    6.67    0.32 
   2   0   8    6.46    0.42 
   2   0   8    6.88    0.34 
   2   0   8    6.71    0.35 
   2   0   8    6.32    0.41 
  -2   0  -8    6.68    0.32 
   2   0   8    6.80    0.31 
  -2   0  -8    6.78    0.23 
   2   0   8    6.59    0.38 
  -2   0  -8    6.92    0.31 
   2   0   8    7.11    0.34 
   3   0   8    1.12    0.18 
   3   0   8    0.98    0.17 
   3   0   8    1.20    0.22 
   3   0   8    1.14    0.15 
   3   0   8    1.35    0.18 
  -3   0  -8    1.14    0.17 
  -3   0  -8    1.09    0.16 
   3   0   8    1.19    0.17 
   3   0   8    1.36    0.25 
  -4   0  -8   10.61    0.39 
  -4   0  -8   11.03    0.38 
   4   0   8   10.73    0.39 
   4   0   8   10.06    0.44 
  -4   0  -8   10.77    0.37 
  -4   0  -8   10.67    0.31 
  -4   0  -8   10.43    0.40 
   4   0   8    9.29    0.61 
  -4   0  -8   11.05    0.42 
  -5   0  -8    0.18    0.09 
   5   0   8    0.18    0.07 
  -5   0  -8    0.18    0.08 
  -5   0  -8    0.15    0.08 
   5   0   8    0.07    0.15 
  -5   0  -8    0.24    0.08 
  -5   0  -8    0.23    0.06 
  -6   0  -8    0.30    0.06 
  -6   0  -8    0.28    0.05 
  -6   0  -8    0.34    0.08 
   6   0   8    0.46    0.09 
   6   0   8    0.24    0.05 
  -8  -1   8   12.45    0.46 
   8  -1  -8   12.38    0.43 
   8  -1  -8   12.68    0.44 
   8  -1  -8   12.90    0.41 
  -8  -1   8   12.28    0.43 
  -8   1   8   12.56    0.43 
   8   1  -8   12.00    0.43 
  -8   1   8   12.50    0.41 
   8   1  -8   12.46    0.41 
  -8   1   8   12.57    0.37 
  -8   1   8   11.84    0.36 
   8   1  -8   12.49    0.42 
  -8   1   8   12.21    0.45 
   8   1  -8   12.25    0.31 
   8   1  -8   12.89    0.39 
  -8   1   8   12.34    0.34 
   7  -1  -8   15.88    0.54 
  -7  -1   8   14.44    0.54 
   7  -1  -8   14.82    0.44 
  -7  -1   8   15.09    0.40 
  -7  -1   8   15.41    0.61 
   7  -1  -8   15.08    0.55 
  -7  -1   8   15.59    0.54 
  -7  -1   8   15.79    0.52 
   7  -1  -8   15.05    0.53 
  -7  -1   8   15.00    0.49 
  -7   1   8   15.19    0.42 
   7   1  -8   15.43    0.40 
  -7   1   8   14.68    0.59 
  -7   1   8   15.73    0.53 
   7   1  -8   15.50    0.52 
   7   1  -8   15.28    0.52 
  -7   1   8   15.43    0.54 
  -7   1   8   14.58    0.61 
  -7   1   8   14.77    0.48 
   7   1  -8   14.97    0.53 
  -7   1   8   15.65    0.57 
   7   1  -8   15.77    0.49 
   7   1  -8   13.24    0.58 
   7   1  -8   15.63    0.53 
  -7   1   8   15.64    0.63 
  -7   1   8   15.08    0.61 
   6  -1  -8    5.31    0.31 
   6  -1  -8    5.65    0.32 
   6  -1  -8    5.29    0.20 
  -6  -1   8    5.28    0.26 
  -6  -1   8    5.81    0.29 
  -6  -1   8    5.84    0.34 
  -6  -1   8    5.15    0.23 
   6  -1  -8    5.33    0.31 
  -6  -1   8    5.11    0.28 
   6  -1  -8    5.14    0.28 
   6  -1  -8    6.10    0.31 
  -6  -1   8    5.07    0.30 
   6  -1  -8    5.35    0.31 
  -6  -1   8    5.30    0.19 
   6  -1  -8    5.44    0.27 
  -6  -1   8    5.59    0.29 
  -6   1   8    5.52    0.33 
   6   1  -8    5.71    0.32 
   6   1  -8    5.62    0.29 
  -6   1   8    5.47    0.26 
  -6   1   8    5.70    0.31 
  -6   1   8    5.48    0.21 
  -6   1   8    5.41    0.33 
   6   1  -8    5.63    0.25 
   6   1  -8    5.69    0.19 
   6   1  -8    5.59    0.27 
  -6   1   8    5.77    0.24 
  -6   1   8    5.18    0.33 
   6   1  -8    5.53    0.28 
  -6   1   8    5.45    0.30 
   6   1  -8    5.26    0.23 
   6   1  -8    5.40    0.25 
  -6   1   8    5.61    0.18 
  -6   1   8    5.39    0.32 
  -6   1   8    5.60    0.30 
   6   1  -8    4.37    0.30 
  -6   1   8    5.69    0.33 
  -6   1   8    5.47    0.36 
   6   1  -8    5.75    0.20 
   6   1  -8    5.70    0.26 
   5  -1  -8   12.46    0.55 
  -5  -1   8   12.89    0.54 
  -5  -1   8   12.99    0.54 
   5  -1  -8   11.55    0.55 
   5  -1  -8   12.09    0.51 
  -5  -1   8   12.35    0.71 
  -5  -1   8   13.02    0.73 
  -5  -1   8   13.03    0.56 
  -5  -1   8   12.45    0.58 
   5  -1  -8   12.16    0.46 
  -5  -1   8   12.37    0.56 
   5  -1  -8   12.02    0.54 
   5  -1  -8   13.25    0.55 
   5   1  -8   12.74    0.62 
  -5   1   8   12.18    0.44 
   5   1  -8   12.49    0.36 
  -5   1   8   11.82    0.50 
   5   1  -8   12.41    0.54 
  -5   1   8   11.81    0.50 
  -5   1   8   10.52    0.61 
   5   1  -8   12.97    0.50 
   5   1  -8   10.84    0.51 
   5   1  -8   11.22    0.75 
  -5   1   8   10.14    0.75 
   5   1  -8   12.32    0.56 
   5   1  -8   13.03    0.43 
  -5   1   8   12.02    0.53 
  -5   1   8   12.64    0.53 
  -5   1   8   12.09    0.37 
  -5   1   8   12.44    0.51 
   4  -1  -8   22.91    0.80 
  -4  -1   8   24.46    0.89 
   4  -1  -8   24.77    0.93 
   4  -1  -8   23.02    1.10 
   4  -1  -8   23.50    1.29 
   4  -1  -8   23.91    0.92 
   4  -1  -8   24.32    0.94 
  -4  -1   8   24.17    1.23 
  -4  -1   8   24.44    0.94 
  -4  -1   8   24.22    0.92 
  -4  -1   8   24.40    0.94 
  -4  -1   8   24.39    0.96 
  -4  -1   8   23.08    1.17 
   4   1  -8   22.63    0.74 
   4   1  -8   20.10    1.19 
  -4   1   8   23.00    0.87 
   4   1  -8   22.94    0.86 
  -4   1   8   22.93    0.67 
  -4   1   8   18.59    1.20 
  -4   1   8   22.26    0.83 
   4   1  -8   22.91    0.84 
   4   1  -8   23.21    0.63 
   4   1  -8   23.64    1.03 
  -4   1   8   22.17    0.75 
  -4   1   8   23.59    0.88 
   4   1  -8   22.17    1.25 
   4   1  -8   23.37    0.92 
   4   1  -8   23.24    0.89 
   4   1  -8   22.95    0.81 
  -3  -1   8    1.33    0.19 
   3  -1  -8    1.45    0.26 
  -3  -1   8    1.62    0.26 
  -3  -1   8    1.47    0.20 
  -3  -1   8    1.38    0.22 
  -3  -1   8    1.12    0.14 
  -3  -1   8    1.44    0.18 
   3  -1  -8    1.46    0.18 
  -3  -1   8    1.43    0.22 
   3  -1  -8    1.67    0.16 
   3  -1  -8    1.47    0.16 
  -3  -1   8    1.58    0.24 
   3  -1  -8    1.44    0.16 
   3   1  -8    1.52    0.17 
   3   1  -8    1.41    0.13 
   3   1  -8    1.20    0.15 
  -3   1   8    1.58    0.20 
   3   1  -8    1.32    0.18 
   3   1  -8    1.45    0.18 
  -3   1   8    1.27    0.23 
  -3   1   8    1.44    0.19 
  -3   1   8    1.54    0.16 
   3   1  -8    1.22    0.16 
  -3   1   8    1.41    0.27 
   3   1  -8    1.45    0.23 
  -3   1   8    1.61    0.20 
   3   1  -8    1.73    0.17 
   3   1  -8    1.18    0.17 
  -3   1   8    1.65    0.18 
   3   1  -8    1.46    0.24 
   2  -1  -8    2.84    0.21 
  -2  -1   8    3.00    0.27 
   2  -1  -8    2.72    0.29 
  -2  -1   8    3.53    0.26 
   2  -1  -8    2.68    0.15 
   2  -1  -8    2.89    0.25 
  -2  -1   8    2.63    0.25 
  -2  -1   8    2.89    0.21 
  -2  -1   8    3.00    0.20 
  -2  -1   8    2.79    0.24 
  -2  -1   8    3.07    0.22 
   2  -1  -8    3.10    0.32 
   2  -1  -8    3.06    0.20 
  -2  -1   8    2.74    0.17 
   2  -1  -8    3.02    0.20 
   2   1  -8    2.98    0.17 
   2   1  -8    2.81    0.20 
  -2   1   8    2.71    0.20 
  -2   1   8    2.83    0.33 
   2   1  -8    3.01    0.26 
  -2   1   8    2.84    0.21 
   2   1  -8    2.92    0.19 
   2   1  -8    3.10    0.20 
  -2   1   8    2.84    0.26 
  -2   1   8    2.75    0.26 
  -2   1   8    2.64    0.21 
  -2   1   8    2.74    0.22 
   2   1  -8    2.75    0.22 
   2   1  -8    2.50    0.27 
  -2   1   8    2.84    0.21 
  -2   1   8    2.59    0.26 
  -1  -1   8    2.62    0.24 
   1  -1  -8    2.71    0.13 
  -1  -1   8    2.80    0.24 
  -1  -1   8    2.70    0.23 
  -1  -1   8    2.43    0.19 
  -1  -1   8    2.61    0.19 
   1  -1  -8    2.26    0.27 
  -1  -1   8    2.40    0.22 
   1  -1  -8    2.75    0.23 
  -1  -1   8    2.59    0.19 
   1  -1  -8    2.57    0.18 
   1  -1  -8    2.63    0.19 
   1  -1  -8    2.89    0.29 
   1  -1  -8    2.57    0.20 
   1  -1  -8    2.58    0.18 
  -1  -1   8    2.77    0.17 
  -1   1   8    3.00    0.20 
   1   1  -8    2.37    0.19 
  -1   1   8    2.76    0.19 
  -1   1   8    2.29    0.20 
   1   1  -8    2.24    0.18 
  -1   1   8    2.74    0.21 
  -1   1   8    2.40    0.24 
   1   1  -8    2.38    0.23 
  -1   1   8    1.94    0.22 
   1   1  -8    2.43    0.23 
  -1   1   8    2.49    0.25 
   1   1  -8    2.23    0.17 
   1   1  -8    2.59    0.15 
   1   1  -8    2.38    0.20 
   1   1  -8    2.14    0.14 
  -1   1   8    2.23    0.19 
   0  -1   8   29.34    1.30 
   0  -1   8   27.05    1.05 
   0  -1  -8   30.13    1.24 
   0  -1   8   27.89    0.98 
   0  -1  -8   27.56    0.98 
   0  -1  -8   26.80    1.10 
   0  -1  -8   27.96    0.78 
   0  -1  -8   29.47    1.51 
   0  -1   8   27.40    1.04 
   0  -1  -8   28.93    1.04 
   0  -1   8   27.78    1.19 
   0  -1  -8   28.52    1.43 
   0  -1  -8   25.72    0.91 
   0  -1   8   24.70    1.17 
   0  -1   8   29.42    1.10 
   0   1  -8   27.81    1.15 
   0   1  -8   27.93    1.06 
   0   1  -8   28.42    1.42 
   0   1  -8   27.82    0.99 
   0   1   8   27.97    1.30 
   0   1   8   26.77    0.98 
   0   1   8   26.72    1.04 
   0   1  -8   26.44    0.98 
   0   1   8   27.87    1.03 
   0   1   8   26.00    1.03 
   0   1   8   27.23    1.05 
   0   1   8   27.79    1.20 
   0   1   8   28.23    1.19 
   1  -1   8   59.75    2.14 
  -1  -1  -8   54.18    2.54 
   1  -1   8   61.57    2.10 
  -1  -1  -8   64.37    2.91 
  -1  -1  -8   59.57    1.86 
   1  -1   8   60.96    2.67 
   1  -1   8   58.65    2.16 
   1  -1   8   63.10    2.24 
   1  -1   8   60.63    2.03 
  -1  -1  -8   59.81    2.45 
  -1  -1  -8   57.41    3.07 
  -1  -1  -8   59.18    2.10 
  -1  -1  -8   59.75    2.01 
  -1  -1  -8   61.26    2.26 
   1  -1   8   60.59    2.44 
  -1  -1  -8   58.05    2.21 
   1   1   8   62.21    2.46 
   1   1   8   60.40    2.18 
  -1   1  -8   55.80    2.21 
   1   1   8   59.87    2.24 
  -1   1  -8   59.66    2.04 
   1   1   8   59.72    2.24 
  -1   1  -8   63.35    2.40 
   1   1   8   60.40    2.15 
   1   1   8   61.59    2.68 
  -1   1  -8   58.31    2.07 
   1   1   8   56.30    2.91 
   1   1   8   58.13    2.03 
   2  -1   8    7.61    0.34 
  -2  -1  -8    7.92    0.44 
  -2  -1  -8    7.88    0.40 
   2  -1   8    7.77    0.46 
  -2  -1  -8    7.75    0.36 
  -2  -1  -8    8.52    0.31 
  -2  -1  -8    7.61    0.35 
   2  -1   8    8.14    0.37 
  -2  -1  -8    7.53    0.52 
   2  -1   8    7.39    0.38 
   2  -1   8    7.35    0.41 
  -2   1  -8    7.28    0.32 
   2   1   8    7.54    0.47 
   2   1   8    7.52    0.39 
  -2   1  -8    7.03    0.32 
   2   1   8    8.07    0.36 
  -2   1  -8    6.89    0.37 
   2   1   8    8.35    0.37 
   2   1   8    7.94    0.43 
   2   1   8    7.70    0.37 
   2   1   8    7.54    0.38 
   2   1   8    7.43    0.50 
   3  -1   8    4.38    0.22 
  -3  -1  -8    3.67    0.24 
  -3  -1  -8    3.28    0.23 
  -3  -1  -8    3.67    0.19 
  -3  -1  -8    3.66    0.22 
  -3  -1  -8    3.76    0.18 
  -3  -1  -8    3.52    0.21 
  -3  -1  -8    3.76    0.22 
  -3  -1  -8    3.63    0.24 
  -3  -1  -8    3.34    0.21 
  -3  -1  -8    3.50    0.21 
  -3  -1  -8    3.73    0.22 
  -3  -1  -8    3.70    0.23 
   3   1   8    3.58    0.21 
  -3   1  -8    3.99    0.18 
  -3   1  -8    3.90    0.19 
   3   1   8    3.62    0.36 
   3   1   8    3.86    0.26 
  -3   1  -8    4.06    0.20 
   3   1   8    3.44    0.27 
  -3   1  -8    3.77    0.19 
   3   1   8    3.78    0.25 
  -3   1  -8    3.88    0.18 
   3   1   8    3.99    0.27 
   3   1   8    3.34    0.33 
  -3   1  -8    3.78    0.21 
  -4  -1  -8   22.37    0.62 
  -4  -1  -8   23.83    0.78 
  -4  -1  -8   22.43    0.84 
  -4  -1  -8   22.42    0.71 
  -4  -1  -8   22.38    0.67 
  -4  -1  -8   22.60    0.73 
  -4  -1  -8   22.78    0.60 
  -4  -1  -8   22.61    0.75 
  -4  -1  -8   22.25    0.63 
  -4  -1  -8   21.83    0.76 
   4   1   8   20.60    0.82 
  -4   1  -8   22.70    0.65 
  -4   1  -8   22.36    0.73 
  -4   1  -8   22.25    0.72 
   4   1   8   22.20    1.16 
  -4   1  -8   22.16    0.67 
   4   1   8   22.59    0.73 
  -4   1  -8   21.92    0.70 
  -5  -1  -8    1.08    0.11 
  -5  -1  -8    1.34    0.15 
   5  -1   8    1.41    0.13 
  -5  -1  -8    1.13    0.16 
  -5  -1  -8    1.33    0.10 
  -5  -1  -8    1.38    0.16 
  -5  -1  -8    1.15    0.14 
  -5  -1  -8    1.32    0.14 
   5   1   8    0.99    0.12 
  -5   1  -8    1.30    0.13 
   5   1   8    1.23    0.23 
   5   1   8    1.12    0.12 
  -5   1  -8    1.26    0.11 
  -5   1  -8    1.33    0.13 
  -6  -1  -8    4.10    0.15 
  -6  -1  -8    3.58    0.17 
  -6  -1  -8    3.94    0.13 
  -6  -1  -8    3.82    0.15 
  -6  -1  -8    3.99    0.17 
   6   1   8    3.87    0.13 
   6   1   8    3.54    0.16 
  -6   1  -8    3.28    0.16 
  -8  -2   8   10.59    0.27 
  -8  -2   8   11.12    0.34 
  -8  -2   8   11.12    0.37 
  -8  -2   8    9.99    0.38 
   8  -2  -8   11.55    0.38 
  -8   2   8   10.45    0.36 
  -8   2   8   11.07    0.30 
   8   2  -8   10.66    0.35 
   8   2  -8   10.40    0.37 
  -8   2   8   11.10    0.36 
  -8   2   8   10.90    0.35 
  -8   2   8   11.23    0.33 
   8   2  -8   10.73    0.36 
  -8   2   8   10.40    0.37 
   8   2  -8    9.34    0.38 
   7  -2  -8   12.29    0.73 
   7  -2  -8   14.13    0.41 
  -7  -2   8   13.85    0.50 
  -7  -2   8   14.07    0.48 
  -7  -2   8   13.84    0.46 
   7  -2  -8   14.37    0.50 
   7  -2  -8   14.05    0.46 
   7   2  -8   13.81    0.48 
  -7   2   8   11.86    0.54 
  -7   2   8   13.15    0.55 
  -7   2   8   14.21    0.46 
  -7   2   8   13.30    0.43 
   7   2  -8   13.26    0.57 
  -7   2   8   14.22    0.41 
  -7   2   8   13.16    0.48 
  -7   2   8   14.20    0.38 
   7   2  -8   13.22    0.45 
   7   2  -8   14.37    0.42 
   7   2  -8   14.02    0.47 
  -7   2   8   14.16    0.51 
  -7   2   8   13.65    0.39 
  -7   2   8   14.28    0.49 
   7   2  -8   13.45    0.50 
   6  -2  -8   14.03    0.57 
  -6  -2   8   14.86    0.60 
   6  -2  -8   15.05    0.54 
  -6  -2   8   14.39    0.60 
  -6  -2   8   14.82    0.54 
   6  -2  -8   13.46    0.79 
   6  -2  -8   14.24    0.50 
   6  -2  -8   14.46    0.44 
   6  -2  -8   14.69    0.61 
  -6  -2   8   14.88    0.52 
  -6  -2   8   14.84    0.43 
   6   2  -8   13.92    0.57 
   6   2  -8   15.02    0.65 
  -6   2   8   14.45    0.43 
   6   2  -8   14.75    0.51 
  -6   2   8   14.16    0.57 
   6   2  -8   14.72    0.58 
   6   2  -8   14.26    0.62 
   6   2  -8   14.84    0.42 
  -6   2   8   14.32    0.53 
   6   2  -8   14.73    0.54 
  -6   2   8   14.49    0.59 
   6   2  -8   15.07    0.36 
   6   2  -8   14.71    0.46 
   6   2  -8   15.14    0.45 
  -6   2   8   13.96    0.60 
  -6   2   8   14.20    0.65 
   6   2  -8   14.33    0.52 
  -6   2   8   14.40    0.51 
  -6   2   8   14.68    0.56 
   6   2  -8   14.28    0.50 
  -6   2   8   14.60    0.47 
  -6   2   8   16.12    0.62 
   6   2  -8   14.04    0.60 
  -5  -2   8   23.90    0.95 
   5  -2  -8   21.76    0.92 
  -5  -2   8   23.18    0.68 
   5  -2  -8   23.98    1.21 
   5  -2  -8   23.31    0.81 
  -5  -2   8   23.45    0.93 
  -5  -2   8   22.28    0.90 
   5  -2  -8   24.53    0.92 
  -5  -2   8   22.36    0.76 
  -5  -2   8   25.14    1.22 
   5  -2  -8   22.36    0.90 
   5  -2  -8   23.90    0.96 
   5  -2  -8   23.74    0.91 
   5  -2  -8   22.09    0.76 
   5  -2  -8   24.09    0.86 
   5  -2  -8   22.58    0.68 
  -5  -2   8   23.07    0.80 
  -5  -2   8   24.58    0.89 
  -5  -2   8   21.94    0.92 
   5   2  -8   22.57    0.55 
  -5   2   8   21.70    0.93 
   5   2  -8   23.02    0.78 
   5   2  -8   22.74    0.84 
   5   2  -8   23.68    0.82 
  -5   2   8   23.10    0.83 
  -5   2   8   22.11    0.68 
  -5   2   8   22.85    0.86 
  -5   2   8   21.91    0.89 
  -5   2   8   22.76    0.73 
  -5   2   8   22.18    0.75 
  -5   2   8   22.40    0.76 
   5   2  -8   20.90    0.68 
   5   2  -8   22.22    0.66 
   5   2  -8   22.10    0.63 
   5   2  -8   23.37    0.89 
   5   2  -8   22.85    0.92 
   5   2  -8   22.69    0.74 
  -5   2   8   22.41    0.80 
  -5   2   8   22.37    0.64 
   5   2  -8   21.54    0.73 
   5   2  -8   22.06    0.72 
  -5   2   8   22.10    0.55 
  -5   2   8   21.92    0.85 
  -4  -2   8    9.58    0.43 
  -4  -2   8    9.29    0.45 
  -4  -2   8    8.94    0.57 
   4  -2  -8    9.12    0.57 
   4  -2  -8    7.72    0.51 
  -4  -2   8    8.74    0.55 
   4  -2  -8    9.24    0.40 
   4  -2  -8    9.43    0.43 
   4  -2  -8    8.96    0.43 
  -4  -2   8    8.95    0.45 
   4  -2  -8    9.78    0.46 
  -4  -2   8    8.92    0.50 
   4  -2  -8    9.17    0.43 
   4  -2  -8    9.18    0.42 
  -4  -2   8    9.57    0.45 
   4   2  -8    9.03    0.40 
   4   2  -8    9.55    0.44 
  -4   2   8    9.00    0.43 
  -4   2   8    9.53    0.62 
  -4   2   8    9.33    0.50 
  -4   2   8    9.19    0.42 
  -4   2   8    9.03    0.47 
  -4   2   8    8.85    0.42 
  -4   2   8    9.24    0.28 
  -4   2   8    9.15    0.44 
   4   2  -8    8.86    0.45 
   4   2  -8    9.17    0.41 
   4   2  -8    8.87    0.58 
  -4   2   8    8.89    0.42 
   4   2  -8    8.78    0.38 
  -4   2   8    8.90    0.35 
   4   2  -8    8.54    0.47 
  -3  -2   8    1.45    0.23 
   3  -2  -8    0.94    0.28 
  -3  -2   8    1.14    0.22 
   3  -2  -8    1.12    0.20 
   3  -2  -8    1.12    0.18 
   3  -2  -8    1.07    0.17 
   3  -2  -8    1.39    0.19 
  -3  -2   8    1.17    0.19 
  -3  -2   8    0.74    0.23 
   3  -2  -8    1.22    0.23 
  -3  -2   8    1.24    0.19 
   3  -2  -8    1.27    0.16 
  -3  -2   8    1.25    0.18 
   3  -2  -8    1.08    0.17 
  -3  -2   8    0.93    0.14 
  -3  -2   8    0.79    0.25 
   3  -2  -8    1.20    0.20 
  -3   2   8    0.98    0.20 
   3   2  -8    1.27    0.13 
  -3   2   8    1.30    0.22 
  -3   2   8    0.92    0.23 
   3   2  -8    0.96    0.15 
   3   2  -8    1.11    0.15 
   3   2  -8    1.04    0.19 
   3   2  -8    1.06    0.17 
   3   2  -8    1.24    0.19 
  -3   2   8    0.97    0.12 
   3   2  -8    0.98    0.16 
  -3   2   8    1.17    0.26 
   3   2  -8    0.95    0.21 
  -3   2   8    1.14    0.21 
  -3   2   8    1.08    0.29 
  -3   2   8    1.23    0.18 
   3   2  -8    1.25    0.18 
  -3   2   8    1.06    0.19 
  -3   2   8    0.78    0.15 
  -2  -2   8   34.84    1.30 
   2  -2  -8   28.70    1.67 
   2  -2  -8   32.98    1.22 
   2  -2  -8   31.01    1.06 
   2  -2  -8   33.54    1.22 
   2  -2  -8   32.95    1.24 
  -2  -2   8   33.46    1.18 
   2  -2  -8   29.03    1.40 
  -2  -2   8   34.67    1.24 
  -2  -2   8   34.32    1.16 
   2  -2  -8   33.68    1.23 
  -2  -2   8   31.79    1.41 
  -2  -2   8   34.70    1.53 
  -2  -2   8   34.47    1.23 
  -2   2   8   33.98    1.66 
   2   2  -8   28.68    1.64 
   2   2  -8   33.62    1.33 
   2   2  -8   31.82    1.19 
  -2   2   8   32.86    1.20 
  -2   2   8   31.92    1.19 
   2   2  -8   32.63    1.13 
  -2   2   8   31.01    1.03 
  -2   2   8   31.66    1.13 
   2   2  -8   31.68    0.87 
   2   2  -8   32.78    1.22 
   2   2  -8   32.12    1.14 
  -2   2   8   30.41    0.92 
   1  -2  -8    6.59    0.32 
   1  -2  -8    6.35    0.33 
  -1  -2   8    6.41    0.40 
  -1  -2   8    6.61    0.32 
   1  -2  -8    7.31    0.51 
  -1  -2   8    6.88    0.36 
  -1  -2   8    6.44    0.30 
   1  -2  -8    5.96    0.27 
  -1  -2   8    5.51    0.30 
   1  -2  -8    6.42    0.32 
  -1  -2   8    6.63    0.39 
  -1  -2   8    6.74    0.29 
  -1   2   8    6.24    0.33 
  -1   2   8    6.68    0.41 
  -1   2   8    6.44    0.34 
  -1   2   8    6.47    0.49 
  -1   2   8    6.48    0.33 
  -1   2   8    6.05    0.34 
   1   2  -8    6.09    0.28 
   1   2  -8    5.77    0.32 
   1   2  -8    6.21    0.27 
  -1   2   8    5.74    0.28 
   1   2  -8    6.39    0.30 
   0  -2  -8    0.70    0.16 
   0  -2  -8    0.75    0.25 
   0  -2  -8    0.65    0.17 
   0  -2  -8    0.64    0.25 
   0  -2   8    0.95    0.11 
   0  -2  -8    0.66    0.16 
   0  -2   8    0.81    0.17 
   0  -2  -8    0.95    0.14 
   0  -2  -8    0.79    0.11 
   0  -2  -8    0.87    0.19 
   0   2   8    0.49    0.14 
   0   2  -8    0.74    0.12 
   0   2  -8    0.76    0.12 
   0   2   8    0.75    0.20 
   0   2   8    0.69    0.17 
   0   2   8    1.09    0.17 
   0   2   8    0.75    0.17 
   0   2  -8    0.75    0.11 
   0   2   8    0.77    0.19 
   0   2   8    0.66    0.16 
   0   2   8    0.95    0.15 
   0   2   8    0.75    0.21 
  -1  -2  -8   15.10    0.69 
  -1  -2  -8   13.82    0.59 
   1  -2   8   12.56    0.59 
  -1  -2  -8   14.27    0.57 
  -1  -2  -8   12.81    0.48 
  -1  -2  -8   14.36    0.62 
  -1  -2  -8   12.53    0.82 
  -1  -2  -8   14.10    0.83 
  -1  -2  -8   14.18    0.41 
  -1  -2  -8   13.91    0.54 
   1   2   8   13.78    0.57 
   1   2   8   13.92    0.60 
   1   2   8   13.85    0.57 
   1   2   8   13.82    0.58 
   1   2   8   10.75    0.65 
   1   2   8   13.76    0.72 
   1   2   8   12.98    0.76 
  -1   2  -8   13.13    0.46 
   1   2   8   13.84    0.54 
   1   2   8   13.41    0.57 
  -2  -2  -8   71.92    2.50 
  -2  -2  -8   72.18    2.40 
   2  -2   8   73.79    2.49 
  -2  -2  -8   66.78    3.03 
  -2  -2  -8   68.67    3.68 
  -2  -2  -8   71.99    2.55 
  -2  -2  -8   74.46    2.22 
   2   2   8   68.55    2.39 
   2   2   8   72.89    2.53 
   2   2   8   71.86    2.57 
   2   2   8   70.93    2.54 
   2   2   8   62.72    3.14 
   2   2   8   71.47    2.64 
   2   2   8   73.03    3.43 
  -3  -2  -8   67.49    2.12 
  -3  -2  -8   69.02    2.40 
  -3  -2  -8   67.59    2.09 
  -3  -2  -8   68.85    1.84 
   3  -2   8   65.96    2.39 
  -3  -2  -8   68.84    2.22 
  -3  -2  -8   74.01    2.30 
  -3  -2  -8   68.85    1.89 
  -3  -2  -8   64.82    2.07 
   3   2   8   66.56    2.03 
   3   2   8   68.29    2.11 
   3   2   8   65.72    1.81 
   3   2   8   62.62    2.37 
   3   2   8   56.94    2.40 
   3   2   8   67.53    2.47 
  -3   2  -8   64.61    2.02 
   3   2   8   69.71    2.24 
  -3   2  -8   66.04    2.02 
   3   2   8   62.12    2.36 
  -3   2  -8   64.89    2.06 
   3   2   8   68.26    3.20 
  -3   2  -8   66.28    1.82 
  -4  -2  -8    6.39    0.29 
  -4  -2  -8    7.52    0.25 
  -4  -2  -8    7.65    0.27 
  -4  -2  -8    6.76    0.32 
  -4  -2  -8    7.22    0.31 
  -4  -2  -8    7.22    0.32 
  -4  -2  -8    7.28    0.25 
   4   2   8    7.07    0.28 
  -4   2  -8    7.04    0.28 
  -4   2  -8    7.17    0.27 
  -4   2  -8    7.13    0.27 
   4   2   8    7.19    0.31 
   4   2   8    7.54    0.34 
  -4   2  -8    7.13    0.23 
   4   2   8    6.44    0.47 
   4   2   8    6.97    0.25 
  -5  -2  -8   10.74    0.34 
  -5  -2  -8   10.31    0.32 
  -5  -2  -8   11.37    0.41 
  -5  -2  -8   10.91    0.39 
  -5  -2  -8   10.80    0.30 
  -5  -2  -8   11.40    0.39 
  -5  -2  -8   10.80    0.32 
   5   2   8   10.37    0.39 
   5   2   8   10.58    0.31 
  -5   2  -8   10.62    0.35 
  -5   2  -8    9.85    0.35 
   7  -3  -8   18.52    0.61 
  -7  -3   8   19.27    0.62 
   7  -3  -8   18.93    0.54 
   7  -3  -8   18.69    0.64 
  -7  -3   8   19.30    0.59 
  -7  -3   8   19.36    0.64 
  -7   3   8   19.16    0.62 
  -7   3   8   19.27    0.61 
  -7   3   8   19.50    0.52 
   7   3  -8   19.48    0.65 
   7   3  -8   18.92    0.60 
   7   3  -8   19.53    0.62 
   7   3  -8   18.83    0.54 
   7   3  -8   19.12    0.51 
  -7   3   8   18.55    0.59 
  -7   3   8   18.19    0.64 
  -7   3   8   19.17    0.53 
  -7   3   8   18.63    0.63 
   6  -3  -8   19.88    1.04 
  -6  -3   8   20.58    0.58 
   6  -3  -8   18.44    0.75 
  -6  -3   8   20.91    0.70 
   6  -3  -8   20.11    0.58 
   6  -3  -8   20.45    0.66 
   6  -3  -8   20.22    0.70 
  -6  -3   8   20.36    0.65 
  -6  -3   8   19.56    1.04 
   6   3  -8   19.87    0.58 
  -6   3   8   19.35    0.76 
  -6   3   8   19.98    0.55 
  -6   3   8   19.68    0.56 
  -6   3   8   18.99    0.75 
  -6   3   8   19.06    0.69 
  -6   3   8   18.81    0.77 
   6   3  -8   20.33    0.58 
   6   3  -8   20.44    0.64 
   6   3  -8   20.94    0.66 
   6   3  -8   21.06    0.79 
   6   3  -8   21.05    0.69 
   6   3  -8   20.01    0.75 
  -6   3   8   19.06    0.56 
  -6   3   8   19.55    0.76 
  -6   3   8   19.33    0.60 
  -6   3   8   19.15    0.66 
  -6   3   8   20.02    0.67 
   6   3  -8   20.53    0.72 
   6   3  -8   20.50    0.56 
   6   3  -8   20.49    0.65 
  -6   3   8   20.80    0.53 
   5  -3  -8    6.87    0.36 
  -5  -3   8    6.90    0.39 
   5  -3  -8    7.36    0.29 
   5  -3  -8    7.05    0.34 
   5  -3  -8    7.62    0.38 
  -5  -3   8    7.08    0.33 
   5  -3  -8    7.76    0.47 
   5  -3  -8    7.32    0.26 
  -5  -3   8    6.70    0.38 
  -5  -3   8    7.11    0.39 
   5  -3  -8    7.13    0.34 
   5  -3  -8    7.15    0.40 
  -5  -3   8    6.95    0.37 
  -5  -3   8    7.05    0.49 
  -5   3   8    6.84    0.28 
  -5   3   8    6.76    0.31 
  -5   3   8    7.45    0.35 
  -5   3   8    7.53    0.25 
   5   3  -8    6.68    0.23 
   5   3  -8    6.86    0.36 
   5   3  -8    6.38    0.25 
   5   3  -8    6.62    0.30 
   5   3  -8    6.87    0.36 
   5   3  -8    6.54    0.33 
   5   3  -8    7.07    0.32 
   5   3  -8    6.82    0.30 
   5   3  -8    6.76    0.29 
  -5   3   8    6.70    0.29 
  -5   3   8    6.68    0.35 
  -5   3   8    6.91    0.31 
   5   3  -8    6.55    0.25 
  -5   3   8    5.94    0.30 
  -5   3   8    6.85    0.25 
  -5   3   8    7.36    0.38 
  -5   3   8    6.90    0.26 
  -5   3   8    7.23    0.35 
   5   3  -8    6.74    0.29 
   5   3  -8    6.63    0.25 
  -5   3   8    6.61    0.32 
   5   3  -8    6.52    0.27 
   4  -3  -8    0.97    0.14 
  -4  -3   8    0.98    0.15 
   4  -3  -8    1.16    0.19 
  -4  -3   8    0.83    0.21 
  -4  -3   8    1.32    0.22 
   4  -3  -8    1.02    0.13 
   4  -3  -8    1.30    0.20 
  -4  -3   8    0.71    0.16 
   4  -3  -8    1.53    0.22 
  -4  -3   8    0.96    0.21 
   4  -3  -8    1.05    0.21 
   4  -3  -8    1.09    0.17 
   4  -3  -8    1.17    0.25 
  -4  -3   8    1.25    0.20 
   4  -3  -8    1.29    0.21 
  -4  -3   8    1.15    0.27 
   4   3  -8    0.78    0.16 
  -4   3   8    0.89    0.20 
   4   3  -8    0.89    0.17 
  -4   3   8    1.12    0.20 
  -4   3   8    0.97    0.18 
  -4   3   8    1.01    0.20 
  -4   3   8    1.20    0.20 
   4   3  -8    1.09    0.18 
   4   3  -8    0.74    0.11 
   4   3  -8    0.81    0.15 
  -4   3   8    1.16    0.14 
   4   3  -8    0.83    0.15 
   4   3  -8    0.93    0.15 
   4   3  -8    0.99    0.18 
   4   3  -8    0.90    0.11 
  -4   3   8    1.00    0.19 
   4   3  -8    0.91    0.12 
   4   3  -8    0.58    0.15 
  -4   3   8    0.90    0.16 
   4   3  -8    0.82    0.18 
   4   3  -8    1.19    0.18 
   4   3  -8    0.93    0.16 
  -4   3   8    0.81    0.17 
  -4   3   8    0.98    0.19 
  -4   3   8    1.00    0.21 
   3  -3  -8    8.28    0.41 
   3  -3  -8    9.01    0.43 
   3  -3  -8    8.59    0.51 
   3  -3  -8    9.15    0.40 
   3  -3  -8    8.82    0.42 
  -3  -3   8    8.72    0.43 
  -3  -3   8    8.77    0.43 
   3  -3  -8    9.30    0.56 
  -3  -3   8    8.64    0.54 
  -3  -3   8    8.79    0.39 
   3  -3  -8    9.13    0.45 
   3  -3  -8    9.19    0.43 
  -3  -3   8    8.74    0.49 
  -3  -3   8    8.24    0.53 
  -3  -3   8    8.96    0.43 
  -3  -3   8    9.09    0.41 
  -3   3   8    8.86    0.40 
  -3   3   8    9.34    0.60 
  -3   3   8    8.90    0.33 
   3   3  -8    8.30    0.24 
  -3   3   8    8.54    0.41 
  -3   3   8    9.13    0.45 
  -3   3   8    7.59    0.46 
   3   3  -8    8.59    0.37 
   3   3  -8    8.38    0.36 
  -3   3   8    8.68    0.40 
   3   3  -8    7.87    0.36 
   3   3  -8    8.59    0.43 
  -3   3   8    8.74    0.40 
   3   3  -8    8.24    0.40 
  -2  -3   8    0.30    0.16 
   2  -3  -8    0.25    0.11 
   2  -3  -8    0.23    0.10 
   2  -3  -8    0.60    0.17 
   2  -3  -8    0.48    0.16 
  -2  -3   8    0.25    0.15 
   2  -3  -8    0.31    0.13 
  -2  -3   8    0.27    0.13 
   2  -3  -8    0.35    0.12 
  -2  -3   8    0.24    0.09 
  -2  -3   8    0.33    0.13 
   2  -3  -8    0.12    0.14 
   2  -3  -8    0.31    0.18 
   2   3  -8    0.26    0.09 
  -2   3   8    0.16    0.11 
  -2   3   8    0.39    0.08 
  -2   3   8    0.30    0.14 
  -2   3   8    0.33    0.15 
  -2   3   8    0.15    0.17 
  -2   3   8    0.24    0.16 
  -2   3   8    0.21    0.09 
   2   3  -8    0.32    0.10 
  -2   3   8    0.30    0.12 
   2   3  -8    0.28    0.12 
  -2   3   8    0.24    0.13 
  -2   3   8    0.32    0.16 
   2   3  -8    0.23    0.09 
   1  -3  -8    1.09    0.28 
   1  -3  -8    0.65    0.12 
   1  -3  -8    0.87    0.19 
   1  -3  -8    0.60    0.14 
   1  -3  -8    0.75    0.18 
   1  -3  -8    0.95    0.19 
  -1  -3   8    0.91    0.12 
   1  -3  -8    1.07    0.18 
   1  -3  -8    0.86    0.18 
   1  -3  -8    1.18    0.17 
  -1  -3   8    1.03    0.18 
  -1   3   8    0.95    0.12 
  -1   3   8    0.98    0.22 
  -1   3   8    1.00    0.17 
  -1   3   8    0.78    0.18 
  -1   3   8    0.94    0.21 
  -1   3   8    1.10    0.28 
  -1   3   8    0.70    0.17 
   1   3  -8    0.86    0.09 
  -1   3   8    0.99    0.21 
   0  -3  -8   14.11    0.57 
   0  -3   8   13.34    0.51 
   0  -3   8   12.58    0.57 
   0  -3  -8   13.66    0.49 
   0  -3  -8   13.52    0.56 
   0   3   8   13.38    0.56 
   0   3   8   12.61    0.54 
   0   3   8   12.86    0.55 
   0   3   8   12.41    0.47 
   0   3   8   12.67    0.41 
  -1  -3  -8   10.42    0.47 
  -1  -3  -8    9.79    0.46 
  -1  -3  -8   10.89    0.46 
  -1  -3  -8   10.71    0.40 
   1   3   8   10.53    0.47 
   1   3   8   10.65    0.40 
   1   3   8    9.52    0.45 
   1   3   8    9.79    0.35 
  -2  -3  -8    0.53    0.12 
  -2  -3  -8    1.08    0.17 
  -2  -3  -8    0.47    0.14 
  -2  -3  -8    0.57    0.09 
  -2  -3  -8    0.78    0.14 
  -2  -3  -8    0.77    0.11 
  -2  -3  -8    0.84    0.16 
  -2  -3  -8    0.65    0.15 
  -2  -3  -8    0.64    0.14 
  -2  -3  -8    0.81    0.09 
  -2  -3  -8    0.67    0.17 
  -2  -3  -8    0.97    0.18 
   2   3   8    0.46    0.15 
   2   3   8    0.88    0.15 
   2   3   8    0.67    0.11 
  -2   3  -8    0.84    0.07 
  -2   3  -8    0.65    0.12 
   2   3   8    0.61    0.16 
   2   3   8    1.04    0.19 
  -3  -3  -8    1.06    0.09 
  -3  -3  -8    1.11    0.12 
  -3  -3  -8    1.04    0.20 
  -3  -3  -8    1.28    0.17 
  -3  -3  -8    1.09    0.18 
  -3  -3  -8    1.16    0.14 
  -3  -3  -8    1.40    0.18 
  -3  -3  -8    1.43    0.18 
  -3  -3  -8    1.30    0.14 
   3   3   8    1.16    0.14 
   3   3   8    0.93    0.11 
  -3   3  -8    1.21    0.10 
   3   3   8    1.34    0.18 
  -4  -3  -8    1.80    0.18 
  -4  -3  -8    2.16    0.15 
  -4  -3  -8    1.93    0.17 
   4   3   8    2.00    0.19 
   4   3   8    2.20    0.18 
  -5  -3  -8    3.67    0.13 
  -5  -3  -8    3.40    0.19 
  -5  -3  -8    3.28    0.18 
  -5  -3  -8    3.82    0.15 
   5   3   8    3.50    0.17 
   5   3   8    3.58    0.18 
  -6  -4   8    2.76    0.12 
  -6  -4   8    2.84    0.15 
  -6  -4   8    3.10    0.19 
   6  -4  -8    2.66    0.13 
   6  -4  -8    2.67    0.14 
  -6   4   8    2.22    0.14 
  -6   4   8    2.58    0.17 
   6   4  -8    2.89    0.16 
   6   4  -8    2.71    0.16 
   6   4  -8    2.96    0.18 
  -6   4   8    2.53    0.13 
  -6   4   8    2.51    0.17 
  -6   4   8    2.72    0.09 
   6   4  -8    2.76    0.12 
   6   4  -8    2.95    0.14 
   6   4  -8    3.01    0.12 
  -6   4   8    2.50    0.17 
  -6   4   8    2.64    0.17 
   6   4  -8    2.70    0.15 
   6   4  -8    2.46    0.16 
  -6   4   8    2.44    0.16 
   5  -4  -8    0.99    0.12 
   5  -4  -8    0.90    0.12 
  -5  -4   8    0.84    0.14 
   5  -4  -8    0.86    0.22 
  -5  -4   8    0.84    0.25 
  -5   4   8    1.00    0.15 
  -5   4   8    0.83    0.09 
  -5   4   8    0.86    0.15 
  -5   4   8    1.01    0.15 
   5   4  -8    0.70    0.13 
  -5   4   8    0.83    0.16 
  -5   4   8    0.87    0.12 
   5   4  -8    0.72    0.17 
  -5   4   8    1.05    0.17 
   5   4  -8    0.71    0.14 
  -5   4   8    0.94    0.12 
  -5   4   8    1.11    0.16 
   5   4  -8    1.03    0.14 
  -5   4   8    0.71    0.14 
   5   4  -8    0.80    0.13 
   5   4  -8    1.12    0.16 
   5   4  -8    0.83    0.13 
  -5   4   8    0.85    0.16 
  -5   4   8    0.67    0.16 
   5   4  -8    0.99    0.13 
   5   4  -8    0.99    0.10 
   5   4  -8    0.79    0.15 
   5   4  -8    0.70    0.13 
   4  -4  -8    3.14    0.23 
   4  -4  -8    3.13    0.31 
  -4  -4   8    3.11    0.18 
   4  -4  -8    2.94    0.18 
   4  -4  -8    3.03    0.22 
  -4  -4   8    2.67    0.24 
  -4  -4   8    3.18    0.31 
  -4   4   8    3.22    0.21 
  -4   4   8    2.87    0.22 
  -4   4   8    2.86    0.21 
   4   4  -8    3.13    0.20 
  -4   4   8    3.03    0.21 
  -4   4   8    3.00    0.18 
  -4   4   8    2.97    0.15 
   4   4  -8    2.97    0.18 
   4   4  -8    3.05    0.18 
  -4   4   8    2.83    0.22 
   4   4  -8    2.78    0.18 
   4   4  -8    2.83    0.13 
   4   4  -8    3.02    0.18 
  -4   4   8    2.81    0.22 
  -4   4   8    2.89    0.19 
  -4   4   8    2.90    0.25 
  -4   4   8    2.43    0.21 
  -4   4   8    2.80    0.15 
   4   4  -8    2.79    0.18 
   3  -4  -8    3.64    0.34 
   3  -4  -8    3.33    0.19 
  -3  -4   8    3.76    0.25 
   3  -4  -8    3.26    0.25 
   3  -4  -8    3.64    0.18 
   3  -4  -8    3.20    0.23 
   3  -4  -8    3.47    0.25 
   3  -4  -8    3.26    0.25 
   3  -4  -8    3.84    0.28 
  -3  -4   8    3.82    0.22 
  -3   4   8    3.01    0.23 
  -3   4   8    3.45    0.24 
  -3   4   8    2.78    0.21 
  -3   4   8    3.34    0.19 
   3   4  -8    3.32    0.18 
   3   4  -8    3.41    0.17 
  -3   4   8    3.41    0.20 
   3   4  -8    3.43    0.20 
  -3   4   8    3.25    0.22 
  -3   4   8    3.23    0.23 
   3   4  -8    3.45    0.17 
   3   4  -8    3.37    0.19 
  -3   4   8    3.23    0.25 
  -3   4   8    3.40    0.24 
   3   4  -8    3.35    0.18 
  -3   4   8    3.35    0.27 
  -3   4   8    3.06    0.20 
  -3   4   8    3.23    0.23 
   2  -4  -8    0.51    0.13 
   2  -4  -8    0.45    0.08 
   2  -4  -8    0.55    0.13 
   2  -4  -8    0.32    0.12 
   2  -4  -8    0.15    0.18 
   2  -4  -8    0.10    0.13 
  -2  -4   8    0.45    0.10 
   2  -4  -8    0.28    0.07 
   2  -4  -8    0.09    0.12 
   2  -4  -8    0.16    0.09 
  -2   4   8    0.31    0.12 
  -2   4   8    0.36    0.15 
  -2   4   8    0.40    0.13 
  -2   4   8    0.30    0.12 
  -2   4   8    0.50    0.12 
   2   4  -8    0.24    0.08 
  -2   4   8    0.45    0.13 
  -2   4   8    0.16    0.09 
  -2   4   8    0.47    0.12 
  -2   4   8    0.45    0.14 
   2   4  -8    0.50    0.11 
  -2   4   8    0.43    0.11 
   2   4  -8    0.31    0.08 
  -2   4   8    0.41    0.11 
   2   4  -8    0.50    0.09 
  -1  -4   8    1.34    0.14 
   1  -4  -8    1.45    0.14 
   1  -4  -8    1.42    0.22 
   1  -4  -8    1.45    0.20 
   1  -4  -8    1.32    0.20 
   1  -4  -8    1.49    0.19 
   1  -4  -8    1.71    0.30 
   1  -4  -8    1.44    0.15 
   1  -4  -8    1.80    0.21 
   1  -4  -8    1.22    0.18 
  -1   4   8    1.33    0.20 
   1   4  -8    1.42    0.11 
  -1   4   8    1.50    0.19 
  -1   4   8    1.22    0.21 
  -1   4   8    1.50    0.19 
  -1   4   8    1.56    0.20 
  -1   4   8    1.32    0.15 
  -1   4   8    1.80    0.22 
  -1   4   8    1.33    0.13 
   1   4  -8    1.06    0.14 
   1   4  -8    1.46    0.13 
  -1   4   8    1.55    0.16 
  -1   4   8    1.35    0.09 
  -1   4   8    1.51    0.23 
  -1   4   8    1.54    0.21 
   0  -4  -8    6.72    0.23 
   0  -4  -8    6.71    0.35 
   0  -4  -8    6.21    0.38 
   0  -4  -8    6.58    0.34 
   0  -4  -8    6.42    0.36 
   0  -4  -8    5.88    0.34 
   0  -4  -8    6.35    0.33 
   0  -4  -8    7.20    0.30 
   0  -4  -8    6.72    0.31 
   0   4   8    7.04    0.36 
   0   4   8    6.31    0.34 
   0   4   8    6.23    0.31 
   0   4   8    6.68    0.39 
   0   4   8    6.79    0.36 
   0   4   8    6.80    0.22 
   0   4   8    6.65    0.32 
   0   4   8    6.47    0.26 
   0   4   8    6.55    0.35 
   0   4   8    6.80    0.21 
   0   4  -8    6.40    0.20 
   0   4   8    6.45    0.32 
   0   4   8    6.36    0.28 
  -1  -4  -8   13.36    0.49 
  -1  -4  -8   12.81    0.39 
  -1  -4  -8   13.41    0.56 
  -1  -4  -8   12.70    0.57 
  -1  -4  -8   13.30    0.46 
  -1  -4  -8   13.50    0.50 
  -1  -4  -8   14.50    0.49 
   1   4   8   12.47    0.52 
   1   4   8   12.45    0.50 
   1   4   8   12.64    0.54 
  -1   4  -8   13.25    0.42 
   1   4   8   12.72    0.35 
   1   4   8   10.87    0.53 
   1   4   8   13.52    0.48 
   1   4   8   13.02    0.40 
   1   4   8   12.80    0.48 
  -2  -4  -8   18.98    0.77 
  -2  -4  -8   20.79    0.67 
  -2  -4  -8   19.48    0.76 
  -2  -4  -8   20.11    0.68 
  -2  -4  -8   20.00    0.68 
  -2  -4  -8   20.69    0.63 
  -2  -4  -8   20.89    0.69 
   2   4   8   19.16    0.68 
   2   4   8   19.27    0.66 
   2   4   8   19.75    0.70 
   2   4   8   19.36    0.74 
   2   4   8   20.00    0.50 
  -3  -4  -8    5.96    0.23 
  -3  -4  -8    5.81    0.28 
  -3  -4  -8    5.61    0.23 
  -3  -4  -8    5.92    0.26 
  -3  -4  -8    5.68    0.25 
  -3  -4  -8    6.01    0.25 
  -3  -4  -8    5.82    0.17 
   3   4   8    5.35    0.24 
   3   4   8    5.68    0.26 
   3   4   8    5.44    0.18 
   3   4   8    5.49    0.24 
  -4  -4  -8   20.36    0.64 
  -4  -4  -8   18.76    0.60 
  -4  -4  -8   19.26    0.67 
  -4  -4  -8   19.30    0.62 
   4   4   8   19.26    0.47 
   4   4   8   18.35    0.63 
   4   4   8   19.10    0.62 
   4   4   8   19.99    0.62 
   5  -5  -8    4.01    0.16 
  -5  -5   8    4.47    0.18 
  -5  -5   8    4.21    0.16 
   5  -5  -8    4.38    0.18 
  -5   5   8    4.28    0.17 
  -5   5   8    4.14    0.18 
   5   5  -8    3.99    0.16 
  -5   5   8    4.05    0.19 
   5   5  -8    3.85    0.17 
  -5   5   8    4.39    0.18 
   5   5  -8    4.31    0.18 
   5   5  -8    3.37    0.16 
   5   5  -8    3.95    0.15 
   5   5  -8    4.03    0.17 
   5   5  -8    3.85    0.16 
  -5   5   8    3.90    0.17 
  -4  -5   8   -0.03    0.15 
  -4  -5   8    0.45    0.07 
   4  -5  -8    0.33    0.07 
   4  -5  -8    0.27    0.14 
   4  -5  -8    0.39    0.06 
   4   5  -8    0.43    0.10 
   4   5  -8    0.48    0.09 
  -4   5   8    0.42    0.07 
   4   5  -8    0.46    0.07 
  -4   5   8    0.33    0.07 
  -4   5   8    0.46    0.09 
   4   5  -8    0.20    0.07 
   4   5  -8    0.43    0.08 
  -4   5   8    0.38    0.08 
  -4   5   8    0.74    0.15 
  -4   5   8    0.31    0.09 
  -4   5   8    0.51    0.08 
  -4   5   8    0.25    0.09 
  -4   5   8    0.61    0.13 
   3  -5  -8   10.42    0.33 
   3  -5  -8   10.50    0.37 
   3  -5  -8   10.14    0.60 
   3   5  -8   10.07    0.36 
  -3   5   8    9.39    0.42 
  -3   5   8   10.24    0.28 
   3   5  -8   10.61    0.36 
  -3   5   8   10.17    0.39 
  -3   5   8   10.41    0.42 
   3   5  -8   10.32    0.31 
  -3   5   8    9.75    0.37 
  -3   5   8   10.27    0.31 
  -3   5   8    9.77    0.42 
  -3   5   8   10.22    0.38 
  -3   5   8    9.85    0.34 
  -3   5   8    9.96    0.32 
   3   5  -8   10.14    0.32 
  -3   5   8   10.19    0.36 
  -3   5   8   10.07    0.38 
  -3   5   8   10.02    0.37 
   2  -5  -8   11.15    0.42 
   2  -5  -8   10.50    0.44 
   2  -5  -8   10.58    0.38 
   2  -5  -8   11.21    0.34 
   2  -5  -8   10.27    0.62 
  -2   5   8   10.24    0.31 
  -2   5   8   10.12    0.39 
  -2   5   8   10.79    0.39 
   2   5  -8   10.40    0.36 
  -2   5   8   10.57    0.35 
  -2   5   8    9.83    0.44 
  -2   5   8   10.13    0.32 
  -2   5   8   10.70    0.44 
  -2   5   8   10.01    0.30 
  -2   5   8   10.60    0.33 
  -2   5   8   10.05    0.40 
  -2   5   8   10.06    0.44 
   2   5  -8   10.23    0.36 
   2   5  -8   10.37    0.31 
   1  -5  -8    8.81    0.42 
   1  -5  -8    9.82    0.36 
   1  -5  -8   10.49    0.32 
   1  -5  -8   11.07    0.61 
   1  -5  -8    9.78    0.45 
   1  -5  -8   10.27    0.40 
  -1   5   8    9.93    0.39 
  -1   5   8    9.69    0.32 
  -1   5   8    9.83    0.36 
  -1   5   8    9.61    0.38 
  -1   5   8    9.75    0.30 
  -1   5   8    9.30    0.42 
  -1   5   8    9.44    0.39 
  -1   5   8    9.10    0.42 
  -1   5   8    9.46    0.42 
  -1   5   8    9.47    0.36 
  -1   5   8    9.81    0.33 
  -1   5   8    9.86    0.30 
  -1   5   8    9.48    0.31 
   0  -5  -8   33.81    0.95 
   0  -5  -8   35.69    1.12 
   0  -5  -8   32.20    1.69 
   0   5   8   30.58    0.91 
   0   5   8   33.69    1.10 
   0   5   8   30.35    1.13 
   0   5   8   33.59    0.93 
   0   5   8   33.22    1.19 
   0   5   8   33.69    1.19 
   0   5   8   33.32    1.03 
   0   5   8   33.18    0.89 
   0   5   8   32.99    1.25 
   0   5   8   32.81    1.05 
  -1  -5  -8   22.40    0.80 
  -1  -5  -8   24.89    0.79 
  -1  -5  -8   24.97    0.75 
  -1  -5  -8   24.91    0.82 
   1   5   8   24.43    0.94 
   1   5   8   24.43    0.82 
   1   5   8   24.21    0.89 
   1   5   8   23.72    0.79 
   1   5   8   23.79    0.77 
   1   5   8   23.67    0.69 
  -2  -5  -8    5.03    0.24 
  -2  -5  -8    5.03    0.21 
  -2  -5  -8    5.36    0.23 
   2   5   8    4.52    0.23 
   2   5   8    5.35    0.22 
   2   5   8    4.83    0.21 
   2   5   8    4.56    0.22 
  -3  -5  -8    6.70    0.22 
  -3  -5  -8    6.63    0.26 
  -3  -5  -8    6.02    0.17 
  -3  -5  -8    6.18    0.25 
  -3  -5  -8    6.65    0.24 
   3   5   8    6.24    0.24 
   3   5   8    5.19    0.24 
   3   5   8    6.27    0.23 
   3  -6  -8    9.91    0.29 
   3  -6  -8    9.60    0.33 
  -3   6   8    9.18    0.32 
  -3   6   8    9.40    0.29 
  -3   6   8    8.99    0.27 
  -3   6   8    9.14    0.29 
  -3   6   8    9.13    0.32 
   3   6  -8    8.86    0.30 
  -3   6   8    9.55    0.31 
   2  -6  -8    3.96    0.16 
   2  -6  -8    3.91    0.14 
  -2   6   8    3.64    0.16 
  -2   6   8    3.73    0.13 
  -2   6   8    3.90    0.17 
  -2   6   8    3.91    0.17 
  -2   6   8    3.20    0.17 
  -2   6   8    3.44    0.16 
   1  -6  -8    7.26    0.22 
   1  -6  -8    6.57    0.28 
   1  -6  -8    7.25    0.25 
  -1   6   8    6.93    0.26 
  -1   6   8    6.81    0.25 
  -1   6   8    6.89    0.20 
  -1   6   8    6.77    0.26 
  -1   6   8    6.87    0.20 
  -1   6   8    7.02    0.23 
  -1   6   8    6.41    0.26 
  -1   6   8    6.66    0.25 
   0  -6  -8    2.34    0.09 
   0  -6  -8    2.44    0.15 
   0   6   8    2.23    0.13 
   0   6   8    2.08    0.13 
   0   6   8    2.18    0.14 
   0   6   8    2.29    0.12 
   0   6   8    1.84    0.10 
   0   6   8    2.25    0.14 
  -1  -6  -8    4.86    0.20 
  -1  -6  -8    5.51    0.22 
   1   6   8    4.63    0.20 
   1   6   8    4.89    0.16 
   1   6   8    4.71    0.20 
   1   6   8    4.81    0.19 
   1   6   8    5.32    0.16 
  -8   0   9   24.81    0.80 
   8   0  -9   24.74    0.60 
   8   0  -9   25.24    0.78 
   8   0  -9   25.33    0.78 
   8   0  -9   24.93    0.73 
  -8   0   9   26.22    0.78 
   8   0  -9   24.73    0.81 
  -8   0   9   23.43    0.83 
   7   0  -9    1.48    0.16 
   7   0  -9    1.79    0.17 
  -7   0   9    1.68    0.10 
  -7   0   9    1.86    0.13 
  -7   0   9    1.63    0.20 
  -7   0   9    1.96    0.20 
   7   0  -9    1.59    0.18 
   7   0  -9    1.54    0.14 
  -7   0   9    2.36    0.22 
   7   0  -9    1.53    0.12 
   7   0  -9    1.67    0.16 
  -6   0   9   37.40    1.16 
   6   0  -9   35.04    1.01 
   6   0  -9   35.12    1.18 
   6   0  -9   35.64    1.13 
  -6   0   9   35.81    1.15 
  -6   0   9   35.67    1.01 
  -6   0   9   36.67    1.07 
  -6   0   9   34.87    1.18 
  -6   0   9   35.41    1.32 
   6   0  -9   37.10    1.15 
   6   0  -9   35.68    1.14 
   6   0  -9   34.27    1.25 
   6   0  -9   36.02    1.31 
  -6   0   9   36.09    1.27 
   6   0  -9   36.70    1.07 
   5   0  -9    0.51    0.12 
  -5   0   9    0.38    0.06 
   5   0  -9    0.60    0.16 
   5   0  -9    0.41    0.12 
  -5   0   9    0.42    0.09 
   5   0  -9    0.36    0.11 
   5   0  -9    0.55    0.10 
   5   0  -9    0.15    0.10 
   5   0  -9    0.51    0.10 
  -5   0   9    0.41    0.11 
  -5   0   9    0.58    0.12 
  -5   0   9    0.33    0.11 
   5   0  -9    0.56    0.08 
   5   0  -9    0.28    0.12 
   5   0  -9    0.26    0.12 
   5   0  -9    0.38    0.12 
   5   0  -9    0.37    0.10 
  -5   0   9    0.50    0.17 
  -5   0   9    0.32    0.11 
  -4   0   9   27.01    1.02 
   4   0  -9   27.28    0.98 
  -4   0   9   26.15    1.33 
   4   0  -9   25.42    0.99 
   4   0  -9   26.40    0.74 
   4   0  -9   25.88    0.93 
   4   0  -9   25.72    0.85 
   4   0  -9   23.62    1.42 
  -4   0   9   26.60    1.01 
  -4   0   9   24.93    0.95 
  -4   0   9   26.30    0.87 
  -4   0   9   23.27    1.25 
   4   0  -9   25.43    1.05 
  -4   0   9   27.88    1.00 
  -4   0   9   25.19    1.02 
   4   0  -9   26.16    1.18 
   3   0  -9    0.25    0.10 
   3   0  -9    0.22    0.11 
   3   0  -9    0.25    0.13 
  -3   0   9    0.33    0.21 
   3   0  -9    0.11    0.11 
  -3   0   9    0.47    0.14 
  -3   0   9    0.04    0.14 
   3   0  -9    0.08    0.23 
   3   0  -9    0.21    0.15 
  -3   0   9   -0.02    0.09 
  -3   0   9    0.23    0.17 
  -3   0   9    0.18    0.17 
   3   0  -9    0.10    0.15 
  -3   0   9    0.19    0.14 
   3   0  -9    0.24    0.05 
  -3   0   9    0.05    0.13 
   3   0  -9    0.26    0.11 
   3   0  -9    0.31    0.09 
  -2   0   9    8.21    0.37 
  -2   0   9    7.26    0.46 
   2   0  -9    7.84    0.37 
   2   0  -9    8.55    0.55 
   2   0  -9    9.34    0.56 
  -2   0   9    8.41    0.53 
   2   0  -9    8.34    0.37 
  -2   0   9    8.57    0.40 
   2   0  -9    7.95    0.40 
   2   0  -9    8.33    0.36 
  -2   0   9    8.85    0.41 
   2   0  -9    7.70    0.43 
   2   0  -9    8.25    0.31 
  -2   0   9    7.51    0.48 
  -2   0   9    7.93    0.39 
   2   0  -9    8.36    0.36 
  -1   0   9    6.94    0.35 
  -1   0   9    6.79    0.43 
   1   0  -9    6.47    0.32 
   1   0  -9    6.67    0.34 
  -1   0   9    6.31    0.30 
   1   0  -9    6.47    0.33 
   1   0  -9    6.35    0.38 
  -1   0   9    6.60    0.33 
  -1   0   9    6.92    0.39 
   1   0  -9    7.42    0.47 
   1   0  -9    6.89    0.31 
  -1   0   9    7.15    0.34 
   1   0  -9    6.64    0.46 
   1   0  -9    6.74    0.36 
  -1   0   9    6.13    0.40 
  -1   0   9    6.62    0.46 
   0   0  -9  129.19    5.63 
   0   0  -9  139.35    4.98 
   0   0  -9  136.30    6.81 
   0   0   9  140.44    4.68 
   0   0  -9  121.93    6.34 
   0   0   9  135.74    4.94 
   0   0   9  139.76    4.77 
   0   0   9  137.90    5.40 
   0   0  -9  135.15    4.66 
   0   0  -9  139.02    4.46 
   0   0  -9  135.10    4.92 
   0   0   9  131.62    6.50 
   0   0   9  138.83    4.83 
   0   0  -9  136.70    5.40 
   0   0  -9  137.19    3.61 
   0   0   9  135.75    4.51 
  -1   0  -9    9.32    0.42 
   1   0   9    9.78    0.60 
   1   0   9   10.03    0.42 
  -1   0  -9   10.30    0.50 
   1   0   9    9.51    0.45 
  -1   0  -9    9.96    0.42 
  -1   0  -9    8.62    0.57 
  -1   0  -9    9.12    0.39 
   1   0   9   10.10    0.56 
  -1   0  -9    9.82    0.41 
   1   0   9    9.55    0.49 
  -1   0  -9   10.34    0.46 
   1   0   9   10.07    0.42 
   1   0   9   10.70    0.45 
  -2   0  -9   27.98    0.74 
   2   0   9   27.93    1.00 
   2   0   9   27.56    1.05 
   2   0   9   28.08    1.39 
  -2   0  -9   23.66    1.15 
  -2   0  -9   27.00    0.98 
   2   0   9   27.72    1.04 
  -2   0  -9   28.06    0.99 
   2   0   9   22.81    1.28 
   2   0   9   28.82    1.08 
   2   0   9   28.30    0.98 
  -3   0  -9    0.14    0.10 
   3   0   9    0.07    0.12 
   3   0   9   -0.07    0.09 
  -3   0  -9    0.10    0.10 
   3   0   9    0.01    0.07 
  -3   0  -9    0.01    0.08 
   3   0   9    0.07    0.10 
   3   0   9    0.07    0.09 
   3   0   9    0.15    0.16 
  -3   0  -9    0.21    0.10 
  -3   0  -9   -0.01    0.06 
  -3   0  -9    0.08    0.08 
  -3   0  -9    0.02    0.07 
  -4   0  -9    1.26    0.14 
   4   0   9    1.05    0.13 
   4   0   9    0.75    0.24 
  -4   0  -9    1.14    0.10 
  -4   0  -9    0.85    0.13 
  -4   0  -9    1.30    0.14 
  -4   0  -9    1.13    0.16 
  -5   0  -9    0.02    0.04 
  -5   0  -9    0.03    0.06 
   5   0   9    0.02    0.05 
  -5   0  -9    0.04    0.06 
  -5   0  -9    0.04    0.06 
  -5   0  -9    0.13    0.07 
   8  -1  -9    2.45    0.10 
   8  -1  -9    2.87    0.15 
   8  -1  -9    2.67    0.14 
   8  -1  -9    2.53    0.14 
  -8  -1   9    2.54    0.16 
  -8   1   9    2.51    0.11 
  -8   1   9    2.73    0.13 
   8   1  -9    2.73    0.14 
  -8   1   9    2.62    0.16 
   8   1  -9    2.53    0.13 
  -8   1   9    2.61    0.16 
  -7  -1   9    6.74    0.26 
  -7  -1   9    6.66    0.29 
  -7  -1   9    6.72    0.27 
   7  -1  -9    6.79    0.28 
  -7  -1   9    6.89    0.21 
   7  -1  -9    6.74    0.30 
  -7  -1   9    6.70    0.30 
   7  -1  -9    6.56    0.27 
   7  -1  -9    6.47    0.27 
   7   1  -9    6.71    0.29 
  -7   1   9    6.63    0.30 
   7   1  -9    6.62    0.29 
   7   1  -9    6.69    0.19 
  -7   1   9    7.09    0.32 
   7   1  -9    6.57    0.25 
   7   1  -9    6.71    0.27 
   7   1  -9    6.96    0.25 
  -7   1   9    6.02    0.33 
  -7   1   9    6.89    0.29 
  -7   1   9    7.08    0.25 
  -6  -1   9    9.31    0.35 
  -6  -1   9    8.40    0.40 
   6  -1  -9    8.75    0.30 
  -6  -1   9    8.88    0.31 
   6  -1  -9    8.95    0.37 
  -6  -1   9    8.78    0.37 
   6  -1  -9    9.05    0.35 
  -6  -1   9    9.18    0.36 
   6  -1  -9    8.48    0.34 
   6  -1  -9    8.29    0.40 
   6  -1  -9    9.11    0.36 
   6   1  -9    9.01    0.33 
  -6   1   9    8.49    0.38 
  -6   1   9    8.91    0.43 
   6   1  -9    8.54    0.36 
  -6   1   9    8.94    0.41 
   6   1  -9    9.07    0.37 
  -6   1   9    8.83    0.32 
   6   1  -9    9.04    0.25 
   6   1  -9    9.02    0.34 
   6   1  -9    8.70    0.32 
  -6   1   9    9.44    0.44 
   6   1  -9    9.05    0.30 
  -6   1   9    8.75    0.40 
   6   1  -9    8.90    0.40 
  -6   1   9    8.88    0.43 
  -6   1   9    8.36    0.36 
   6   1  -9    9.01    0.36 
   6   1  -9    8.73    0.42 
  -6   1   9    8.91    0.33 
  -6   1   9    8.95    0.25 
  -5  -1   9   31.65    1.20 
  -5  -1   9   30.15    0.88 
   5  -1  -9   31.86    1.17 
   5  -1  -9   33.12    1.19 
   5  -1  -9   31.33    1.02 
  -5  -1   9   29.53    1.19 
   5  -1  -9   30.80    0.87 
  -5  -1   9   32.17    1.57 
   5  -1  -9   31.50    1.00 
   5  -1  -9   30.04    0.95 
  -5  -1   9   30.58    1.22 
  -5  -1   9   30.92    1.13 
   5  -1  -9   32.59    0.90 
  -5  -1   9   31.34    1.05 
  -5  -1   9   30.66    1.17 
   5  -1  -9   30.24    1.04 
   5   1  -9   31.00    1.18 
  -5   1   9   30.48    1.09 
   5   1  -9   30.16    1.03 
   5   1  -9   30.56    1.21 
   5   1  -9   31.49    1.08 
   5   1  -9   29.89    0.98 
   5   1  -9   29.91    0.96 
  -5   1   9   30.70    1.16 
   5   1  -9   30.73    0.75 
  -5   1   9   31.75    1.14 
  -5   1   9   30.86    0.86 
  -5   1   9   30.18    0.99 
  -5   1   9   30.85    1.05 
   5   1  -9   29.81    0.87 
  -5   1   9   30.52    1.01 
   5   1  -9   29.87    0.83 
   5   1  -9   30.23    1.11 
   5   1  -9   29.82    0.91 
  -5   1   9   30.29    0.99 
   5   1  -9   29.88    0.99 
   5   1  -9   29.79    1.14 
  -5   1   9   29.39    0.87 
   5   1  -9   30.84    0.98 
  -4  -1   9    3.19    0.25 
  -4  -1   9    2.77    0.31 
   4  -1  -9    3.49    0.22 
  -4  -1   9    3.23    0.26 
   4  -1  -9    3.98    0.18 
   4  -1  -9    4.03    0.25 
   4  -1  -9    3.63    0.24 
  -4  -1   9    3.28    0.24 
   4  -1  -9    3.70    0.25 
  -4  -1   9    3.42    0.28 
  -4  -1   9    3.34    0.36 
  -4  -1   9    3.43    0.28 
   4   1  -9    3.15    0.24 
   4   1  -9    3.48    0.26 
  -4   1   9    3.39    0.18 
   4   1  -9    3.19    0.18 
  -4   1   9    3.76    0.25 
  -4   1   9    3.52    0.26 
   4   1  -9    3.32    0.33 
   4   1  -9    3.41    0.22 
   4   1  -9    3.25    0.23 
  -4   1   9    3.50    0.21 
   4   1  -9    3.14    0.26 
  -4   1   9    3.47    0.26 
   3  -1  -9    2.68    0.20 
  -3  -1   9    3.14    0.34 
   3  -1  -9    3.20    0.22 
  -3  -1   9    3.60    0.30 
   3  -1  -9    3.31    0.24 
   3  -1  -9    3.55    0.23 
  -3  -1   9    3.65    0.33 
  -3  -1   9    3.26    0.25 
  -3  -1   9    3.50    0.26 
  -3  -1   9    3.30    0.31 
   3  -1  -9    3.47    0.38 
  -3  -1   9    3.55    0.26 
   3  -1  -9    3.56    0.16 
   3   1  -9    3.02    0.32 
  -3   1   9    2.78    0.24 
   3   1  -9    3.26    0.23 
   3   1  -9    3.24    0.26 
   3   1  -9    3.40    0.31 
  -3   1   9    3.17    0.20 
   3   1  -9    3.59    0.21 
   3   1  -9    3.39    0.23 
  -3   1   9    3.02    0.25 
   3   1  -9    3.40    0.23 
  -3   1   9    2.24    0.33 
   3   1  -9    3.36    0.22 
  -3   1   9    2.70    0.31 
  -3   1   9    3.25    0.25 
  -2  -1   9    2.57    0.31 
  -2  -1   9    2.74    0.26 
   2  -1  -9    2.65    0.23 
   2  -1  -9    2.16    0.32 
   2  -1  -9    2.66    0.20 
  -2  -1   9    2.71    0.23 
  -2  -1   9    2.93    0.18 
  -2  -1   9    2.77    0.23 
   2  -1  -9    2.70    0.20 
   2  -1  -9    2.91    0.14 
   2  -1  -9    2.84    0.26 
   2  -1  -9    2.80    0.22 
   2  -1  -9    3.01    0.33 
  -2  -1   9    2.62    0.27 
   2  -1  -9    2.78    0.18 
  -2  -1   9    2.62    0.22 
  -2  -1   9    2.47    0.28 
   2   1  -9    2.72    0.19 
  -2   1   9    2.79    0.29 
  -2   1   9    2.85    0.24 
  -2   1   9    2.77    0.21 
  -2   1   9    2.14    0.26 
   2   1  -9    2.78    0.20 
  -2   1   9    3.02    0.23 
  -2   1   9    2.58    0.23 
   2   1  -9    2.71    0.29 
   2   1  -9    2.69    0.22 
   2   1  -9    2.95    0.27 
  -2   1   9    2.48    0.31 
   2   1  -9    2.85    0.24 
   2   1  -9    2.80    0.20 
   2   1  -9    2.83    0.16 
   2   1  -9    2.84    0.19 
  -2   1   9    2.99    0.24 
  -1  -1   9   18.37    0.99 
  -1  -1   9   20.44    0.76 
   1  -1  -9   20.28    0.89 
   1  -1  -9   19.18    0.76 
  -1  -1   9   19.89    0.77 
   1  -1  -9   19.81    0.74 
   1  -1  -9   20.17    0.80 
   1  -1  -9   19.57    0.54 
  -1  -1   9   16.91    0.80 
   1  -1  -9   19.19    1.09 
   1  -1  -9   18.83    0.73 
   1  -1  -9   19.88    0.71 
   1  -1  -9   15.87    1.02 
  -1  -1   9   19.56    0.72 
  -1  -1   9   19.03    0.94 
  -1  -1   9   17.07    0.87 
   1  -1  -9   19.29    0.64 
   1   1  -9   16.66    1.02 
   1   1  -9   19.83    0.55 
   1   1  -9   17.45    0.68 
  -1   1   9   19.48    1.02 
  -1   1   9   19.65    0.76 
  -1   1   9   20.70    0.97 
   1   1  -9   19.17    0.72 
  -1   1   9   19.58    0.73 
   1   1  -9   18.94    0.77 
   1   1  -9   20.21    0.75 
  -1   1   9   19.12    0.90 
   1   1  -9   18.52    0.72 
  -1   1   9   20.44    0.77 
  -1   1   9   18.66    0.76 
   1   1  -9   18.63    0.84 
  -1   1   9   20.71    0.79 
   0  -1  -9   37.38    1.43 
   0  -1   9   36.90    1.36 
   0  -1  -9   37.53    1.17 
   0  -1  -9   36.66    1.33 
   0  -1  -9   38.70    1.96 
   0  -1  -9   34.89    1.85 
   0  -1   9   38.98    1.71 
   0  -1   9   35.72    1.29 
   0  -1  -9   36.73    1.36 
   0  -1  -9   37.25    1.28 
   0  -1   9   35.80    1.56 
   0  -1  -9   36.79    1.40 
   0  -1   9   36.94    1.38 
   0  -1   9   35.17    1.43 
   0  -1   9   37.66    1.32 
   0   1   9   32.03    1.52 
   0   1  -9   34.46    1.36 
   0   1   9   36.21    1.26 
   0   1   9   37.21    1.34 
   0   1  -9   37.25    1.48 
   0   1   9   35.42    1.67 
   0   1  -9   36.53    1.26 
   0   1   9   34.84    1.79 
   0   1   9   36.84    1.36 
   0   1  -9   35.99    1.27 
   0   1  -9   36.21    1.33 
   0   1   9   35.29    1.34 
  -1  -1  -9  141.96    5.23 
  -1  -1  -9  141.49    5.16 
  -1  -1  -9  147.75    7.15 
   1  -1   9  145.68    5.07 
  -1  -1  -9  138.72    5.66 
  -1  -1  -9  138.75    5.91 
   1  -1   9  143.75    6.22 
   1  -1   9  144.82    4.99 
  -1  -1  -9  140.34    4.88 
   1  -1   9  135.41    4.71 
   1  -1   9  143.39    4.90 
   1   1   9  139.79    4.91 
   1   1   9  136.88    5.12 
   1   1   9  144.14    6.13 
  -1   1  -9  136.35    4.77 
  -1   1  -9  146.91    5.52 
   1   1   9  140.84    6.69 
  -1   1  -9  131.14    5.09 
  -1   1  -9  143.62    4.70 
   1   1   9  134.09    4.96 
   1   1   9  139.42    4.64 
  -2  -1  -9   15.73    0.59 
  -2  -1  -9   15.44    0.56 
  -2  -1  -9   15.63    0.56 
   2  -1   9   17.07    0.63 
  -2  -1  -9   15.47    0.51 
  -2  -1  -9   16.88    0.48 
  -2  -1  -9   15.67    0.58 
  -2  -1  -9   16.91    0.61 
   2  -1   9   16.93    0.62 
   2  -1   9   17.15    0.68 
  -2  -1  -9   15.54    0.55 
  -2  -1  -9   15.99    0.49 
  -2  -1  -9   15.53    0.56 
  -2  -1  -9   16.09    0.64 
  -2   1  -9   17.15    0.61 
   2   1   9   16.89    0.71 
   2   1   9   15.33    0.56 
  -2   1  -9   17.08    0.53 
  -2   1  -9   15.85    0.56 
  -2   1  -9   16.35    0.44 
   2   1   9   16.38    0.64 
  -2   1  -9   16.22    0.50 
   2   1   9   16.16    0.69 
  -2   1  -9   15.83    0.55 
  -2   1  -9   16.08    0.54 
   2   1   9   16.60    0.90 
  -2   1  -9   16.76    0.60 
   2   1   9   16.31    0.68 
  -3  -1  -9   10.88    0.41 
  -3  -1  -9   10.17    0.46 
  -3  -1  -9   10.70    0.41 
  -3  -1  -9   11.44    0.46 
  -3  -1  -9   10.98    0.40 
  -3  -1  -9   10.78    0.37 
  -3  -1  -9   10.68    0.32 
  -3  -1  -9   10.80    0.40 
  -3  -1  -9   11.14    0.35 
  -3  -1  -9   10.56    0.42 
  -3  -1  -9   11.02    0.33 
  -3   1  -9    9.62    0.36 
  -3   1  -9   10.20    0.34 
   3   1   9   10.33    0.38 
  -3   1  -9   10.51    0.37 
   3   1   9    9.38    0.44 
   3   1   9   10.74    0.61 
  -3   1  -9   10.45    0.34 
  -3   1  -9   10.11    0.38 
  -4  -1  -9    2.93    0.17 
  -4  -1  -9    3.08    0.19 
  -4  -1  -9    3.06    0.15 
  -4  -1  -9    2.89    0.18 
  -4  -1  -9    2.62    0.18 
  -4  -1  -9    2.88    0.09 
  -4  -1  -9    2.97    0.19 
  -4  -1  -9    2.98    0.19 
  -4  -1  -9    2.92    0.14 
  -4   1  -9    3.01    0.13 
   4   1   9    3.02    0.30 
  -4   1  -9    3.10    0.17 
   4   1   9    3.12    0.17 
   4   1   9    3.18    0.15 
  -4   1  -9    2.95    0.15 
  -4   1  -9    3.01    0.18 
  -5  -1  -9    1.50    0.12 
  -5  -1  -9    1.48    0.13 
  -5  -1  -9    1.23    0.14 
  -5  -1  -9    1.70    0.13 
  -5  -1  -9    1.60    0.10 
   5  -1   9    1.52    0.11 
  -5  -1  -9    1.70    0.12 
  -5   1  -9    1.45    0.11 
   5   1   9    1.54    0.11 
  -5   1  -9    1.33    0.11 
   5   1   9    1.52    0.10 
  -5   1  -9    1.52    0.08 
   7  -2  -9   20.60    0.69 
   7  -2  -9   19.82    0.57 
  -7  -2   9   20.83    0.63 
  -7  -2   9   20.93    0.69 
  -7   2   9   18.91    0.64 
  -7   2   9   19.85    0.62 
  -7   2   9   19.36    0.56 
   7   2  -9   20.13    0.67 
  -7   2   9   19.60    0.55 
   7   2  -9   20.36    0.64 
  -7   2   9   19.54    0.52 
  -7   2   9   18.22    0.64 
   7   2  -9   20.05    0.63 
   6  -2  -9    6.58    0.33 
  -6  -2   9    6.53    0.21 
  -6  -2   9    6.40    0.28 
   6  -2  -9    6.26    0.21 
  -6  -2   9    5.85    0.34 
  -6  -2   9    5.37    0.31 
   6  -2  -9    6.31    0.30 
   6  -2  -9    4.90    0.30 
  -6  -2   9    6.35    0.29 
   6   2  -9    6.35    0.31 
  -6   2   9    6.14    0.26 
   6   2  -9    7.19    0.31 
  -6   2   9    6.24    0.29 
   6   2  -9    6.62    0.32 
  -6   2   9    5.85    0.30 
   6   2  -9    6.82    0.28 
  -6   2   9    6.65    0.32 
   6   2  -9    6.69    0.20 
   6   2  -9    6.84    0.24 
   6   2  -9    6.11    0.34 
  -6   2   9    6.39    0.21 
  -6   2   9    6.51    0.33 
   6   2  -9    6.43    0.28 
  -6   2   9    6.10    0.33 
  -6   2   9    6.12    0.34 
  -6   2   9    4.96    0.32 
   6   2  -9    6.40    0.29 
   5  -2  -9    8.27    0.35 
  -5  -2   9    9.41    0.55 
   5  -2  -9    8.37    0.39 
  -5  -2   9    8.96    0.44 
  -5  -2   9    8.54    0.29 
   5  -2  -9    7.95    0.37 
   5  -2  -9    7.93    0.41 
  -5  -2   9    9.01    0.41 
   5  -2  -9    8.06    0.40 
  -5  -2   9    8.26    0.42 
  -5  -2   9    8.68    0.37 
  -5  -2   9    8.59    0.33 
   5  -2  -9    8.79    0.44 
   5  -2  -9    8.23    0.28 
   5   2  -9    8.10    0.27 
  -5   2   9    7.95    0.30 
   5   2  -9    8.48    0.35 
  -5   2   9    8.05    0.23 
  -5   2   9    8.01    0.35 
   5   2  -9    8.49    0.42 
   5   2  -9    8.01    0.36 
   5   2  -9    8.00    0.29 
  -5   2   9    7.89    0.39 
   5   2  -9    8.46    0.31 
  -5   2   9    8.07    0.26 
   5   2  -9    7.88    0.32 
   5   2  -9    8.66    0.39 
   5   2  -9    8.49    0.37 
  -5   2   9    7.58    0.42 
  -5   2   9    8.08    0.38 
  -5   2   9    8.04    0.40 
  -5   2   9    8.09    0.31 
  -5   2   9    7.74    0.39 
   5   2  -9    8.16    0.33 
   5   2  -9    7.90    0.33 
  -5   2   9    7.96    0.35 
  -5   2   9    8.27    0.41 
   4  -2  -9    0.72    0.17 
   4  -2  -9    0.75    0.19 
  -4  -2   9    1.07    0.27 
  -4  -2   9    0.69    0.24 
  -4  -2   9    0.99    0.21 
   4  -2  -9    0.89    0.18 
   4  -2  -9    0.81    0.11 
   4  -2  -9    0.92    0.18 
   4  -2  -9    1.09    0.19 
  -4  -2   9    0.89    0.20 
   4  -2  -9    0.74    0.13 
   4  -2  -9    0.76    0.19 
  -4  -2   9    0.89    0.21 
  -4  -2   9    0.78    0.15 
   4   2  -9    0.98    0.15 
  -4   2   9    1.22    0.21 
   4   2  -9    0.71    0.16 
  -4   2   9    0.89    0.24 
   4   2  -9    0.71    0.12 
  -4   2   9    0.69    0.17 
   4   2  -9    0.74    0.16 
  -4   2   9    1.00    0.16 
   4   2  -9    0.81    0.15 
  -4   2   9    0.99    0.21 
  -4   2   9    0.79    0.12 
   4   2  -9    0.84    0.18 
   4   2  -9    1.04    0.16 
   4   2  -9    1.00    0.15 
  -4   2   9    0.67    0.16 
   4   2  -9    1.05    0.14 
  -4   2   9    0.94    0.20 
  -4   2   9    0.90    0.20 
   4   2  -9    0.75    0.16 
  -4   2   9    0.42    0.12 
  -4   2   9    0.87    0.08 
   4   2  -9    0.86    0.16 
  -4   2   9    0.87    0.20 
  -3  -2   9   13.38    0.59 
  -3  -2   9   14.02    0.53 
  -3  -2   9   13.85    0.64 
  -3  -2   9   13.30    0.58 
   3  -2  -9   13.16    0.56 
  -3  -2   9   11.94    0.71 
  -3  -2   9   13.83    0.55 
   3  -2  -9   12.98    0.49 
  -3  -2   9   13.42    0.74 
   3  -2  -9   13.55    0.57 
   3  -2  -9   12.51    0.58 
   3   2  -9   13.26    0.61 
   3   2  -9   13.39    0.52 
   3   2  -9   13.15    0.57 
  -3   2   9   13.16    0.55 
  -3   2   9   12.86    0.41 
   3   2  -9   13.14    0.53 
  -3   2   9   12.89    0.48 
   3   2  -9   13.64    0.40 
  -3   2   9   13.16    0.56 
  -3   2   9   12.69    0.54 
   3   2  -9   12.77    0.53 
   3   2  -9   12.52    0.49 
  -3   2   9   11.85    0.67 
  -3   2   9   13.33    0.55 
  -2  -2   9    3.14    0.24 
  -2  -2   9    2.81    0.27 
  -2  -2   9    3.05    0.32 
  -2  -2   9    2.84    0.29 
   2  -2  -9    3.39    0.23 
   2  -2  -9    3.47    0.17 
  -2  -2   9    3.27    0.24 
  -2  -2   9    2.97    0.19 
   2  -2  -9    3.63    0.24 
   2  -2  -9    3.35    0.20 
   2  -2  -9    2.98    0.25 
  -2  -2   9    3.09    0.23 
  -2   2   9    3.40    0.22 
   2   2  -9    2.95    0.20 
   2   2  -9    3.06    0.20 
  -2   2   9    2.88    0.17 
  -2   2   9    3.17    0.25 
   2   2  -9    3.13    0.21 
  -2   2   9    3.71    0.27 
   2   2  -9    3.08    0.18 
   2   2  -9    3.02    0.13 
   2   2  -9    3.19    0.24 
  -2   2   9    3.26    0.26 
  -1  -2   9    2.66    0.21 
   1  -2  -9    2.67    0.21 
   1  -2  -9    2.76    0.29 
   1  -2  -9    2.64    0.19 
   1  -2  -9    2.88    0.23 
   1  -2  -9    2.81    0.15 
  -1  -2   9    3.03    0.22 
  -1  -2   9    1.97    0.24 
  -1  -2   9    2.89    0.26 
   1  -2  -9    3.05    0.22 
  -1  -2   9    2.97    0.18 
  -1   2   9    2.51    0.20 
   1   2  -9    2.98    0.21 
  -1   2   9    2.81    0.24 
  -1   2   9    2.52    0.24 
  -1   2   9    2.52    0.23 
   1   2  -9    2.83    0.18 
   1   2  -9    2.85    0.17 
   1   2  -9    2.40    0.18 
   0  -2  -9   10.98    0.33 
   0  -2  -9   10.59    0.46 
   0  -2  -9   10.55    0.52 
   0  -2  -9   10.63    0.39 
   0  -2  -9   11.13    0.47 
   0  -2   9   10.96    0.43 
   0  -2   9   11.18    0.51 
   0  -2  -9    9.23    0.68 
   0   2  -9   10.65    0.39 
   0   2   9    9.84    0.62 
   0   2   9   10.96    0.48 
   0   2   9   10.58    0.50 
   0   2   9   10.22    0.47 
   0   2   9   10.34    0.49 
   0   2   9   10.89    0.41 
   0   2   9    9.30    0.58 
   0   2  -9    9.16    0.46 
   0   2   9   10.71    0.48 
   0   2   9   10.19    0.44 
  -1  -2  -9   63.29    3.29 
  -1  -2  -9   65.42    2.15 
  -1  -2  -9   67.90    2.72 
  -1  -2  -9   61.64    2.40 
  -1  -2  -9   63.43    2.36 
   1  -2   9   62.61    2.22 
  -1  -2  -9   64.19    1.99 
  -1  -2  -9   63.28    2.24 
  -1  -2  -9   60.24    2.28 
   1   2   9   62.61    2.81 
   1   2   9   56.82    2.34 
   1   2   9   64.39    2.26 
   1   2   9   61.25    2.28 
   1   2   9   61.47    2.24 
   1   2   9   59.93    2.25 
   1   2   9   63.02    2.13 
   1   2   9   66.18    3.04 
  -2  -2  -9    2.94    0.20 
  -2  -2  -9    3.22    0.18 
  -2  -2  -9    3.29    0.24 
  -2  -2  -9    3.09    0.20 
  -2  -2  -9    3.10    0.17 
  -2  -2  -9    3.51    0.22 
  -2  -2  -9    3.75    0.26 
  -2  -2  -9    3.36    0.11 
   2  -2   9    3.63    0.20 
  -2  -2  -9    3.70    0.25 
  -2  -2  -9    3.40    0.23 
   2   2   9    3.41    0.27 
   2   2   9    3.32    0.24 
   2   2   9    2.89    0.26 
   2   2   9    3.16    0.25 
  -2   2  -9    3.27    0.19 
  -2   2  -9    3.30    0.17 
  -2   2  -9    3.43    0.15 
   2   2   9    3.37    0.17 
   2   2   9    3.42    0.34 
   2   2   9    3.05    0.20 
   2   2   9    3.24    0.24 
  -2   2  -9    3.04    0.20 
  -2   2  -9    3.41    0.15 
  -3  -2  -9    5.47    0.21 
  -3  -2  -9    5.71    0.30 
  -3  -2  -9    4.54    0.28 
  -3  -2  -9    5.90    0.27 
  -3  -2  -9    5.10    0.23 
  -3  -2  -9    5.70    0.27 
  -3  -2  -9    5.45    0.25 
  -3  -2  -9    5.79    0.28 
  -3   2  -9    5.26    0.23 
   3   2   9    5.18    0.20 
  -3   2  -9    5.83    0.22 
  -3   2  -9    5.66    0.23 
   3   2   9    4.60    0.40 
   3   2   9    5.37    0.23 
  -3   2  -9    5.39    0.19 
   3   2   9    5.14    0.27 
   3   2   9    5.35    0.29 
  -4  -2  -9    3.50    0.14 
  -4  -2  -9    3.81    0.15 
  -4  -2  -9    3.50    0.20 
  -4  -2  -9    3.71    0.17 
  -4  -2  -9    3.56    0.20 
  -4  -2  -9    3.57    0.18 
   4   2   9    3.63    0.15 
  -4   2  -9    3.47    0.16 
  -4   2  -9    3.32    0.11 
   4   2   9    3.76    0.20 
  -4   2  -9    3.22    0.16 
   4   2   9    3.57    0.17 
  -5  -2  -9    1.71    0.13 
  -5  -2  -9    1.77    0.11 
  -5  -2  -9    1.74    0.07 
  -5  -2  -9    1.58    0.12 
   5   2   9    1.81    0.13 
  -5   2  -9    1.62    0.07 
  -7  -3   9    4.73    0.20 
   7  -3  -9    5.02    0.22 
   7  -3  -9    4.90    0.16 
  -7  -3   9    4.83    0.21 
  -7   3   9    4.98    0.20 
   7   3  -9    4.57    0.16 
   7   3  -9    4.51    0.17 
  -7   3   9    4.59    0.19 
  -7   3   9    5.55    0.21 
   7   3  -9    4.88    0.20 
  -7   3   9    4.47    0.17 
   7   3  -9    4.66    0.20 
  -7   3   9    4.48    0.19 
  -7   3   9    4.78    0.15 
   7   3  -9    4.67    0.20 
   7   3  -9    4.62    0.14 
  -6  -3   9    1.88    0.17 
   6  -3  -9    1.98    0.11 
   6  -3  -9    1.82    0.13 
   6  -3  -9    1.71    0.17 
  -6  -3   9    1.92    0.13 
  -6  -3   9    1.77    0.11 
  -6   3   9    1.81    0.17 
   6   3  -9    1.73    0.15 
   6   3  -9    1.76    0.15 
  -6   3   9    1.38    0.16 
  -6   3   9    1.81    0.17 
   6   3  -9    1.45    0.15 
  -6   3   9    1.83    0.18 
   6   3  -9    1.53    0.12 
   6   3  -9    1.70    0.11 
   6   3  -9    1.53    0.15 
   6   3  -9    1.66    0.16 
  -6   3   9    1.49    0.14 
  -6   3   9    1.80    0.18 
   6   3  -9    1.83    0.13 
  -6   3   9    1.43    0.12 
   6   3  -9    1.72    0.10 
  -6   3   9    1.51    0.15 
   5  -3  -9   13.44    0.49 
  -5  -3   9   12.89    0.39 
   5  -3  -9   12.93    0.39 
   5  -3  -9   11.10    0.50 
  -5  -3   9   12.66    0.54 
  -5  -3   9   12.86    0.48 
   5  -3  -9   12.86    0.71 
   5  -3  -9   12.68    0.44 
  -5  -3   9   13.11    0.45 
   5  -3  -9   12.85    0.54 
  -5  -3   9   13.16    0.72 
  -5   3   9   11.98    0.52 
   5   3  -9   12.64    0.44 
   5   3  -9   13.10    0.53 
   5   3  -9   12.91    0.51 
   5   3  -9   11.78    0.51 
   5   3  -9   12.72    0.45 
  -5   3   9   12.32    0.47 
   5   3  -9   12.91    0.38 
   5   3  -9   12.72    0.35 
   5   3  -9   12.52    0.46 
   5   3  -9   12.97    0.46 
   5   3  -9   12.60    0.38 
  -5   3   9   12.65    0.54 
  -5   3   9   12.41    0.40 
  -5   3   9   12.49    0.41 
  -5   3   9   12.71    0.52 
   5   3  -9   12.34    0.36 
  -5   3   9   12.14    0.50 
  -5   3   9   12.36    0.46 
   5   3  -9   13.14    0.39 
   5   3  -9   12.40    0.50 
  -5   3   9   12.66    0.49 
  -5   3   9   12.69    0.45 
   4  -3  -9    7.98    0.40 
  -4  -3   9    8.78    0.32 
   4  -3  -9    8.01    0.32 
   4  -3  -9    8.74    0.38 
  -4  -3   9    7.78    0.40 
   4  -3  -9    7.12    0.42 
  -4  -3   9    8.35    0.42 
  -4  -3   9    7.80    0.37 
   4  -3  -9    8.75    0.28 
  -4  -3   9    8.44    0.53 
   4  -3  -9    8.61    0.40 
   4  -3  -9    8.84    0.53 
   4  -3  -9    8.80    0.40 
   4  -3  -9    8.18    0.37 
   4   3  -9    8.16    0.33 
  -4   3   9    8.75    0.41 
   4   3  -9    8.47    0.33 
   4   3  -9    7.76    0.33 
  -4   3   9    8.28    0.39 
   4   3  -9    8.23    0.27 
   4   3  -9    8.41    0.36 
   4   3  -9    8.45    0.37 
   4   3  -9    8.21    0.34 
  -4   3   9    8.79    0.36 
  -4   3   9    8.63    0.41 
   4   3  -9    8.25    0.25 
  -4   3   9    8.25    0.37 
   4   3  -9    7.40    0.39 
  -4   3   9    8.36    0.30 
   4   3  -9    7.68    0.29 
  -4   3   9    9.06    0.45 
  -4   3   9    8.28    0.35 
   4   3  -9    8.35    0.34 
  -4   3   9    8.55    0.40 
   4   3  -9    8.58    0.36 
   4   3  -9    8.17    0.32 
   4   3  -9    8.85    0.39 
  -3  -3   9    2.22    0.17 
   3  -3  -9    2.29    0.31 
  -3  -3   9    2.06    0.17 
   3  -3  -9    1.72    0.20 
   3  -3  -9    2.41    0.21 
  -3  -3   9    2.34    0.22 
   3  -3  -9    3.03    0.25 
  -3  -3   9    1.97    0.22 
  -3  -3   9    2.47    0.22 
   3  -3  -9    2.15    0.22 
   3  -3  -9    1.93    0.20 
   3  -3  -9    2.23    0.22 
   3  -3  -9    2.34    0.22 
   3  -3  -9    2.17    0.14 
  -3  -3   9    2.11    0.28 
  -3   3   9    1.88    0.22 
  -3   3   9    2.04    0.23 
  -3   3   9    2.19    0.12 
   3   3  -9    2.38    0.19 
  -3   3   9    2.45    0.23 
   3   3  -9    2.19    0.18 
   3   3  -9    2.22    0.17 
  -3   3   9    2.48    0.26 
  -3   3   9    2.48    0.22 
   3   3  -9    2.00    0.13 
   3   3  -9    1.76    0.18 
   3   3  -9    1.97    0.17 
  -3   3   9    2.36    0.23 
  -3   3   9    2.15    0.23 
   3   3  -9    1.89    0.18 
  -3   3   9    2.25    0.18 
   3   3  -9    2.09    0.17 
   3   3  -9    2.09    0.19 
   3   3  -9    1.97    0.09 
  -3   3   9    2.06    0.23 
  -3   3   9    2.33    0.17 
  -3   3   9    2.54    0.24 
   2  -3  -9   19.87    0.76 
   2  -3  -9   16.39    0.65 
  -2  -3   9   19.59    0.72 
  -2  -3   9   19.73    0.72 
   2  -3  -9   19.10    0.66 
   2  -3  -9   19.91    0.77 
   2  -3  -9   19.71    0.68 
   2  -3  -9   18.97    0.55 
   2  -3  -9   17.58    0.77 
   2  -3  -9   18.92    0.72 
   2   3  -9   18.30    0.56 
   2   3  -9   18.12    0.63 
  -2   3   9   18.27    0.56 
  -2   3   9   19.46    0.66 
  -2   3   9   18.79    0.73 
  -2   3   9   19.51    0.72 
   2   3  -9   17.58    0.67 
   2   3  -9   18.96    0.66 
  -2   3   9   18.71    0.52 
  -2   3   9   18.15    0.65 
   2   3  -9   18.57    0.60 
  -2   3   9   18.35    0.63 
  -2   3   9   18.40    0.68 
  -2   3   9   18.65    0.53 
   2   3  -9   18.45    0.58 
   2   3  -9   17.98    0.50 
  -2   3   9   16.37    0.73 
  -2   3   9   19.46    0.77 
  -2   3   9   18.12    0.48 
   2   3  -9   18.26    0.61 
   1  -3  -9    1.55    0.11 
   1  -3  -9    1.38    0.20 
   1  -3  -9    1.83    0.20 
   1  -3  -9    1.73    0.19 
   1  -3  -9    1.61    0.20 
   1  -3  -9    1.69    0.15 
   1  -3  -9    1.51    0.21 
  -1  -3   9    1.63    0.14 
   1  -3  -9    1.41    0.16 
   1   3  -9    1.45    0.16 
  -1   3   9    1.58    0.20 
  -1   3   9    1.67    0.11 
  -1   3   9    0.95    0.24 
  -1   3   9    1.51    0.20 
  -1   3   9    1.59    0.13 
   1   3  -9    1.54    0.13 
  -1   3   9    1.55    0.18 
  -1   3   9    1.42    0.18 
  -1   3   9    1.24    0.24 
  -1   3   9    1.73    0.23 
   1   3  -9    1.43    0.16 
   1   3  -9    1.41    0.12 
  -1   3   9    1.39    0.24 
  -1   3   9    1.57    0.19 
   0  -3  -9    6.22    0.34 
   0  -3  -9    7.07    0.31 
   0  -3  -9    6.58    0.30 
   0  -3  -9    7.28    0.34 
   0  -3  -9    6.73    0.30 
   0  -3  -9    6.67    0.35 
   0  -3   9    6.46    0.30 
   0  -3  -9    6.70    0.32 
   0  -3  -9    6.35    0.29 
   0  -3  -9    6.87    0.25 
   0   3   9    6.45    0.25 
   0   3   9    6.50    0.32 
   0   3   9    6.38    0.35 
   0   3   9    6.38    0.35 
   0   3   9    6.50    0.30 
   0   3  -9    6.44    0.22 
   0   3  -9    6.44    0.22 
   0   3  -9    6.16    0.26 
   0   3   9    6.30    0.32 
   0   3  -9    6.57    0.26 
  -1  -3  -9    8.95    0.28 
  -1  -3  -9    8.93    0.37 
  -1  -3  -9    9.04    0.27 
  -1  -3  -9    8.76    0.33 
  -1  -3  -9    9.39    0.43 
  -1  -3  -9    8.82    0.39 
  -1  -3  -9    8.45    0.36 
  -1  -3  -9    8.86    0.36 
  -1  -3  -9    8.39    0.41 
  -1  -3  -9    9.16    0.35 
   1  -3   9    9.48    0.38 
  -1  -3  -9    9.08    0.32 
  -1   3  -9    8.52    0.27 
  -1   3  -9    8.53    0.32 
   1   3   9    8.66    0.36 
   1   3   9    8.12    0.36 
   1   3   9    8.71    0.30 
   1   3   9    8.94    0.43 
  -2  -3  -9   11.11    0.43 
  -2  -3  -9   11.30    0.29 
  -2  -3  -9   10.30    0.40 
  -2  -3  -9   10.94    0.39 
  -2  -3  -9   11.36    0.37 
  -2  -3  -9   10.75    0.36 
  -2  -3  -9   10.38    0.44 
  -2  -3  -9   10.84    0.41 
  -2  -3  -9   10.18    0.47 
   2   3   9    9.87    0.40 
   2   3   9   10.23    0.42 
  -2   3  -9   10.87    0.36 
   2   3   9    9.94    0.34 
  -3  -3  -9    0.74    0.17 
  -3  -3  -9    0.39    0.09 
  -3  -3  -9    0.62    0.12 
  -3  -3  -9    0.66    0.16 
  -3  -3  -9    0.58    0.15 
  -3   3  -9    0.64    0.08 
   3   3   9    0.43    0.09 
  -4  -3  -9    2.09    0.11 
  -4  -3  -9    1.93    0.13 
  -4  -3  -9    1.79    0.15 
  -4  -3  -9    1.70    0.13 
   4   3   9    1.81    0.14 
   6  -4  -9    5.13    0.19 
  -6  -4   9    4.89    0.16 
  -6  -4   9    5.03    0.22 
  -6  -4   9    4.78    0.19 
   6  -4  -9    4.67    0.21 
   6  -4  -9    4.94    0.16 
  -6   4   9    4.78    0.20 
  -6   4   9    4.07    0.20 
  -6   4   9    4.38    0.19 
   6   4  -9    4.74    0.19 
   6   4  -9    4.88    0.17 
  -6   4   9    4.72    0.19 
   6   4  -9    4.61    0.19 
  -6   4   9    4.63    0.18 
   6   4  -9    4.74    0.15 
   6   4  -9    4.63    0.20 
   6   4  -9    4.87    0.13 
   6   4  -9    4.49    0.18 
   5  -4  -9   13.33    0.45 
  -5  -4   9   13.64    0.40 
   5  -4  -9   13.29    0.48 
  -5  -4   9   12.75    0.71 
   5  -4  -9   13.49    0.40 
  -5  -4   9   13.54    0.45 
  -5   4   9   13.02    0.45 
  -5   4   9   13.25    0.47 
  -5   4   9   13.09    0.34 
   5   4  -9   12.65    0.43 
   5   4  -9   12.88    0.39 
   5   4  -9   13.28    0.42 
   5   4  -9   13.41    0.45 
   5   4  -9   13.11    0.35 
   5   4  -9   12.88    0.43 
   5   4  -9   13.01    0.38 
  -5   4   9   12.62    0.40 
  -5   4   9   13.50    0.45 
   5   4  -9   12.84    0.45 
  -5   4   9   12.97    0.38 
  -4  -4   9    1.27    0.26 
  -4  -4   9    1.66    0.15 
   4  -4  -9    1.71    0.26 
   4  -4  -9    1.44    0.12 
   4  -4  -9    1.59    0.14 
   4  -4  -9    1.80    0.18 
  -4   4   9    1.66    0.16 
  -4   4   9    1.76    0.17 
  -4   4   9    1.83    0.16 
  -4   4   9    1.51    0.18 
  -4   4   9    1.57    0.18 
   4   4  -9    1.78    0.12 
  -4   4   9    1.43    0.20 
  -4   4   9    1.75    0.19 
  -4   4   9    1.54    0.13 
   4   4  -9    1.64    0.16 
   4   4  -9    1.73    0.14 
   4   4  -9    1.59    0.15 
   4   4  -9    1.94    0.14 
   4   4  -9    1.75    0.14 
  -4   4   9    1.65    0.13 
  -4   4   9    1.75    0.15 
  -4   4   9    1.39    0.18 
   3  -4  -9    5.66    0.30 
   3  -4  -9    6.13    0.30 
   3  -4  -9    5.94    0.25 
   3  -4  -9    5.95    0.32 
   3  -4  -9    6.46    0.44 
   3  -4  -9    6.12    0.22 
  -3   4   9    5.66    0.23 
  -3   4   9    5.80    0.21 
   3   4  -9    5.87    0.22 
  -3   4   9    5.70    0.31 
   3   4  -9    5.94    0.22 
   3   4  -9    5.80    0.23 
   3   4  -9    5.21    0.25 
  -3   4   9    5.51    0.28 
  -3   4   9    5.59    0.28 
  -3   4   9    5.14    0.30 
  -3   4   9    5.66    0.30 
  -3   4   9    5.72    0.30 
  -3   4   9    5.79    0.26 
  -3   4   9    5.38    0.31 
   3   4  -9    5.63    0.24 
  -3   4   9    5.74    0.24 
   2  -4  -9    1.60    0.15 
   2  -4  -9    1.51    0.19 
   2  -4  -9    1.49    0.20 
   2  -4  -9    1.20    0.18 
   2  -4  -9    1.60    0.13 
   2  -4  -9    1.88    0.28 
  -2   4   9    1.10    0.21 
  -2   4   9    1.57    0.16 
  -2   4   9    1.40    0.12 
  -2   4   9    1.64    0.20 
  -2   4   9    1.47    0.22 
   2   4  -9    1.48    0.15 
  -2   4   9    1.74    0.21 
   2   4  -9    1.53    0.14 
  -2   4   9    1.09    0.21 
  -2   4   9    1.37    0.19 
   2   4  -9    1.37    0.12 
  -2   4   9    1.77    0.21 
   2   4  -9    1.48    0.10 
  -2   4   9    1.28    0.20 
   1  -4  -9    7.62    0.33 
   1  -4  -9    7.79    0.26 
   1  -4  -9    8.02    0.34 
   1  -4  -9    8.03    0.38 
   1  -4  -9    8.10    0.37 
   1  -4  -9    7.31    0.33 
  -1   4   9    7.27    0.37 
  -1   4   9    7.38    0.21 
  -1   4   9    7.57    0.33 
  -1   4   9    7.46    0.28 
  -1   4   9    7.41    0.38 
  -1   4   9    7.63    0.37 
  -1   4   9    7.58    0.23 
  -1   4   9    6.32    0.39 
   1   4  -9    7.51    0.28 
  -1   4   9    7.21    0.37 
  -1   4   9    7.69    0.33 
  -1   4   9    7.65    0.35 
   1   4  -9    7.68    0.28 
   1   4  -9    7.49    0.24 
   0  -4  -9    8.96    0.35 
   0  -4  -9    8.25    0.30 
   0  -4  -9    8.91    0.33 
   0  -4  -9    8.81    0.36 
   0  -4  -9    8.80    0.36 
   0  -4  -9    8.67    0.40 
   0   4   9    8.19    0.36 
   0   4   9    8.39    0.29 
   0   4   9    8.33    0.32 
   0   4   9    8.09    0.41 
   0   4   9    9.07    0.41 
   0   4   9    8.44    0.24 
   0   4   9    8.73    0.37 
   0   4   9    8.98    0.36 
   0   4   9    8.53    0.41 
  -1  -4  -9   13.31    0.41 
  -1  -4  -9   13.53    0.45 
  -1  -4  -9   13.70    0.48 
  -1  -4  -9   14.50    0.57 
  -1  -4  -9   13.75    0.50 
  -1  -4  -9   14.12    0.49 
   1   4   9   13.43    0.34 
   1   4   9   12.74    0.48 
   1   4   9   12.61    0.50 
  -1   4  -9   13.19    0.42 
   1   4   9   12.91    0.53 
  -2  -4  -9    4.94    0.21 
  -2  -4  -9    5.01    0.23 
  -2  -4  -9    4.69    0.16 
  -2  -4  -9    4.94    0.23 
  -2  -4  -9    5.14    0.25 
  -2  -4  -9    4.62    0.21 
   2   4   9    4.42    0.21 
   2   4   9    4.19    0.23 
   2   4   9    4.17    0.15 
  -3  -4  -9    1.06    0.11 
  -3  -4  -9    0.51    0.13 
  -3  -4  -9    0.98    0.13 
   3   4   9    0.85    0.13 
   3   4   9    0.78    0.07 
   3   4   9    0.53    0.11 
   5  -5  -9    1.95    0.09 
  -5  -5   9    2.04    0.10 
  -5  -5   9    2.18    0.11 
   5  -5  -9    1.93    0.11 
   5   5  -9    2.15    0.11 
  -5   5   9    1.77    0.08 
   5   5  -9    1.88    0.09 
  -5   5   9    1.81    0.11 
   5   5  -9    2.09    0.10 
  -5   5   9    1.89    0.12 
  -5   5   9    2.08    0.12 
  -5   5   9    1.93    0.11 
   5   5  -9    1.92    0.12 
   4  -5  -9    1.51    0.15 
  -4  -5   9    1.52    0.11 
   4  -5  -9    1.58    0.11 
   4  -5  -9    1.49    0.09 
   4   5  -9    1.49    0.12 
  -4   5   9    1.64    0.14 
  -4   5   9    1.53    0.14 
  -4   5   9    1.49    0.07 
  -4   5   9    1.44    0.12 
   4   5  -9    1.25    0.09 
  -4   5   9    1.28    0.12 
  -4   5   9    1.29    0.12 
   4   5  -9    1.32    0.11 
  -4   5   9    1.52    0.09 
   3  -5  -9    0.24    0.05 
   3  -5  -9    0.34    0.08 
   3  -5  -9    0.13    0.06 
  -3   5   9    0.25    0.08 
  -3   5   9    0.46    0.07 
   3   5  -9    0.23    0.06 
  -3   5   9    0.36    0.08 
  -3   5   9    0.51    0.10 
  -3   5   9    0.32    0.06 
  -3   5   9    0.34    0.06 
  -3   5   9    0.37    0.08 
  -3   5   9    0.31    0.08 
   3   5  -9    0.29    0.07 
   3   5  -9    0.37    0.08 
   2  -5  -9    4.00    0.15 
   2  -5  -9    4.13    0.22 
   2  -5  -9    3.80    0.18 
  -2   5   9    3.67    0.21 
  -2   5   9    4.02    0.14 
  -2   5   9    3.44    0.23 
  -2   5   9    3.98    0.21 
  -2   5   9    3.71    0.18 
  -2   5   9    3.87    0.20 
  -2   5   9    3.85    0.18 
   2   5  -9    3.56    0.12 
   2   5  -9    3.98    0.17 
  -2   5   9    4.03    0.21 
  -2   5   9    3.96    0.15 
   1  -5  -9    2.86    0.12 
   1  -5  -9    3.06    0.20 
  -1   5   9    2.71    0.19 
  -1   5   9    2.85    0.14 
  -1   5   9    2.23    0.19 
  -1   5   9    2.52    0.10 
  -1   5   9    2.39    0.15 
  -1   5   9    2.60    0.18 
  -1   5   9    2.57    0.18 
  -1   5   9    2.77    0.16 
  -1   5   9    2.52    0.20 
  -1   5   9    2.34    0.17 
   0  -5  -9    6.11    0.26 
   0  -5  -9    5.95    0.26 
   0  -5  -9    5.68    0.24 
   0   5   9    5.52    0.26 
   0   5   9    5.10    0.30 
   0   5   9    5.87    0.24 
   0   5   9    5.94    0.25 
   0   5   9    5.37    0.20 
  -1  -5  -9    3.20    0.18 
  -1  -5  -9    3.38    0.18 
  -1  -5  -9    3.30    0.17 
   1   5   9    2.90    0.17 
   1   5   9    2.69    0.18 
   1   5   9    2.94    0.17 
  -2  -5  -9    0.25    0.05 
  -2  -5  -9    0.23    0.04 
  -2  -5  -9    0.39    0.10 
  -2  -5  -9    0.14    0.06 
  -2  -5  -9    0.10    0.06 
   2   5   9    0.20    0.07 
   2   5   9    0.21    0.06 
   2   5   9    0.19    0.05 
   7   0 -10    0.13    0.08 
   7   0 -10    0.15    0.04 
  -7   0  10    0.15    0.04 
   7   0 -10    0.21    0.06 
  -7   0  10    0.06    0.09 
   7   0 -10    0.22    0.07 
  -7   0  10   -0.03    0.10 
   7   0 -10    0.20    0.08 
  -6   0  10    0.83    0.22 
   6   0 -10    1.01    0.18 
  -6   0  10    0.86    0.09 
  -6   0  10    0.80    0.18 
   6   0 -10    0.77    0.09 
   6   0 -10    1.10    0.13 
  -6   0  10    0.70    0.09 
   6   0 -10    0.72    0.16 
   6   0 -10    0.86    0.14 
  -6   0  10    0.97    0.15 
  -6   0  10    0.83    0.14 
   6   0 -10    1.11    0.17 
   6   0 -10    0.98    0.18 
  -6   0  10    1.13    0.21 
   6   0 -10    0.92    0.16 
  -5   0  10    2.49    0.14 
   5   0 -10    2.89    0.22 
   5   0 -10    2.88    0.20 
   5   0 -10    2.58    0.20 
   5   0 -10    2.83    0.22 
   5   0 -10    2.76    0.13 
   5   0 -10    2.94    0.18 
  -5   0  10    2.83    0.23 
   5   0 -10    2.68    0.18 
  -5   0  10    2.63    0.20 
   5   0 -10    2.75    0.23 
  -5   0  10    2.71    0.20 
  -5   0  10    2.89    0.23 
   5   0 -10    2.96    0.22 
  -5   0  10    2.45    0.26 
   5   0 -10    2.85    0.18 
  -5   0  10    2.68    0.16 
  -4   0  10    5.83    0.33 
  -4   0  10    5.32    0.26 
   4   0 -10    5.56    0.25 
  -4   0  10    5.55    0.31 
  -4   0  10    5.07    0.21 
   4   0 -10    5.31    0.27 
  -4   0  10    5.76    0.32 
  -4   0  10    5.46    0.35 
   4   0 -10    5.65    0.34 
  -4   0  10    5.45    0.34 
   4   0 -10    5.25    0.19 
   4   0 -10    5.63    0.24 
   4   0 -10    5.32    0.24 
  -4   0  10    5.48    0.44 
   4   0 -10    5.22    0.28 
   4   0 -10    5.60    0.30 
   4   0 -10    5.29    0.27 
   4   0 -10    5.55    0.26 
   4   0 -10    5.49    0.18 
   4   0 -10    5.62    0.31 
   4   0 -10    4.40    0.29 
  -4   0  10    5.15    0.33 
  -3   0  10    2.86    0.31 
  -3   0  10    3.50    0.28 
   3   0 -10    2.80    0.33 
  -3   0  10    2.93    0.26 
  -3   0  10    3.15    0.26 
   3   0 -10    2.99    0.17 
   3   0 -10    3.08    0.24 
   3   0 -10    3.61    0.26 
  -3   0  10    3.13    0.36 
  -3   0  10    3.38    0.26 
   3   0 -10    3.11    0.24 
   3   0 -10    3.53    0.24 
   3   0 -10    2.97    0.24 
  -3   0  10    3.22    0.26 
   2   0 -10  169.62    6.95 
  -2   0  10  166.92    8.00 
   2   0 -10  164.91    5.49 
  -2   0  10  165.95    5.55 
   2   0 -10  167.06    6.06 
  -2   0  10  171.38    7.33 
   2   0 -10  169.62    8.40 
  -2   0  10  164.53    5.87 
   2   0 -10  162.21    5.73 
  -2   0  10  169.61    5.90 
   2   0 -10  166.16    6.13 
   1   0 -10    1.78    0.25 
  -1   0  10    1.77    0.25 
  -1   0  10    1.75    0.26 
   1   0 -10    2.38    0.20 
  -1   0  10    1.89    0.21 
   1   0 -10    1.99    0.19 
   1   0 -10    2.20    0.23 
  -1   0  10    1.76    0.24 
  -1   0  10    2.21    0.22 
   1   0 -10    1.92    0.21 
   1   0 -10    2.29    0.22 
  -1   0  10    1.91    0.22 
   0   0  10    6.08    0.34 
   0   0 -10    7.07    0.35 
   0   0  10    7.06    0.45 
   0   0  10    7.01    0.35 
   0   0 -10    6.17    0.35 
   0   0 -10    6.58    0.32 
   0   0 -10    6.59    0.30 
   0   0  10    5.24    0.42 
   0   0 -10    6.71    0.32 
   0   0  10    6.11    0.31 
   0   0 -10    5.38    0.41 
   0   0 -10    6.55    0.38 
   0   0  10    6.48    0.33 
   1   0  10   23.62    0.79 
  -1   0 -10   26.84    0.97 
   1   0  10   23.49    0.93 
   1   0  10   24.83    0.94 
  -1   0 -10   23.05    0.82 
  -1   0 -10   23.26    0.75 
   1   0  10   24.80    0.88 
   1   0  10   25.16    0.97 
  -1   0 -10   24.16    0.77 
  -1   0 -10   23.73    0.78 
  -1   0 -10   23.47    0.66 
  -1   0 -10   23.99    0.66 
  -1   0 -10   23.21    0.63 
   1   0  10   24.08    1.24 
  -1   0 -10   22.57    0.78 
  -1   0 -10   22.85    0.88 
   1   0  10   22.41    0.89 
  -2   0 -10   22.33    0.72 
   2   0  10   22.01    0.73 
  -2   0 -10   21.43    0.61 
  -2   0 -10   22.74    0.82 
  -2   0 -10   22.25    0.74 
  -2   0 -10   21.62    0.73 
   2   0  10   22.92    0.82 
   2   0  10   22.69    1.16 
   2   0  10   20.43    0.87 
  -2   0 -10   22.48    0.70 
  -2   0 -10   22.68    0.73 
  -2   0 -10   22.19    0.57 
  -3   0 -10    0.64    0.11 
  -3   0 -10    0.30    0.09 
   3   0  10    0.65    0.13 
  -3   0 -10    0.68    0.13 
  -3   0 -10    0.51    0.12 
   3   0  10    0.59    0.21 
  -3   0 -10    0.58    0.07 
  -3   0 -10    0.52    0.09 
  -4   0 -10    7.35    0.24 
  -4   0 -10    6.89    0.27 
  -4   0 -10    7.25    0.28 
  -4   0 -10    7.34    0.25 
  -4   0 -10    7.25    0.26 
  -4   0 -10    6.95    0.25 
   4   0  10    7.02    0.27 
   7  -1 -10    1.08    0.14 
  -7  -1  10    0.94    0.16 
  -7  -1  10    1.14    0.09 
  -7  -1  10    1.13    0.12 
   7  -1 -10    1.11    0.09 
   7  -1 -10    1.12    0.13 
  -7  -1  10    1.53    0.14 
   7  -1 -10    1.01    0.13 
  -7   1  10    1.27    0.17 
   7   1 -10    1.20    0.14 
   7   1 -10    1.05    0.12 
   7   1 -10    1.32    0.14 
  -7   1  10    1.37    0.14 
   7   1 -10    1.07    0.14 
  -7   1  10    1.03    0.16 
   6  -1 -10    5.65    0.27 
  -6  -1  10    5.40    0.26 
   6  -1 -10    6.09    0.25 
   6  -1 -10    5.67    0.27 
  -6  -1  10    5.60    0.28 
  -6  -1  10    5.54    0.25 
   6  -1 -10    5.87    0.29 
   6  -1 -10    6.06    0.26 
   6   1 -10    5.44    0.23 
   6   1 -10    5.55    0.25 
  -6   1  10    5.60    0.17 
   6   1 -10    5.29    0.25 
  -6   1  10    5.48    0.31 
  -6   1  10    5.44    0.29 
   6   1 -10    5.16    0.28 
  -6   1  10    5.65    0.27 
  -6   1  10    5.28    0.28 
   6   1 -10    5.19    0.29 
   6   1 -10    4.99    0.21 
   6   1 -10    5.33    0.21 
   6   1 -10    5.61    0.27 
  -6   1  10    5.58    0.23 
   5  -1 -10    6.30    0.28 
  -5  -1  10    6.24    0.31 
   5  -1 -10    6.24    0.30 
  -5  -1  10    5.71    0.34 
  -5  -1  10    6.36    0.43 
   5  -1 -10    6.42    0.31 
   5  -1 -10    5.85    0.30 
   5  -1 -10    6.23    0.29 
   5  -1 -10    6.13    0.22 
  -5  -1  10    6.51    0.34 
   5  -1 -10    5.86    0.33 
   5  -1 -10    6.49    0.27 
  -5  -1  10    6.26    0.22 
   5   1 -10    5.84    0.34 
   5   1 -10    5.42    0.26 
   5   1 -10    5.93    0.23 
  -5   1  10    5.77    0.30 
   5   1 -10    6.07    0.29 
   5   1 -10    5.80    0.20 
  -5   1  10    5.88    0.21 
   5   1 -10    6.18    0.30 
  -5   1  10    6.00    0.34 
   5   1 -10    5.85    0.16 
  -5   1  10    6.28    0.27 
   5   1 -10    5.79    0.24 
   5   1 -10    5.98    0.27 
   5   1 -10    6.16    0.31 
  -5   1  10    6.05    0.22 
  -5   1  10    5.77    0.29 
  -5   1  10    6.57    0.32 
   5   1 -10    6.30    0.33 
   5   1 -10    5.97    0.27 
   4  -1 -10    2.85    0.23 
   4  -1 -10    3.02    0.14 
   4  -1 -10    3.02    0.23 
  -4  -1  10    3.06    0.27 
   4  -1 -10    3.00    0.22 
  -4  -1  10    2.73    0.27 
   4  -1 -10    2.71    0.24 
   4  -1 -10    2.62    0.20 
  -4  -1  10    2.87    0.16 
  -4  -1  10    3.22    0.33 
  -4  -1  10    2.97    0.19 
   4  -1 -10    2.49    0.20 
  -4  -1  10    2.82    0.26 
  -4  -1  10    3.22    0.25 
  -4  -1  10    3.07    0.25 
   4  -1 -10    2.96    0.23 
   4  -1 -10    3.02    0.21 
   4  -1 -10    3.25    0.21 
   4   1 -10    3.33    0.22 
   4   1 -10    3.25    0.21 
  -4   1  10    3.32    0.24 
  -4   1  10    3.17    0.26 
   4   1 -10    3.19    0.19 
  -4   1  10    2.87    0.17 
   4   1 -10    3.37    0.24 
  -4   1  10    3.07    0.24 
  -4   1  10    2.82    0.26 
   4   1 -10    3.26    0.17 
   4   1 -10    3.19    0.25 
  -4   1  10    3.11    0.22 
   4   1 -10    3.18    0.23 
   4   1 -10    2.87    0.21 
   4   1 -10    3.14    0.21 
   4   1 -10    3.06    0.21 
   3  -1 -10   10.44    0.38 
  -3  -1  10   10.07    0.61 
   3  -1 -10    8.99    0.54 
  -3  -1  10   10.44    0.46 
   3  -1 -10   10.08    0.44 
   3  -1 -10    9.84    0.45 
  -3  -1  10   10.92    0.60 
  -3  -1  10   11.31    0.49 
  -3  -1  10    9.92    0.48 
   3  -1 -10   10.10    0.31 
   3  -1 -10    8.64    0.66 
   3   1 -10    8.37    0.50 
  -3   1  10    8.57    0.46 
  -3   1  10    9.69    0.39 
   3   1 -10   10.02    0.33 
  -3   1  10    9.92    0.46 
   3   1 -10   10.42    0.43 
   3   1 -10   10.40    0.47 
  -3   1  10   10.23    0.45 
   3   1 -10    9.97    0.43 
   3   1 -10    9.72    0.46 
   3   1 -10   10.68    0.41 
   3   1 -10    8.01    0.59 
   2  -1 -10    6.10    0.52 
   2  -1 -10    6.82    0.29 
   2  -1 -10    7.35    0.39 
  -2  -1  10    7.62    0.38 
   2  -1 -10    7.22    0.35 
   2  -1 -10    7.64    0.37 
   2  -1 -10    7.07    0.35 
   2  -1 -10    7.49    0.35 
   2  -1 -10    6.16    0.41 
  -2  -1  10    7.64    0.36 
  -2  -1  10    7.89    0.39 
  -2  -1  10    7.58    0.47 
  -2  -1  10    6.85    0.34 
   2  -1 -10    7.35    0.22 
  -2  -1  10    7.84    0.49 
  -2   1  10    7.28    0.38 
   2   1 -10    7.02    0.35 
   2   1 -10    7.10    0.33 
   2   1 -10    7.56    0.25 
   2   1 -10    7.46    0.37 
   2   1 -10    7.15    0.40 
   2   1 -10    7.14    0.34 
  -2   1  10    6.79    0.48 
   2   1 -10    7.23    0.34 
  -2   1  10    7.08    0.37 
  -2   1  10    6.78    0.37 
  -2   1  10    7.23    0.47 
   2   1 -10    5.92    0.45 
  -2   1  10    7.19    0.36 
  -2   1  10    6.85    0.38 
   1  -1 -10   22.44    0.91 
   1  -1 -10   22.69    0.81 
   1  -1 -10   22.58    0.72 
  -1  -1  10   21.81    1.15 
  -1  -1  10   22.88    0.83 
   1  -1 -10   22.00    1.23 
  -1  -1  10   22.16    0.87 
   1  -1 -10   21.97    0.87 
   1  -1 -10   21.99    0.83 
  -1  -1  10   21.08    0.86 
  -1  -1  10   23.20    0.82 
   1  -1 -10   18.82    0.99 
   1   1 -10   21.40    0.79 
  -1   1  10   18.38    1.05 
  -1   1  10   21.64    0.85 
  -1   1  10   22.58    0.85 
  -1   1  10   21.77    1.12 
   1   1 -10   18.79    0.92 
   1   1 -10   21.00    0.82 
   1   1 -10   22.64    0.86 
   1   1 -10   21.57    0.79 
  -1   1  10   22.52    0.87 
  -1   1  10   21.96    0.81 
  -1   1  10   21.13    0.85 
   0  -1  10   38.89    1.51 
   0  -1 -10   41.63    1.47 
   0  -1 -10   42.21    1.77 
   0  -1 -10   41.64    1.42 
   0  -1 -10   41.99    1.55 
   0  -1 -10   43.47    2.17 
   0  -1  10   35.26    1.88 
   0  -1  10   39.93    2.03 
   0  -1  10   40.76    1.43 
   0  -1 -10   43.52    1.60 
   0  -1  10   42.88    1.48 
   0  -1  10   40.41    1.53 
   0   1 -10   42.75    1.44 
   0   1  10   38.41    1.53 
   0   1 -10   41.76    1.43 
   0   1  10   41.44    1.52 
   0   1 -10   41.41    1.55 
   0   1  10   35.62    1.88 
   0   1  10   40.75    1.52 
   0   1  10   40.99    2.04 
   0   1  10   42.36    1.44 
   0   1 -10   41.90    1.68 
  -1  -1 -10   65.16    2.33 
   1  -1  10   62.58    2.09 
   1  -1  10   61.90    2.17 
  -1  -1 -10   61.08    2.27 
   1  -1  10   58.54    2.21 
  -1  -1 -10   60.31    1.88 
  -1  -1 -10   59.93    1.87 
  -1  -1 -10   60.93    2.00 
  -1  -1 -10   60.16    1.70 
  -1  -1 -10   61.79    2.07 
  -1  -1 -10   64.16    2.16 
   1  -1  10   63.33    2.31 
  -1  -1 -10   59.50    1.91 
   1   1  10   61.55    2.21 
   1   1  10   61.96    2.08 
   1   1  10   60.30    1.89 
  -1   1 -10   59.64    1.90 
   1   1  10   59.43    1.96 
  -1   1 -10   65.00    2.08 
  -1   1 -10   58.20    1.72 
   1   1  10   63.59    2.24 
   1   1  10   61.94    2.20 
   1   1  10   56.02    2.97 
   1   1  10   58.00    2.29 
  -1   1 -10   62.06    2.11 
  -1   1 -10   60.29    1.84 
  -1   1 -10   61.29    1.78 
  -1   1 -10   61.36    1.89 
  -2  -1 -10    4.00    0.17 
  -2  -1 -10    3.93    0.25 
  -2  -1 -10    3.66    0.22 
  -2  -1 -10    3.65    0.23 
  -2  -1 -10    3.80    0.21 
  -2  -1 -10    4.22    0.20 
  -2  -1 -10    4.20    0.23 
  -2  -1 -10    3.97    0.23 
  -2  -1 -10    4.25    0.17 
  -2   1 -10    3.52    0.17 
  -2   1 -10    3.74    0.19 
   2   1  10    4.44    0.28 
  -2   1 -10    3.99    0.19 
  -2   1 -10    3.70    0.16 
   2   1  10    3.80    0.35 
   2   1  10    4.06    0.21 
   2   1  10    3.95    0.25 
  -2   1 -10    3.88    0.21 
  -2   1 -10    3.82    0.19 
  -3  -1 -10    0.94    0.12 
  -3  -1 -10    0.67    0.08 
  -3  -1 -10    0.85    0.15 
  -3  -1 -10    1.03    0.16 
  -3  -1 -10    0.83    0.12 
  -3  -1 -10    0.95    0.14 
   3  -1  10    0.83    0.13 
  -3  -1 -10    1.12    0.13 
  -3  -1 -10    1.06    0.15 
  -3  -1 -10    0.63    0.16 
  -3  -1 -10    1.02    0.14 
  -3   1 -10    0.94    0.11 
   3   1  10    0.69    0.22 
   3   1  10    0.80    0.13 
  -3   1 -10    0.73    0.12 
  -3   1 -10    0.90    0.14 
   3   1  10    0.65    0.11 
  -3   1 -10    0.88    0.12 
  -3   1 -10    0.96    0.10 
  -4  -1 -10    0.11    0.07 
  -4  -1 -10    0.30    0.07 
  -4  -1 -10    0.13    0.05 
  -4  -1 -10    0.01    0.07 
  -4  -1 -10    0.12    0.05 
   4  -1  10    0.10    0.05 
  -4  -1 -10    0.25    0.07 
  -4   1 -10    0.08    0.06 
  -4   1 -10    0.16    0.06 
  -4   1 -10    0.15    0.05 
   4   1  10    0.11    0.05 
  -4   1 -10    0.19    0.06 
   4   1  10    0.15    0.05 
   7  -2 -10    5.59    0.22 
  -7  -2  10    6.09    0.22 
   7  -2 -10    5.91    0.23 
   7  -2 -10    5.85    0.24 
  -7  -2  10    6.03    0.25 
  -7  -2  10    5.58    0.18 
   7   2 -10    5.72    0.23 
   7   2 -10    5.85    0.21 
  -7   2  10    5.88    0.22 
  -7   2  10    5.78    0.20 
   7   2 -10    6.08    0.24 
  -7   2  10    5.81    0.24 
   7   2 -10    5.87    0.18 
  -7   2  10    5.51    0.18 
  -7   2  10    5.84    0.25 
  -7   2  10    5.63    0.19 
   6  -2 -10   20.97    0.71 
  -6  -2  10   21.53    0.73 
   6  -2 -10   21.08    0.72 
  -6  -2  10   21.26    0.60 
   6  -2 -10   20.75    0.66 
  -6  -2  10   20.95    0.71 
   6  -2 -10   21.66    0.69 
   6   2 -10   21.20    0.66 
   6   2 -10   18.45    0.78 
  -6   2  10   18.65    0.79 
   6   2 -10   20.35    0.64 
   6   2 -10   20.09    0.69 
   6   2 -10   18.60    0.74 
   6   2 -10   20.29    0.54 
  -6   2  10   21.15    0.70 
   6   2 -10   20.46    0.54 
  -6   2  10   19.15    0.67 
  -6   2  10   20.52    0.58 
   6   2 -10   20.78    0.58 
  -6   2  10   20.46    0.66 
  -5  -2  10    8.71    0.55 
  -5  -2  10    9.12    0.29 
  -5  -2  10    8.92    0.33 
   5  -2 -10    8.94    0.35 
   5  -2 -10    9.63    0.34 
  -5  -2  10    8.14    0.42 
   5  -2 -10    8.57    0.40 
  -5  -2  10    9.11    0.38 
   5  -2 -10    9.40    0.37 
  -5  -2  10    9.20    0.42 
   5  -2 -10    9.39    0.36 
   5  -2 -10    8.59    0.30 
  -5   2  10    8.79    0.38 
  -5   2  10    8.67    0.42 
   5   2 -10    8.90    0.37 
  -5   2  10    9.02    0.42 
  -5   2  10    9.24    0.24 
   5   2 -10    8.86    0.35 
   5   2 -10    9.02    0.36 
   5   2 -10    9.50    0.31 
  -5   2  10    9.02    0.33 
   5   2 -10    8.70    0.39 
   5   2 -10    8.75    0.28 
   5   2 -10    8.71    0.34 
  -5   2  10    9.38    0.31 
   5   2 -10    8.72    0.30 
  -5   2  10    8.77    0.41 
  -5   2  10    8.99    0.37 
   5   2 -10    8.64    0.33 
   5   2 -10    9.00    0.31 
   5   2 -10    9.49    0.40 
  -5   2  10    8.92    0.37 
   5   2 -10    8.70    0.28 
   4  -2 -10    0.79    0.16 
  -4  -2  10    0.83    0.15 
  -4  -2  10    0.91    0.21 
  -4  -2  10    0.54    0.15 
   4  -2 -10    0.89    0.11 
   4  -2 -10    0.71    0.16 
  -4  -2  10    0.70    0.27 
   4  -2 -10    0.71    0.11 
   4  -2 -10    0.70    0.12 
   4  -2 -10    0.93    0.17 
   4  -2 -10    1.22    0.17 
   4   2 -10    0.58    0.16 
  -4   2  10    0.83    0.16 
   4   2 -10    0.67    0.14 
   4   2 -10    0.74    0.11 
   4   2 -10    0.56    0.16 
  -4   2  10    1.02    0.19 
   4   2 -10    0.45    0.11 
  -4   2  10    0.92    0.12 
   4   2 -10    0.67    0.16 
   4   2 -10    0.94    0.12 
  -4   2  10    0.72    0.21 
   4   2 -10    0.80    0.15 
   4   2 -10    0.94    0.15 
   4   2 -10    0.77    0.15 
   4   2 -10    0.93    0.14 
  -4   2  10    1.00    0.16 
   4   2 -10    0.62    0.15 
  -4   2  10    0.79    0.07 
  -4   2  10    0.97    0.18 
  -4   2  10    0.66    0.17 
  -4   2  10    1.03    0.15 
   4   2 -10    1.00    0.14 
   4   2 -10    0.99    0.17 
  -4   2  10    0.58    0.13 
  -4   2  10    0.76    0.16 
  -3  -2  10    4.72    0.39 
   3  -2 -10    5.06    0.28 
   3  -2 -10    4.61    0.27 
   3  -2 -10    4.87    0.20 
   3  -2 -10    4.79    0.24 
  -3  -2  10    4.85    0.29 
   3  -2 -10    4.94    0.29 
  -3  -2  10    5.01    0.25 
   3  -2 -10    4.70    0.26 
  -3  -2  10    4.06    0.31 
   3  -2 -10    5.01    0.29 
  -3  -2  10    4.82    0.24 
  -3  -2  10    4.70    0.31 
   3  -2 -10    5.24    0.25 
   3  -2 -10    5.09    0.29 
   3   2 -10    4.28    0.23 
  -3   2  10    4.60    0.27 
  -3   2  10    4.49    0.19 
   3   2 -10    4.61    0.17 
   3   2 -10    4.51    0.24 
   3   2 -10    4.31    0.25 
  -3   2  10    4.91    0.25 
  -3   2  10    4.87    0.30 
   3   2 -10    4.46    0.26 
   3   2 -10    4.63    0.27 
   3   2 -10    4.52    0.22 
  -3   2  10    4.80    0.27 
   3   2 -10    4.93    0.23 
   3   2 -10    4.31    0.25 
   3   2 -10    4.60    0.24 
   3   2 -10    4.64    0.20 
  -3   2  10    5.18    0.31 
   3   2 -10    4.07    0.25 
   3   2 -10    4.61    0.17 
  -3   2  10    3.61    0.28 
   2  -2 -10   25.19    0.80 
   2  -2 -10   23.65    0.83 
  -2  -2  10   24.38    0.90 
  -2  -2  10   25.21    0.95 
  -2  -2  10   24.40    1.25 
   2  -2 -10   24.15    0.81 
  -2  -2  10   24.43    0.79 
   2  -2 -10   24.71    0.70 
   2  -2 -10   24.52    0.92 
   2  -2 -10   24.77    0.81 
  -2  -2  10   24.81    0.96 
  -2  -2  10   23.59    0.90 
   2  -2 -10   24.49    0.94 
   2  -2 -10   25.21    0.90 
   2  -2 -10   23.83    0.71 
   2  -2 -10   22.79    0.85 
   2  -2 -10   24.06    0.76 
   2   2 -10   23.63    0.62 
  -2   2  10   23.53    0.68 
  -2   2  10   24.07    0.90 
   2   2 -10   24.16    0.79 
  -2   2  10   24.32    0.72 
  -2   2  10   23.77    0.94 
   2   2 -10   24.76    0.87 
   2   2 -10   24.85    0.95 
   2   2 -10   23.63    0.78 
  -2   2  10   24.16    0.93 
   2   2 -10   23.97    0.77 
  -2   2  10   22.82    0.83 
   2   2 -10   24.21    0.66 
   2   2 -10   24.99    0.88 
   2   2 -10   23.89    0.75 
  -2   2  10   23.82    0.81 
   2   2 -10   24.10    0.80 
  -1  -2  10    0.67    0.17 
   1  -2 -10    0.73    0.15 
   1  -2 -10    0.79    0.10 
   1  -2 -10    0.48    0.12 
   1  -2 -10    0.57    0.07 
   1  -2 -10    0.82    0.16 
   1  -2 -10    0.41    0.13 
   1  -2 -10    0.55    0.10 
   1  -2 -10    0.48    0.12 
   1  -2 -10    0.30    0.11 
   1  -2 -10    0.22    0.11 
   1  -2 -10    0.62    0.08 
  -1  -2  10    0.44    0.14 
   1  -2 -10    0.77    0.19 
   1  -2 -10    0.84    0.12 
  -1   2  10    0.75    0.17 
   1   2 -10    0.28    0.09 
  -1   2  10    0.64    0.16 
  -1   2  10    0.49    0.07 
  -1   2  10    0.89    0.20 
   1   2 -10    0.58    0.10 
  -1   2  10    0.39    0.11 
  -1   2  10    0.69    0.20 
   1   2 -10    0.65    0.10 
   1   2 -10    0.50    0.08 
   1   2 -10    0.20    0.08 
   1   2 -10    0.51    0.09 
   1   2 -10    0.48    0.10 
   1   2 -10    0.54    0.10 
   0  -2 -10    0.03    0.13 
   0  -2 -10   -0.17    0.12 
   0  -2 -10   -0.06    0.06 
   0  -2 -10    0.12    0.08 
   0  -2 -10    0.00    0.07 
   0  -2 -10    0.04    0.06 
   0  -2 -10    0.09    0.10 
   0  -2 -10   -0.07    0.11 
   0  -2 -10    0.15    0.11 
   0  -2 -10   -0.04    0.11 
   0  -2 -10   -0.05    0.12 
   0  -2 -10    0.00    0.10 
   0  -2  10    0.05    0.09 
   0  -2 -10    0.02    0.10 
   0   2  10   -0.05    0.12 
   0   2  10   -0.04    0.12 
   0   2  10    0.09    0.13 
   0   2  10    0.04    0.11 
   0   2  10    0.01    0.06 
   0   2  10    0.21    0.15 
   0   2 -10   -0.03    0.08 
   0   2 -10   -0.04    0.08 
   0   2 -10    0.10    0.06 
   0   2 -10    0.08    0.08 
   0   2 -10    0.03    0.08 
   0   2  10    0.25    0.12 
   0   2  10    0.09    0.13 
   0   2 -10   -0.02    0.05 
   0   2  10    0.02    0.12 
  -1  -2 -10    6.53    0.27 
  -1  -2 -10    6.11    0.27 
  -1  -2 -10    6.28    0.34 
  -1  -2 -10    6.65    0.34 
  -1  -2 -10    6.69    0.34 
  -1  -2 -10    6.66    0.18 
  -1  -2 -10    6.65    0.25 
  -1  -2 -10    6.62    0.32 
  -1  -2 -10    6.83    0.23 
  -1  -2 -10    6.37    0.29 
  -1  -2 -10    6.19    0.29 
   1  -2  10    6.50    0.30 
  -1   2 -10    6.61    0.26 
   1   2  10    6.37    0.23 
   1   2  10    5.87    0.35 
   1   2  10    6.28    0.31 
   1   2  10    6.19    0.38 
   1   2  10    6.16    0.35 
   1   2  10    6.58    0.33 
   1   2  10    6.37    0.45 
   1   2  10    6.28    0.35 
  -1   2 -10    6.30    0.23 
  -1   2 -10    6.41    0.23 
  -1   2 -10    6.49    0.26 
  -2  -2 -10   12.21    0.43 
  -2  -2 -10   11.64    0.36 
  -2  -2 -10   12.02    0.39 
  -2  -2 -10   12.03    0.50 
  -2  -2 -10   12.02    0.47 
  -2  -2 -10   11.93    0.39 
  -2  -2 -10   12.64    0.49 
  -2  -2 -10   11.68    0.45 
  -2   2 -10   10.93    0.39 
   2   2  10   11.08    0.64 
  -2   2 -10   11.11    0.39 
   2   2  10   11.05    0.39 
   2   2  10   11.00    0.43 
  -2   2 -10   10.90    0.34 
  -2   2 -10   10.74    0.40 
   2   2  10   11.33    0.35 
  -3  -2 -10    5.65    0.25 
  -3  -2 -10    5.85    0.26 
  -3  -2 -10    5.55    0.19 
  -3  -2 -10    5.56    0.23 
  -3  -2 -10    5.49    0.19 
  -3  -2 -10    5.62    0.22 
  -3   2 -10    5.36    0.18 
  -3   2 -10    5.60    0.23 
  -3   2 -10    5.62    0.22 
   3   2  10    5.52    0.26 
  -3   2 -10    5.42    0.21 
   3   2  10    5.86    0.20 
  -4  -2 -10    1.01    0.12 
  -4  -2 -10    0.94    0.12 
  -4  -2 -10    0.98    0.10 
  -4  -2 -10    1.02    0.08 
  -4  -2 -10    1.10    0.12 
  -4   2 -10    0.99    0.08 
  -4   2 -10    0.87    0.08 
   4   2  10    0.94    0.07 
   4   2  10    1.01    0.12 
  -6  -3  10    0.41    0.08 
  -6  -3  10    0.47    0.07 
   6  -3 -10    0.56    0.13 
   6   3 -10    0.57    0.08 
  -6   3  10    0.67    0.11 
   6   3 -10    0.53    0.11 
  -6   3  10    0.46    0.10 
   6   3 -10    0.53    0.05 
  -6   3  10    0.54    0.13 
  -6   3  10    0.74    0.11 
   6   3 -10    0.53    0.10 
  -6   3  10    0.41    0.09 
   6   3 -10    0.37    0.06 
   6   3 -10    0.60    0.10 
   6   3 -10    0.42    0.10 
  -6   3  10    0.34    0.08 
  -5  -3  10    6.14    0.43 
   5  -3 -10    6.36    0.29 
   5  -3 -10    6.53    0.21 
  -5  -3  10    6.60    0.29 
  -5  -3  10    6.58    0.25 
   5  -3 -10    6.45    0.27 
   5   3 -10    6.23    0.21 
   5   3 -10    6.33    0.27 
  -5   3  10    6.07    0.30 
   5   3 -10    6.54    0.25 
   5   3 -10    6.37    0.24 
  -5   3  10    6.58    0.29 
   5   3 -10    6.43    0.21 
   5   3 -10    6.72    0.26 
  -5   3  10    6.38    0.27 
   5   3 -10    6.69    0.26 
  -5   3  10    6.41    0.20 
  -5   3  10    6.48    0.32 
   5   3 -10    5.83    0.29 
  -5   3  10    5.85    0.31 
  -5   3  10    6.30    0.24 
   5   3 -10    6.43    0.18 
   5   3 -10    6.44    0.28 
  -4  -3  10    1.98    0.21 
  -4  -3  10    2.20    0.16 
   4  -3 -10    1.78    0.20 
   4  -3 -10    2.06    0.11 
   4  -3 -10    2.17    0.17 
   4  -3 -10    1.94    0.18 
  -4  -3  10    1.96    0.27 
   4  -3 -10    1.79    0.20 
   4  -3 -10    2.04    0.20 
   4   3 -10    1.87    0.15 
  -4   3  10    1.88    0.20 
   4   3 -10    1.85    0.18 
  -4   3  10    1.92    0.22 
   4   3 -10    1.51    0.16 
  -4   3  10    1.61    0.20 
   4   3 -10    1.87    0.16 
   4   3 -10    1.82    0.15 
  -4   3  10    1.78    0.21 
   4   3 -10    1.55    0.12 
  -4   3  10    1.45    0.21 
  -4   3  10    1.84    0.11 
  -4   3  10    1.71    0.20 
  -4   3  10    1.84    0.16 
  -4   3  10    1.90    0.21 
   4   3 -10    2.04    0.15 
   4   3 -10    1.96    0.18 
   4   3 -10    1.81    0.16 
   4   3 -10    2.12    0.17 
   3  -3 -10    1.99    0.19 
   3  -3 -10    1.28    0.20 
  -3  -3  10    2.01    0.20 
   3  -3 -10    1.59    0.19 
  -3  -3  10    1.80    0.15 
   3  -3 -10    1.33    0.18 
   3  -3 -10    1.57    0.11 
  -3  -3  10    1.66    0.26 
   3  -3 -10    1.75    0.19 
   3   3 -10    1.52    0.17 
  -3   3  10    1.51    0.10 
  -3   3  10    1.69    0.15 
   3   3 -10    1.62    0.10 
   3   3 -10    1.57    0.16 
  -3   3  10    1.12    0.22 
  -3   3  10    1.30    0.20 
  -3   3  10    1.54    0.21 
  -3   3  10    1.47    0.20 
  -3   3  10    1.43    0.09 
  -3   3  10    1.54    0.22 
   3   3 -10    1.76    0.14 
   3   3 -10    1.54    0.16 
   3   3 -10    1.72    0.15 
  -3   3  10    1.31    0.16 
   3   3 -10    1.65    0.15 
  -3   3  10    1.60    0.22 
  -2  -3  10    4.59    0.24 
   2  -3 -10    4.41    0.27 
   2  -3 -10    4.54    0.25 
   2  -3 -10    4.43    0.19 
   2  -3 -10    4.38    0.24 
   2  -3 -10    4.35    0.24 
   2  -3 -10    4.55    0.28 
   2  -3 -10    4.85    0.25 
  -2   3  10    4.69    0.21 
   2   3 -10    4.46    0.22 
  -2   3  10    4.54    0.28 
  -2   3  10    4.52    0.26 
   2   3 -10    4.31    0.22 
   2   3 -10    4.68    0.19 
   2   3 -10    4.57    0.20 
   2   3 -10    4.74    0.20 
  -2   3  10    4.99    0.16 
  -2   3  10    4.52    0.28 
  -2   3  10    4.42    0.23 
  -2   3  10    4.61    0.17 
   2   3 -10    4.34    0.21 
  -2   3  10    4.40    0.30 
  -2   3  10    4.55    0.29 
  -2   3  10    4.50    0.27 
   1  -3 -10    2.43    0.19 
  -1  -3  10    2.87    0.19 
   1  -3 -10    2.58    0.19 
   1  -3 -10    2.71    0.21 
   1  -3 -10    1.89    0.20 
   1  -3 -10    2.44    0.23 
   1  -3 -10    2.49    0.20 
   1  -3 -10    2.56    0.14 
   1  -3 -10    2.59    0.24 
   1  -3 -10    2.13    0.18 
  -1   3  10    2.36    0.20 
  -1   3  10    2.56    0.24 
   1   3 -10    2.53    0.16 
   1   3 -10    2.77    0.14 
  -1   3  10    2.60    0.13 
  -1   3  10    2.50    0.24 
  -1   3  10    2.56    0.26 
   1   3 -10    2.35    0.17 
  -1   3  10    2.42    0.23 
   1   3 -10    2.55    0.14 
   0  -3 -10    2.17    0.19 
   0  -3 -10    2.68    0.17 
   0  -3 -10    2.54    0.13 
   0  -3 -10    2.91    0.20 
   0  -3 -10    2.50    0.11 
   0  -3 -10    2.88    0.26 
   0  -3 -10    2.86    0.22 
   0  -3 -10    2.58    0.23 
   0  -3 -10    2.51    0.18 
   0   3  10    2.55    0.23 
   0   3  10    2.48    0.20 
   0   3  10    2.36    0.19 
   0   3 -10    2.52    0.16 
   0   3 -10    2.62    0.15 
   0   3  10    2.59    0.15 
   0   3 -10    2.38    0.13 
   0   3  10    2.18    0.25 
  -1  -3 -10   26.29    0.64 
  -1  -3 -10   25.69    0.79 
  -1  -3 -10   25.82    0.95 
  -1  -3 -10   26.43    0.87 
  -1  -3 -10   25.17    0.85 
  -1  -3 -10   27.33    0.86 
  -1  -3 -10   26.17    0.91 
  -1  -3 -10   27.55    0.84 
   1   3  10   24.61    0.73 
  -1   3 -10   25.17    0.70 
   1   3  10   24.17    0.84 
  -1   3 -10   25.57    0.79 
   1   3  10   25.73    0.83 
  -1   3 -10   24.63    0.81 
  -2  -3 -10    5.45    0.27 
  -2  -3 -10    5.34    0.24 
  -2  -3 -10    5.19    0.26 
  -2  -3 -10    5.27    0.21 
  -2  -3 -10    5.75    0.23 
  -2   3 -10    5.29    0.20 
   2   3  10    4.99    0.25 
  -3  -3 -10    3.15    0.14 
  -3  -3 -10    2.90    0.16 
  -3  -3 -10    2.80    0.18 
   3   3  10    3.10    0.18 
   5  -4 -10    0.22    0.04 
  -5  -4  10    0.11    0.04 
   5  -4 -10    0.22    0.07 
  -5  -4  10    0.40    0.09 
   5   4 -10    0.14    0.06 
   5   4 -10    0.31    0.05 
  -5   4  10    0.18    0.03 
   5   4 -10    0.42    0.10 
  -5   4  10    0.21    0.08 
  -5   4  10    0.25    0.07 
   5   4 -10    0.14    0.05 
   5   4 -10    0.07    0.06 
   5   4 -10    0.32    0.07 
  -5   4  10    0.27    0.05 
  -5   4  10    0.16    0.08 
  -5   4  10    0.21    0.05 
  -5   4  10    0.17    0.08 
   4  -4 -10    0.49    0.08 
   4  -4 -10    0.54    0.07 
  -4  -4  10    0.56    0.22 
  -4  -4  10    0.58    0.11 
   4   4 -10    0.51    0.11 
   4   4 -10    0.52    0.11 
  -4   4  10    0.49    0.07 
  -4   4  10    0.42    0.10 
   4   4 -10    0.27    0.07 
   4   4 -10    0.47    0.10 
  -4   4  10    0.29    0.07 
  -4   4  10    0.26    0.09 
  -4   4  10    0.56    0.14 
  -4   4  10    0.61    0.10 
  -4   4  10    0.77    0.12 
   4   4 -10    0.50    0.11 
  -4   4  10    0.12    0.09 
  -4   4  10    0.46    0.08 
   3  -4 -10    8.80    0.34 
   3  -4 -10    7.97    0.25 
   3  -4 -10    7.56    0.32 
  -3  -4  10    7.81    0.30 
   3   4 -10    7.78    0.26 
  -3   4  10    7.82    0.23 
  -3   4  10    8.20    0.33 
  -3   4  10    7.98    0.36 
  -3   4  10    7.59    0.34 
   3   4 -10    7.97    0.29 
  -3   4  10    7.86    0.30 
  -3   4  10    7.41    0.35 
   3   4 -10    7.97    0.29 
  -3   4  10    6.51    0.36 
  -3   4  10    7.80    0.36 
  -3   4  10    7.56    0.27 
   3   4 -10    7.87    0.26 
   3   4 -10    7.68    0.27 
   2  -4 -10   15.88    0.56 
   2  -4 -10   15.69    0.53 
   2  -4 -10   15.16    0.51 
   2  -4 -10   15.12    0.44 
   2  -4 -10   15.82    0.55 
  -2   4  10   15.36    0.62 
  -2   4  10   15.10    0.51 
  -2   4  10   14.65    0.45 
   2   4 -10   14.71    0.44 
   2   4 -10   14.61    0.49 
  -2   4  10   14.25    0.52 
  -2   4  10   15.43    0.55 
   2   4 -10   14.66    0.49 
  -2   4  10   14.13    0.59 
  -2   4  10   14.32    0.59 
  -2   4  10   14.30    0.57 
   1  -4 -10    5.09    0.25 
   1  -4 -10    5.10    0.24 
   1  -4 -10    5.22    0.24 
   1  -4 -10    5.16    0.25 
   1   4 -10    5.23    0.16 
  -1   4  10    5.18    0.26 
  -1   4  10    4.95    0.20 
  -1   4  10    4.21    0.28 
  -1   4  10    4.22    0.28 
  -1   4  10    5.13    0.26 
   1   4 -10    5.24    0.20 
  -1   4  10    5.21    0.27 
  -1   4  10    4.38    0.28 
  -1   4  10    4.82    0.14 
   0  -4 -10    1.61    0.16 
   0  -4 -10    1.54    0.14 
   0  -4 -10    1.86    0.15 
   0  -4 -10    1.71    0.19 
   0  -4 -10    1.72    0.17 
   0   4  10    1.88    0.21 
   0   4  10    1.81    0.09 
   0   4 -10    1.68    0.12 
   0   4  10    1.80    0.21 
   0   4  10    2.09    0.17 
   0   4  10    1.49    0.19 
   0   4  10    1.85    0.19 
  -1  -4 -10    6.05    0.27 
  -1  -4 -10    5.90    0.18 
  -1  -4 -10    6.10    0.25 
  -1  -4 -10    6.02    0.25 
  -1  -4 -10    6.21    0.23 
   1   4  10    5.64    0.16 
   1   4  10    5.35    0.26 
   1   4  10    5.59    0.26 
  -2  -4 -10    0.10    0.07 
  -2  -4 -10    0.03    0.04 
  -2  -4 -10    0.19    0.07 
  -2  -4 -10   -0.06    0.07 
   2   4  10    0.11    0.07 
   2   4  10    0.07    0.03 
   2   4  10    0.07    0.06 
  -4  -5  10    7.38    0.27 
   4  -5 -10    8.46    0.30 
   4   5 -10    7.03    0.21 
   4   5 -10    6.91    0.24 
  -4   5  10    7.36    0.25 
   4   5 -10    6.73    0.24 
  -4   5  10    6.95    0.22 
   3  -5 -10    4.92    0.22 
   3  -5 -10    4.81    0.15 
  -3  -5  10    5.10    0.19 
  -3   5  10    4.42    0.15 
  -3   5  10    4.55    0.17 
   3   5 -10    4.35    0.16 
  -3   5  10    3.81    0.19 
   3   5 -10    4.36    0.13 
   3   5 -10    4.43    0.17 
  -3   5  10    4.40    0.19 
  -3   5  10    4.34    0.19 
   2  -5 -10    5.62    0.24 
  -2   5  10    5.67    0.20 
  -2   5  10    5.77    0.18 
  -2   5  10    5.84    0.24 
  -2   5  10    5.91    0.24 
  -2   5  10    5.73    0.20 
   2   5 -10    5.61    0.21 
  -2   5  10    5.77    0.24 
   1  -5 -10    5.61    0.24 
   1  -5 -10    6.21    0.25 
   1  -5 -10    5.84    0.23 
  -1   5  10    5.37    0.19 
  -1   5  10    5.49    0.22 
  -1   5  10    5.38    0.20 
  -1   5  10    5.04    0.24 
  -1   5  10    5.28    0.19 
  -1   5  10    5.16    0.17 
   0  -5 -10    5.24    0.20 
   0  -5 -10    4.88    0.22 
   0  -5 -10    5.16    0.16 
   0  -5 -10    5.37    0.21 
   0   5  10    4.88    0.20 
   0   5  10    5.06    0.22 
   0   5  10    4.90    0.17 
   0   5  10    5.18    0.22 
  -1  -5 -10    3.66    0.14 
  -1  -5 -10    3.12    0.10 
  -1  -5 -10    3.52    0.16 
   1   5  10    2.98    0.15 
   1   5  10    3.47    0.17 
   7   0 -11   -0.05    0.06 
  -7   0  11    0.07    0.07 
   7   0 -11    0.09    0.06 
   7   0 -11    0.07    0.06 
   6   0 -11    1.27    0.16 
   6   0 -11    1.32    0.14 
   6   0 -11    1.32    0.15 
  -6   0  11    1.29    0.15 
   6   0 -11    1.39    0.06 
  -6   0  11    1.36    0.11 
   6   0 -11    1.53    0.11 
  -6   0  11    1.26    0.12 
   6   0 -11    1.12    0.16 
  -6   0  11    1.19    0.19 
   5   0 -11    0.05    0.04 
   5   0 -11   -0.01    0.10 
  -5   0  11   -0.11    0.09 
  -5   0  11    0.05    0.09 
   5   0 -11    0.02    0.11 
   5   0 -11    0.08    0.09 
   5   0 -11   -0.02    0.09 
   5   0 -11    0.07    0.06 
  -5   0  11   -0.06    0.06 
  -5   0  11    0.04    0.10 
   5   0 -11   -0.09    0.10 
   5   0 -11    0.13    0.09 
   5   0 -11    0.11    0.08 
   4   0 -11    0.03    0.10 
   4   0 -11    0.10    0.06 
   4   0 -11    0.05    0.12 
   4   0 -11    0.14    0.09 
   4   0 -11    0.13    0.11 
   4   0 -11   -0.02    0.10 
   4   0 -11    0.17    0.04 
  -4   0  11   -0.02    0.11 
   4   0 -11    0.00    0.11 
   4   0 -11    0.13    0.10 
  -4   0  11    0.05    0.06 
   4   0 -11    0.32    0.10 
   4   0 -11    0.21    0.13 
   4   0 -11    0.13    0.06 
  -4   0  11    0.19    0.11 
  -4   0  11    0.24    0.15 
  -4   0  11    0.11    0.10 
  -3   0  11    0.13    0.13 
   3   0 -11    0.31    0.11 
   3   0 -11    0.08    0.13 
  -3   0  11    0.35    0.16 
   3   0 -11    0.11    0.10 
  -3   0  11    0.01    0.10 
   3   0 -11   -0.03    0.09 
  -3   0  11    0.04    0.13 
   3   0 -11   -0.09    0.10 
   3   0 -11    0.02    0.11 
  -3   0  11   -0.04    0.07 
  -3   0  11    0.26    0.15 
   3   0 -11    0.05    0.11 
   3   0 -11    0.76    0.16 
   3   0 -11    0.19    0.10 
   3   0 -11    0.12    0.07 
  -3   0  11   -0.03    0.11 
  -3   0  11    0.02    0.08 
   2   0 -11   29.59    1.12 
   2   0 -11   28.16    0.83 
  -2   0  11   26.60    1.11 
   2   0 -11   28.71    0.81 
   2   0 -11   29.37    0.99 
  -2   0  11   28.19    0.93 
   2   0 -11   29.51    0.94 
   2   0 -11   29.21    1.15 
   2   0 -11   29.33    0.83 
   2   0 -11   28.82    0.92 
   2   0 -11   30.58    1.02 
  -2   0  11   27.58    1.10 
  -2   0  11   28.34    0.83 
  -2   0  11   29.56    1.05 
   2   0 -11   28.85    0.92 
   2   0 -11   29.71    1.06 
  -2   0  11   29.00    0.98 
  -2   0  11   28.56    1.47 
   1   0 -11  104.69    2.90 
   1   0 -11  105.65    3.26 
   1   0 -11  103.21    2.79 
   1   0 -11  107.20    3.68 
   1   0 -11  108.10    3.51 
   1   0 -11  108.93    3.88 
   1   0 -11  106.00    2.68 
   1   0 -11  105.20    3.28 
   1   0 -11  107.82    3.41 
  -1   0  11  111.78    5.14 
  -1   0  11  106.95    3.57 
  -1   0  11  109.46    3.27 
   1   0 -11  103.44    3.29 
   1   0 -11  104.21    3.94 
  -1   0  11  108.12    3.78 
   1   0 -11  105.61    3.19 
   1   0 -11  103.19    3.21 
   0   0 -11   57.27    1.54 
   0   0 -11   58.74    1.81 
   0   0 -11   53.62    2.18 
   0   0 -11   55.88    1.61 
   0   0  11   61.57    2.85 
   0   0  11   58.47    2.00 
   0   0 -11   59.35    2.14 
   0   0 -11   58.98    1.89 
   0   0 -11   58.96    1.77 
   0   0 -11   60.65    2.02 
   0   0 -11   57.80    1.48 
   0   0 -11   58.33    2.04 
   0   0 -11   58.79    1.83 
   0   0 -11   57.60    1.80 
   0   0 -11   57.15    1.72 
   0   0  11   56.69    2.11 
  -1   0 -11    0.38    0.06 
  -1   0 -11    0.27    0.09 
  -1   0 -11    0.33    0.08 
   1   0  11    0.40    0.13 
  -1   0 -11    0.42    0.11 
  -1   0 -11    0.33    0.11 
  -1   0 -11    0.39    0.08 
   1   0  11    0.33    0.08 
  -1   0 -11    0.29    0.10 
  -1   0 -11    0.13    0.08 
  -1   0 -11    0.28    0.10 
  -1   0 -11    0.23    0.10 
   1   0  11    0.49    0.17 
   2   0  11    1.26    0.24 
  -2   0 -11    0.98    0.13 
  -2   0 -11    1.17    0.14 
  -2   0 -11    1.19    0.15 
  -2   0 -11    0.92    0.08 
  -2   0 -11    0.91    0.15 
  -2   0 -11    1.09    0.13 
  -2   0 -11    1.30    0.13 
   2   0  11    0.80    0.14 
  -2   0 -11    1.14    0.13 
  -3   0 -11    0.35    0.07 
  -3   0 -11    0.57    0.10 
  -3   0 -11    0.45    0.10 
   3   0  11    0.52    0.11 
  -3   0 -11    0.54    0.12 
  -3   0 -11    0.50    0.08 
  -3   0 -11    0.28    0.07 
   7  -1 -11    1.86    0.13 
   7  -1 -11    1.96    0.13 
   7  -1 -11    2.26    0.11 
   7  -1 -11    2.24    0.07 
  -7  -1  11    1.93    0.12 
   7  -1 -11    2.08    0.12 
  -7  -1  11    2.07    0.08 
  -7   1  11    2.25    0.14 
   7   1 -11    2.37    0.14 
  -7   1  11    2.02    0.15 
   7   1 -11    2.36    0.13 
  -7   1  11    1.93    0.14 
   7   1 -11    1.83    0.13 
  -6  -1  11    1.24    0.16 
   6  -1 -11    0.91    0.14 
   6  -1 -11    1.17    0.09 
   6  -1 -11    1.19    0.16 
   6  -1 -11    1.02    0.14 
   6  -1 -11    0.99    0.13 
  -6  -1  11    1.03    0.14 
   6   1 -11    0.78    0.15 
   6   1 -11    0.82    0.13 
  -6   1  11    0.79    0.16 
  -6   1  11    0.96    0.07 
   6   1 -11    1.06    0.14 
  -6   1  11    0.86    0.16 
   5  -1 -11    2.56    0.12 
  -5  -1  11    2.39    0.21 
   5  -1 -11    2.42    0.18 
   5  -1 -11    2.21    0.22 
   5  -1 -11    2.45    0.16 
  -5  -1  11    2.53    0.13 
   5  -1 -11    2.09    0.19 
   5  -1 -11    2.85    0.21 
   5  -1 -11    2.51    0.20 
   5  -1 -11    2.24    0.16 
  -5   1  11    1.98    0.24 
   5   1 -11    2.47    0.12 
   5   1 -11    2.65    0.16 
  -5   1  11    2.51    0.19 
   5   1 -11    2.51    0.18 
   5   1 -11    2.61    0.20 
  -5   1  11    2.33    0.18 
   5   1 -11    2.32    0.16 
   5   1 -11    2.42    0.20 
   5   1 -11    2.58    0.16 
   5   1 -11    2.59    0.20 
  -5   1  11    2.12    0.22 
   5   1 -11    2.52    0.19 
  -5   1  11    2.30    0.14 
  -4  -1  11    5.21    0.34 
   4  -1 -11    6.18    0.20 
   4  -1 -11    6.75    0.28 
  -4  -1  11    6.49    0.46 
   4  -1 -11    6.85    0.30 
   4  -1 -11    6.20    0.31 
  -4  -1  11    6.26    0.27 
   4  -1 -11    6.67    0.30 
  -4  -1  11    6.60    0.31 
  -4  -1  11    6.22    0.23 
   4  -1 -11    6.23    0.26 
   4  -1 -11    6.57    0.33 
   4  -1 -11    6.71    0.26 
  -4  -1  11    6.54    0.35 
   4  -1 -11    6.32    0.30 
   4   1 -11    6.20    0.31 
   4   1 -11    6.11    0.25 
   4   1 -11    6.16    0.24 
   4   1 -11    5.88    0.29 
   4   1 -11    5.92    0.34 
  -4   1  11    5.99    0.23 
  -4   1  11    6.17    0.30 
   4   1 -11    5.66    0.30 
   4   1 -11    6.37    0.28 
   4   1 -11    6.02    0.26 
   4   1 -11    6.18    0.21 
  -4   1  11    6.47    0.29 
   4   1 -11    5.89    0.28 
   4   1 -11    5.99    0.30 
  -4   1  11    6.34    0.31 
   3  -1 -11   25.93    0.83 
   3  -1 -11   25.50    0.64 
  -3  -1  11   27.14    1.32 
   3  -1 -11   25.69    0.84 
   3  -1 -11   25.45    1.01 
   3  -1 -11   25.23    0.85 
  -3  -1  11   26.58    0.83 
   3  -1 -11   24.33    0.97 
  -3  -1  11   27.31    0.95 
   3  -1 -11   26.20    0.89 
   3  -1 -11   26.04    0.70 
   3  -1 -11   25.07    0.82 
  -3  -1  11   22.08    0.99 
  -3  -1  11   26.15    0.88 
   3  -1 -11   25.14    0.74 
   3  -1 -11   26.23    0.93 
   3  -1 -11   25.76    0.78 
   3   1 -11   25.08    0.68 
   3   1 -11   25.16    0.98 
   3   1 -11   24.69    0.90 
   3   1 -11   26.35    1.02 
  -3   1  11   24.76    0.72 
   3   1 -11   26.62    0.94 
   3   1 -11   25.94    0.72 
   3   1 -11   25.14    0.74 
   3   1 -11   25.22    0.82 
  -3   1  11   25.75    0.86 
  -3   1  11   26.65    0.98 
   3   1 -11   24.92    0.81 
  -3   1  11   25.71    0.87 
   3   1 -11   25.74    0.88 
   3   1 -11   25.54    0.72 
  -3   1  11   25.63    1.00 
   3   1 -11   25.16    0.83 
   2  -1 -11   34.37    1.15 
   2  -1 -11   35.44    0.98 
   2  -1 -11   35.84    1.13 
   2  -1 -11   37.24    1.14 
   2  -1 -11   35.53    1.20 
  -2  -1  11   35.01    1.27 
   2  -1 -11   35.51    0.86 
   2  -1 -11   35.17    1.41 
   2  -1 -11   35.45    1.30 
  -2  -1  11   36.92    1.35 
   2  -1 -11   35.90    1.37 
  -2  -1  11   34.09    1.14 
   2  -1 -11   35.17    1.05 
  -2  -1  11   37.11    1.80 
   2  -1 -11   37.28    1.26 
   2  -1 -11   36.58    1.12 
   2   1 -11   35.65    0.95 
  -2   1  11   35.84    1.17 
  -2   1  11   35.24    1.75 
  -2   1  11   30.98    1.31 
   2   1 -11   34.87    1.31 
  -2   1  11   36.28    1.32 
  -2   1  11   36.71    0.99 
   2   1 -11   33.29    0.99 
   2   1 -11   33.69    1.12 
   2   1 -11   35.21    1.11 
  -2   1  11   36.65    1.25 
   2   1 -11   34.73    1.09 
   2   1 -11   34.57    1.11 
   2   1 -11   34.27    0.90 
   2   1 -11   36.34    1.25 
   2   1 -11   34.15    0.95 
   2   1 -11   33.98    1.06 
   2   1 -11   35.43    1.25 
   2   1 -11   34.73    1.16 
  -1  -1  11   10.49    0.47 
   1  -1 -11   11.37    0.48 
  -1  -1  11   11.97    0.42 
   1  -1 -11   11.49    0.51 
   1  -1 -11   11.62    0.43 
   1  -1 -11   11.07    0.35 
   1  -1 -11   11.42    0.45 
   1  -1 -11   11.89    0.54 
  -1  -1  11   12.58    0.52 
   1  -1 -11   11.64    0.38 
   1  -1 -11   11.77    0.48 
  -1  -1  11   11.31    0.49 
   1  -1 -11   11.20    0.43 
  -1  -1  11   11.99    0.66 
   1  -1 -11   10.64    0.40 
  -1   1  11   10.96    0.41 
   1   1 -11   11.32    0.41 
   1   1 -11   11.84    0.46 
  -1   1  11   11.59    0.67 
   1   1 -11   11.36    0.46 
  -1   1  11   10.69    0.36 
   1   1 -11   11.69    0.32 
  -1   1  11   11.18    0.49 
   1   1 -11   11.46    0.43 
  -1   1  11   10.70    0.51 
   1   1 -11   11.42    0.41 
  -1   1  11   11.61    0.52 
  -1   1  11   10.54    0.45 
   1   1 -11   11.41    0.46 
   1   1 -11   11.68    0.42 
   1   1 -11   11.79    0.50 
   1   1 -11   11.32    0.34 
  -1   1  11   11.40    0.52 
   1   1 -11   11.39    0.41 
   1   1 -11   10.95    0.39 
   0  -1  11    1.16    0.18 
   0  -1 -11    1.02    0.16 
   0  -1 -11    0.97    0.17 
   0  -1 -11    1.06    0.16 
   0  -1 -11    0.98    0.17 
   0  -1 -11    1.42    0.21 
   0  -1  11    1.16    0.15 
   0  -1 -11    1.20    0.13 
   0  -1  11    1.01    0.16 
   0  -1 -11    1.03    0.18 
   0  -1  11    0.89    0.23 
   0  -1  11    1.09    0.20 
   0  -1 -11    1.24    0.18 
   0  -1 -11    1.12    0.17 
   0  -1 -11    1.17    0.18 
   0   1 -11    1.05    0.14 
   0   1  11    0.99    0.26 
   0   1 -11    1.09    0.14 
   0   1  11    1.23    0.13 
   0   1  11    1.01    0.20 
   0   1 -11    1.07    0.10 
   0   1  11    0.87    0.19 
   0   1  11    1.20    0.20 
   0   1 -11    1.07    0.14 
   0   1 -11    1.24    0.16 
   0   1  11    1.10    0.16 
   0   1 -11    0.97    0.15 
   0   1 -11    1.11    0.16 
   0   1 -11    1.21    0.14 
  -1  -1 -11    3.13    0.21 
  -1  -1 -11    3.50    0.20 
   1  -1  11    3.61    0.20 
   1  -1  11    3.38    0.32 
  -1  -1 -11    3.28    0.17 
   1  -1  11    3.55    0.22 
  -1  -1 -11    3.25    0.23 
  -1  -1 -11    3.43    0.21 
  -1  -1 -11    3.38    0.23 
  -1  -1 -11    3.07    0.19 
  -1  -1 -11    3.38    0.22 
  -1  -1 -11    3.42    0.16 
  -1  -1 -11    3.21    0.16 
  -1  -1 -11    3.56    0.16 
   1   1  11    3.30    0.17 
  -1   1 -11    3.70    0.16 
  -1   1 -11    3.55    0.18 
   1   1  11    3.32    0.24 
  -1   1 -11    3.40    0.17 
  -1   1 -11    3.45    0.18 
  -1   1 -11    3.37    0.20 
  -1   1 -11    3.63    0.19 
   1   1  11    3.53    0.34 
   1   1  11    3.31    0.18 
   1   1  11    3.47    0.25 
   1   1  11    2.51    0.25 
   2  -1  11    4.61    0.21 
  -2  -1 -11    4.33    0.15 
  -2  -1 -11    4.17    0.22 
  -2  -1 -11    4.05    0.24 
  -2  -1 -11    4.53    0.20 
  -2  -1 -11    4.40    0.19 
  -2  -1 -11    4.45    0.22 
  -2  -1 -11    4.23    0.21 
  -2  -1 -11    4.25    0.21 
  -2  -1 -11    4.35    0.18 
  -2  -1 -11    4.03    0.24 
  -2  -1 -11    4.38    0.22 
   2   1  11    3.87    0.31 
  -2   1 -11    3.93    0.19 
   2   1  11    3.98    0.20 
   2   1  11    4.08    0.17 
  -2   1 -11    4.20    0.17 
  -2   1 -11    4.06    0.20 
   2   1  11    3.92    0.23 
  -2   1 -11    3.99    0.17 
  -2   1 -11    4.25    0.18 
  -3  -1 -11    1.01    0.12 
  -3  -1 -11    1.03    0.12 
  -3  -1 -11    1.11    0.11 
   3  -1  11    0.96    0.11 
  -3  -1 -11    0.99    0.09 
  -3  -1 -11    1.00    0.07 
  -3  -1 -11    1.18    0.14 
  -3  -1 -11    1.02    0.12 
  -3   1 -11    1.24    0.11 
  -3   1 -11    1.08    0.11 
   3   1  11    0.93    0.09 
   3   1  11    1.15    0.10 
   3   1  11    1.11    0.13 
  -3   1 -11    1.11    0.10 
   6  -2 -11    0.95    0.08 
   6  -2 -11    0.93    0.12 
   6  -2 -11    1.05    0.13 
  -6  -2  11    0.98    0.13 
   6  -2 -11    0.93    0.13 
  -6   2  11    0.94    0.15 
   6   2 -11    0.97    0.10 
   6   2 -11    0.88    0.12 
  -6   2  11    0.84    0.15 
   6   2 -11    0.91    0.10 
   6   2 -11    0.70    0.12 
  -6   2  11    0.86    0.14 
   6   2 -11    0.89    0.12 
   6   2 -11    0.92    0.08 
   5  -2 -11    7.65    0.31 
  -5  -2  11    7.64    0.28 
   5  -2 -11    7.69    0.29 
   5  -2 -11    7.95    0.32 
  -5  -2  11    7.30    0.33 
  -5  -2  11    7.78    0.25 
  -5  -2  11    8.11    0.48 
   5  -2 -11    7.53    0.30 
  -5   2  11    6.79    0.36 
   5   2 -11    7.77    0.33 
   5   2 -11    7.33    0.32 
   5   2 -11    7.80    0.31 
  -5   2  11    7.25    0.33 
  -5   2  11    7.51    0.32 
   5   2 -11    7.40    0.23 
   5   2 -11    7.39    0.29 
  -5   2  11    7.58    0.32 
   5   2 -11    7.55    0.26 
   5   2 -11    7.59    0.23 
   5   2 -11    7.39    0.30 
   5   2 -11    7.28    0.25 
  -5   2  11    7.49    0.19 
  -4  -2  11    5.42    0.24 
   4  -2 -11    5.75    0.28 
   4  -2 -11    5.44    0.24 
  -4  -2  11    5.32    0.21 
   4  -2 -11    5.29    0.19 
   4  -2 -11    5.81    0.26 
   4  -2 -11    5.14    0.31 
   4  -2 -11    5.70    0.25 
  -4  -2  11    4.76    0.30 
   4  -2 -11    5.34    0.28 
   4  -2 -11    5.23    0.26 
  -4  -2  11    5.45    0.40 
   4   2 -11    5.30    0.24 
  -4   2  11    5.20    0.26 
   4   2 -11    5.15    0.23 
  -4   2  11    5.00    0.18 
   4   2 -11    5.41    0.18 
   4   2 -11    4.97    0.20 
   4   2 -11    5.19    0.22 
   4   2 -11    5.22    0.26 
  -4   2  11    5.37    0.31 
   4   2 -11    5.11    0.25 
   4   2 -11    5.24    0.25 
   4   2 -11    5.47    0.24 
  -4   2  11    4.85    0.27 
  -4   2  11    4.86    0.28 
   4   2 -11    5.22    0.23 
   4   2 -11    5.06    0.25 
   4   2 -11    5.31    0.27 
  -4   2  11    5.27    0.24 
   4   2 -11    5.02    0.20 
   3  -2 -11    1.90    0.12 
   3  -2 -11    1.67    0.17 
  -3  -2  11    1.75    0.22 
   3  -2 -11    1.92    0.18 
   3  -2 -11    1.61    0.16 
   3  -2 -11    1.69    0.22 
   3  -2 -11    1.53    0.19 
  -3  -2  11    1.88    0.15 
  -3  -2  11    2.18    0.29 
   3  -2 -11    1.44    0.17 
   3  -2 -11    1.72    0.10 
   3   2 -11    1.50    0.16 
   3   2 -11    1.74    0.09 
   3   2 -11    1.72    0.15 
  -3   2  11    1.91    0.23 
   3   2 -11    1.63    0.18 
  -3   2  11    1.66    0.19 
   3   2 -11    1.72    0.18 
   3   2 -11    1.91    0.15 
   3   2 -11    1.67    0.16 
  -3   2  11    1.60    0.12 
   3   2 -11    1.80    0.17 
   3   2 -11    1.89    0.17 
  -3   2  11    1.81    0.17 
  -3   2  11    1.65    0.23 
   3   2 -11    1.93    0.13 
  -3   2  11    2.09    0.19 
   3   2 -11    1.72    0.16 
   3   2 -11    1.80    0.17 
   2  -2 -11    9.59    0.37 
   2  -2 -11    9.61    0.41 
   2  -2 -11    9.25    0.38 
  -2  -2  11    9.84    0.59 
   2  -2 -11    9.79    0.35 
  -2  -2  11    9.67    0.43 
   2  -2 -11   10.02    0.39 
   2  -2 -11   10.10    0.37 
  -2  -2  11    9.70    0.36 
   2  -2 -11   10.24    0.45 
   2  -2 -11    9.91    0.27 
   2  -2 -11    9.98    0.33 
   2  -2 -11   10.08    0.41 
  -2   2  11    9.55    0.39 
   2   2 -11    9.08    0.38 
   2   2 -11    9.96    0.36 
  -2   2  11    9.58    0.38 
   2   2 -11    9.76    0.39 
   2   2 -11    9.25    0.34 
   2   2 -11    9.59    0.33 
   2   2 -11    9.55    0.28 
  -2   2  11    9.01    0.42 
  -2   2  11    9.42    0.32 
   2   2 -11    7.79    0.40 
   2   2 -11    9.61    0.35 
   1  -2 -11    1.02    0.19 
   1  -2 -11    1.10    0.21 
   1  -2 -11    1.09    0.19 
   1  -2 -11    0.96    0.17 
  -1  -2  11    0.74    0.25 
  -1  -2  11    0.80    0.18 
   1  -2 -11    1.01    0.09 
   1  -2 -11    1.04    0.13 
   1  -2 -11    0.95    0.19 
  -1  -2  11    0.85    0.13 
   1  -2 -11    1.01    0.16 
   1  -2 -11    0.97    0.16 
   1  -2 -11    0.96    0.09 
   1  -2 -11    1.16    0.13 
  -1   2  11    1.04    0.20 
   1   2 -11    0.96    0.16 
  -1   2  11    1.16    0.18 
  -1   2  11    0.89    0.10 
   1   2 -11    0.65    0.13 
  -1   2  11    1.08    0.20 
   1   2 -11    1.07    0.10 
   1   2 -11    0.85    0.13 
   1   2 -11    1.06    0.13 
   1   2 -11    0.53    0.13 
   0  -2 -11    3.23    0.24 
   0  -2 -11    3.24    0.14 
   0  -2 -11    3.36    0.22 
   0  -2 -11    4.02    0.23 
   0  -2 -11    3.40    0.24 
   0  -2 -11    3.65    0.18 
   0  -2 -11    3.43    0.24 
   0  -2 -11    3.41    0.19 
   0  -2 -11    3.53    0.20 
   0  -2 -11    3.56    0.26 
   0  -2 -11    3.63    0.10 
   0   2  11    3.04    0.25 
   0   2 -11    3.64    0.18 
   0   2 -11    3.82    0.20 
   0   2 -11    3.71    0.17 
   0   2  11    3.34    0.25 
   0   2 -11    3.66    0.16 
   0   2  11    3.50    0.15 
   0   2 -11    3.44    0.17 
   0   2  11    3.46    0.23 
   0   2  11    3.17    0.25 
  -1  -2 -11    6.41    0.26 
  -1  -2 -11    6.07    0.27 
  -1  -2 -11    6.43    0.25 
  -1  -2 -11    6.45    0.30 
  -1  -2 -11    6.26    0.21 
  -1  -2 -11    6.35    0.31 
  -1  -2 -11    6.32    0.29 
  -1   2 -11    6.04    0.21 
  -1   2 -11    5.86    0.20 
   1   2  11    5.91    0.21 
   1   2  11    5.87    0.28 
  -1   2 -11    6.25    0.24 
  -1   2 -11    5.85    0.25 
  -2  -2 -11    1.10    0.13 
  -2  -2 -11    1.27    0.12 
  -2  -2 -11    1.44    0.15 
  -2  -2 -11    1.17    0.14 
  -2  -2 -11    1.17    0.15 
  -2  -2 -11    1.27    0.13 
  -2  -2 -11    1.14    0.09 
  -2  -2 -11    1.39    0.15 
   2   2  11    1.49    0.17 
  -2   2 -11    1.60    0.09 
  -2   2 -11    1.53    0.11 
  -2   2 -11    1.60    0.12 
   2   2  11    1.44    0.10 
  -2   2 -11    1.43    0.12 
  -3  -2 -11    0.21    0.06 
  -3  -2 -11    0.23    0.08 
  -3  -2 -11    0.15    0.05 
  -3  -2 -11    0.18    0.06 
  -3   2 -11    0.19    0.05 
   3   2  11    0.17    0.06 
  -3   2 -11    0.33    0.07 
  -6  -3  11    4.30    0.19 
   6  -3 -11    4.25    0.18 
   6  -3 -11    3.92    0.17 
  -6   3  11    3.75    0.17 
  -6   3  11    3.84    0.19 
   6   3 -11    3.77    0.17 
  -6   3  11    4.15    0.12 
  -6   3  11    4.02    0.14 
   6   3 -11    4.02    0.16 
   6   3 -11    4.04    0.15 
  -5  -3  11    0.93    0.15 
  -5  -3  11    1.03    0.09 
   5  -3 -11    0.80    0.13 
  -5  -3  11    1.21    0.10 
   5  -3 -11    1.16    0.13 
   5  -3 -11    1.03    0.14 
   5   3 -11    0.96    0.08 
   5   3 -11    0.95    0.12 
  -5   3  11    1.19    0.15 
   5   3 -11    0.96    0.11 
  -5   3  11    0.79    0.10 
   5   3 -11    1.07    0.10 
   5   3 -11    1.10    0.12 
   5   3 -11    1.07    0.07 
  -5   3  11    1.03    0.13 
   5   3 -11    0.94    0.11 
  -5   3  11    0.82    0.15 
  -5   3  11    1.03    0.11 
   4  -3 -11    9.04    0.35 
  -4  -3  11    8.86    0.33 
   4  -3 -11    9.26    0.33 
   4  -3 -11    9.47    0.34 
  -4  -3  11    8.49    0.52 
   4   3 -11    7.92    0.34 
  -4   3  11    8.72    0.34 
   4   3 -11    8.42    0.30 
   4   3 -11    8.92    0.33 
  -4   3  11    9.11    0.37 
   4   3 -11    8.35    0.29 
   4   3 -11    8.83    0.31 
  -4   3  11    8.38    0.34 
  -4   3  11    9.48    0.29 
   4   3 -11    8.55    0.32 
  -4   3  11    8.76    0.40 
   3  -3 -11    1.09    0.13 
  -3  -3  11    1.59    0.23 
   3  -3 -11    1.13    0.15 
   3  -3 -11    1.32    0.16 
   3  -3 -11    1.56    0.17 
   3   3 -11    1.48    0.14 
   3   3 -11    1.33    0.15 
  -3   3  11    1.60    0.21 
  -3   3  11    1.25    0.19 
  -3   3  11    1.48    0.19 
  -3   3  11    1.34    0.08 
   3   3 -11    1.34    0.13 
  -3   3  11    1.24    0.19 
  -3   3  11    0.98    0.17 
   3   3 -11    1.26    0.13 
  -3   3  11    1.54    0.13 
  -3   3  11    0.95    0.19 
   3   3 -11    1.72    0.13 
   2  -3 -11   23.46    0.71 
   2  -3 -11   25.21    0.76 
   2  -3 -11   25.28    0.82 
   2  -3 -11   25.48    0.84 
  -2  -3  11   25.88    0.81 
   2  -3 -11   22.56    0.90 
   2  -3 -11   26.02    0.81 
   2  -3 -11   26.71    0.83 
  -2   3  11   24.84    0.86 
   2   3 -11   24.52    0.80 
  -2   3  11   24.95    0.81 
  -2   3  11   25.30    0.62 
   2   3 -11   25.32    0.77 
  -2   3  11   24.66    0.81 
  -2   3  11   25.25    0.91 
   2   3 -11   25.61    0.80 
   2   3 -11   24.30    0.74 
  -2   3  11   23.90    0.83 
   1  -3 -11    6.68    0.26 
   1  -3 -11    7.10    0.32 
   1  -3 -11    6.90    0.27 
   1  -3 -11    6.53    0.20 
   1  -3 -11    7.51    0.30 
   1  -3 -11    6.61    0.34 
   1  -3 -11    6.26    0.29 
   1  -3 -11    6.94    0.29 
  -1   3  11    6.50    0.29 
   1   3 -11    6.28    0.25 
  -1   3  11    6.50    0.28 
  -1   3  11    6.42    0.20 
  -1   3  11    6.60    0.29 
   1   3 -11    6.33    0.21 
   1   3 -11    6.30    0.25 
  -1   3  11    6.94    0.35 
   1   3 -11    6.24    0.22 
   0  -3 -11    5.91    0.32 
   0  -3 -11    6.04    0.17 
   0  -3 -11    5.93    0.30 
   0  -3 -11    6.35    0.24 
   0  -3 -11    6.05    0.26 
   0  -3 -11    6.54    0.28 
   0  -3 -11    6.47    0.28 
   0  -3 -11    6.07    0.23 
   0   3 -11    6.22    0.25 
   0   3 -11    6.19    0.24 
   0   3 -11    6.07    0.20 
   0   3  11    5.98    0.27 
   0   3  11    5.80    0.29 
   0   3 -11    5.98    0.23 
   0   3  11    5.84    0.26 
  -1  -3 -11   16.38    0.54 
  -1  -3 -11   17.80    0.56 
  -1  -3 -11   16.55    0.57 
  -1  -3 -11   16.37    0.60 
   1   3  11   16.21    0.55 
  -1   3 -11   15.48    0.51 
  -1   3 -11   16.01    0.52 
  -2  -3 -11    4.77    0.22 
  -2  -3 -11    5.07    0.20 
  -2  -3 -11    5.16    0.23 
  -2  -3 -11    4.67    0.18 
   2   3  11    4.75    0.21 
   4  -4 -11    0.94    0.11 
   4  -4 -11    0.80    0.12 
  -4  -4  11    0.94    0.09 
   4  -4 -11    0.82    0.11 
   4   4 -11    0.82    0.09 
   4   4 -11    0.74    0.09 
   4   4 -11    0.85    0.06 
   4   4 -11    0.86    0.08 
  -4   4  11    0.75    0.11 
  -4   4  11    0.78    0.13 
  -4   4  11    0.60    0.09 
  -4   4  11    0.83    0.12 
   4   4 -11    0.74    0.10 
   4   4 -11    0.66    0.10 
  -4   4  11    0.94    0.08 
   3  -4 -11    7.75    0.30 
   3  -4 -11    7.83    0.28 
  -3  -4  11    7.88    0.28 
   3  -4 -11    8.14    0.30 
  -3   4  11    7.35    0.28 
   3   4 -11    7.52    0.24 
   3   4 -11    7.40    0.27 
  -3   4  11    7.47    0.23 
   3   4 -11    7.63    0.27 
  -3   4  11    7.49    0.30 
  -3   4  11    7.20    0.31 
  -3   4  11    7.29    0.24 
   2  -4 -11    2.91    0.16 
   2  -4 -11    2.66    0.17 
   2  -4 -11    2.62    0.17 
  -2   4  11    2.53    0.17 
  -2   4  11    2.41    0.18 
   2   4 -11    2.44    0.13 
   2   4 -11    2.59    0.11 
   2   4 -11    2.57    0.13 
  -2   4  11    2.45    0.18 
   1  -4 -11    0.34    0.09 
   1  -4 -11    0.50    0.09 
   1  -4 -11    0.45    0.07 
   1  -4 -11    0.29    0.07 
   1  -4 -11    0.43    0.08 
   1   4 -11    0.56    0.09 
  -1   4  11    0.31    0.09 
  -1   4  11    0.61    0.14 
  -1   4  11    0.57    0.10 
   0  -4 -11    1.83    0.08 
   0  -4 -11    2.08    0.13 
   0  -4 -11    1.68    0.13 
   0  -4 -11    1.76    0.16 
   0  -4 -11    1.82    0.11 
   0   4  11    1.89    0.16 
   0   4  11    1.83    0.15 
   0   4 -11    1.71    0.08 
  -1  -4 -11    0.70    0.12 
  -1  -4 -11    0.81    0.10 
  -1  -4 -11    0.85    0.12 
   1   4  11    0.52    0.11 
   6   0 -12    0.48    0.12 
  -6   0  12    0.81    0.11 
   6   0 -12    0.46    0.12 
  -6   0  12    0.87    0.14 
  -6   0  12    0.76    0.07 
   5   0 -12    0.82    0.10 
   5   0 -12    0.80    0.11 
  -5   0  12    0.69    0.14 
   5   0 -12    0.54    0.15 
   5   0 -12    0.48    0.10 
   4   0 -12    9.94    0.32 
   4   0 -12    9.77    0.36 
   4   0 -12    8.67    0.42 
   4   0 -12    9.54    0.37 
  -4   0  12    9.31    0.37 
  -4   0  12    9.55    0.29 
   4   0 -12    9.90    0.39 
   4   0 -12    9.87    0.28 
   4   0 -12    9.41    0.41 
   4   0 -12    9.79    0.40 
  -4   0  12    9.42    0.38 
   3   0 -12    7.28    0.31 
   3   0 -12    7.20    0.34 
   3   0 -12    7.30    0.29 
   3   0 -12    7.48    0.33 
   3   0 -12    7.39    0.32 
  -3   0  12    7.29    0.28 
  -3   0  12    7.16    0.46 
   3   0 -12    7.33    0.26 
  -3   0  12    6.33    0.35 
   3   0 -12    7.19    0.27 
   3   0 -12    7.09    0.24 
  -3   0  12    7.18    0.25 
  -3   0  12    7.28    0.32 
   3   0 -12    7.28    0.30 
   3   0 -12    7.25    0.34 
  -3   0  12    7.22    0.37 
  -2   0  12   91.73    2.55 
  -2   0  12   91.86    3.14 
  -2   0  12   93.89    2.86 
   2   0 -12   91.12    2.81 
  -2   0  12   94.70    3.32 
   2   0 -12   92.11    2.85 
   2   0 -12   93.06    2.54 
   2   0 -12   94.46    3.39 
   2   0 -12   92.83    2.80 
   2   0 -12   94.19    2.99 
   2   0 -12   96.15    3.22 
  -2   0  12   92.18    2.95 
   2   0 -12   91.31    2.44 
   2   0 -12   95.55    3.08 
   2   0 -12   90.70    2.48 
   1   0 -12    0.11    0.10 
   1   0 -12   -0.04    0.09 
   1   0 -12    0.08    0.11 
  -1   0  12   -0.02    0.06 
   1   0 -12    0.04    0.07 
   1   0 -12   -0.06    0.06 
  -1   0  12    0.30    0.17 
  -1   0  12    0.06    0.11 
   1   0 -12    0.16    0.07 
  -1   0  12    0.03    0.09 
   1   0 -12    0.18    0.09 
   1   0 -12    0.08    0.09 
   1   0 -12    0.01    0.08 
   1   0 -12    0.11    0.09 
  -1   0  12    0.08    0.08 
   1   0 -12    0.05    0.09 
   0   0 -12   12.61    0.42 
   0   0 -12   12.43    0.44 
   0   0  12   13.02    0.69 
   0   0 -12   12.79    0.48 
   0   0 -12   11.85    0.32 
   0   0 -12   11.56    0.42 
   0   0 -12   11.99    0.35 
   0   0 -12   11.52    0.41 
   0   0 -12   10.93    0.47 
   0   0 -12   11.42    0.44 
   0   0 -12   12.07    0.39 
   0   0  12   12.16    0.42 
   0   0 -12   11.77    0.42 
  -1   0 -12    0.05    0.08 
  -1   0 -12    0.09    0.09 
  -1   0 -12    0.07    0.04 
  -1   0 -12    0.14    0.08 
   1   0  12    0.11    0.06 
  -1   0 -12    0.11    0.08 
  -1   0 -12    0.06    0.06 
  -1   0 -12    0.07    0.06 
   1   0  12    0.14    0.13 
  -2   0 -12    6.29    0.23 
  -2   0 -12    6.59    0.24 
   2   0  12    6.44    0.24 
  -2   0 -12    6.41    0.26 
  -2   0 -12    6.43    0.21 
  -2   0 -12    6.49    0.25 
  -2   0 -12    6.30    0.22 
   2   0  12    6.08    0.22 
   6  -1 -12    2.37    0.11 
   6  -1 -12    2.60    0.15 
   6  -1 -12    2.39    0.13 
  -6  -1  12    2.33    0.14 
  -6   1  12    2.60    0.17 
   6   1 -12    2.38    0.12 
   6   1 -12    2.54    0.15 
   6   1 -12    2.48    0.11 
  -6   1  12    2.21    0.15 
   6   1 -12    2.28    0.14 
   6   1 -12    2.47    0.13 
   5  -1 -12    9.51    0.38 
   5  -1 -12    9.77    0.25 
  -5  -1  12   10.52    0.29 
  -5  -1  12    9.97    0.38 
   5  -1 -12   10.20    0.35 
   5  -1 -12   10.15    0.32 
   5  -1 -12    9.97    0.36 
   5   1 -12   10.17    0.31 
   5   1 -12    9.73    0.28 
   5   1 -12    9.85    0.37 
  -5   1  12    9.06    0.36 
  -5   1  12    9.54    0.37 
   5   1 -12    9.48    0.30 
  -5   1  12    9.81    0.26 
   5   1 -12    9.73    0.33 
   5   1 -12    9.62    0.35 
   5   1 -12    9.97    0.35 
   4  -1 -12   16.69    0.55 
   4  -1 -12   16.51    0.62 
   4  -1 -12   16.68    0.59 
  -4  -1  12   15.44    0.54 
   4  -1 -12   16.65    0.50 
  -4  -1  12   16.85    0.58 
   4  -1 -12   16.65    0.56 
   4  -1 -12   16.31    0.66 
   4  -1 -12   16.61    0.40 
  -4  -1  12   16.48    0.48 
   4  -1 -12   16.65    0.54 
  -4  -1  12   13.62    0.85 
   4   1 -12   16.40    0.55 
   4   1 -12   16.58    0.46 
   4   1 -12   16.45    0.62 
  -4   1  12   16.10    0.56 
   4   1 -12   16.20    0.64 
   4   1 -12   15.38    0.53 
   4   1 -12   16.66    0.44 
   4   1 -12   15.71    0.46 
   4   1 -12   16.87    0.58 
   4   1 -12   16.40    0.55 
   4   1 -12   16.62    0.47 
  -4   1  12   16.51    0.58 
   4   1 -12   16.69    0.49 
  -3  -1  12   19.68    0.63 
  -3  -1  12   19.48    0.67 
  -3  -1  12   19.23    0.56 
   3  -1 -12   19.53    0.68 
   3  -1 -12   19.75    0.65 
   3  -1 -12   18.98    0.62 
  -3  -1  12   19.54    0.73 
   3  -1 -12   17.54    0.70 
   3  -1 -12   17.99    0.76 
   3  -1 -12   18.58    0.63 
   3  -1 -12   19.51    0.56 
  -3  -1  12   18.12    0.99 
   3   1 -12   18.58    0.54 
  -3   1  12   19.15    0.55 
   3   1 -12   18.87    0.65 
   3   1 -12   19.67    0.64 
   3   1 -12   19.62    0.74 
   3   1 -12   20.03    0.63 
   3   1 -12   18.87    0.72 
   3   1 -12   18.29    0.57 
   3   1 -12   19.14    0.54 
   3   1 -12   20.00    0.67 
   3   1 -12   17.56    0.71 
   3   1 -12   19.44    0.51 
  -3   1  12   20.35    0.67 
  -3   1  12   19.30    0.66 
   2  -1 -12    9.61    0.44 
   2  -1 -12    9.83    0.43 
  -2  -1  12   10.57    0.59 
  -2  -1  12   10.47    0.37 
   2  -1 -12   10.28    0.30 
   2  -1 -12   10.28    0.39 
   2  -1 -12   10.22    0.46 
   2  -1 -12   10.08    0.38 
   2  -1 -12   10.39    0.34 
  -2  -1  12   10.12    0.44 
   2  -1 -12   10.41    0.41 
   2   1 -12    9.98    0.41 
   2   1 -12    9.77    0.37 
  -2   1  12    9.79    0.45 
  -2   1  12    8.86    0.43 
   2   1 -12   10.36    0.37 
   2   1 -12    9.75    0.33 
   2   1 -12    9.17    0.41 
   2   1 -12   10.60    0.37 
   2   1 -12   10.39    0.38 
   2   1 -12   10.26    0.28 
  -2   1  12    9.87    0.31 
   2   1 -12   10.22    0.35 
   2   1 -12    9.78    0.38 
  -2   1  12    9.92    0.40 
   2   1 -12   10.08    0.30 
  -2   1  12   10.17    0.40 
  -1  -1  12    4.11    0.21 
   1  -1 -12    4.82    0.21 
   1  -1 -12    4.19    0.24 
   1  -1 -12    3.92    0.21 
   1  -1 -12    4.32    0.23 
   1  -1 -12    4.58    0.25 
   1  -1 -12    4.23    0.24 
   1  -1 -12    4.48    0.17 
   1  -1 -12    4.12    0.24 
  -1  -1  12    4.21    0.34 
  -1  -1  12    3.80    0.26 
   1  -1 -12    4.57    0.23 
   1  -1 -12    4.29    0.19 
  -1   1  12    4.10    0.26 
   1   1 -12    4.44    0.22 
   1   1 -12    4.27    0.19 
   1   1 -12    4.15    0.20 
   1   1 -12    4.27    0.21 
   1   1 -12    3.88    0.20 
  -1   1  12    4.22    0.21 
  -1   1  12    2.99    0.33 
  -1   1  12    4.52    0.17 
   1   1 -12    4.37    0.20 
  -1   1  12    3.93    0.27 
   1   1 -12    4.23    0.21 
  -1   1  12    3.87    0.24 
   1   1 -12    4.11    0.15 
   1   1 -12    3.95    0.22 
   0  -1 -12    3.38    0.18 
   0  -1 -12    3.18    0.17 
   0  -1 -12    3.24    0.20 
   0  -1 -12    3.28    0.20 
   0  -1 -12    3.43    0.16 
   0  -1  12    3.06    0.19 
   0  -1 -12    3.02    0.20 
   0  -1 -12    3.49    0.15 
   0  -1 -12    2.80    0.20 
   0  -1 -12    2.93    0.14 
   0  -1 -12    3.00    0.16 
   0   1 -12    3.22    0.18 
   0   1 -12    3.06    0.17 
   0   1  12    3.20    0.23 
   0   1 -12    3.14    0.17 
   0   1 -12    3.56    0.18 
   0   1  12    3.06    0.18 
   0   1 -12    3.15    0.15 
   0   1 -12    3.53    0.19 
   0   1  12    3.22    0.31 
   0   1  12    2.96    0.15 
  -1  -1 -12    4.08    0.16 
  -1  -1 -12    3.89    0.19 
  -1  -1 -12    4.45    0.20 
  -1  -1 -12    4.32    0.18 
  -1  -1 -12    3.96    0.21 
   1  -1  12    3.94    0.20 
  -1  -1 -12    4.12    0.21 
  -1  -1 -12    3.50    0.22 
  -1  -1 -12    4.14    0.14 
   1   1  12    4.38    0.19 
   1   1  12    4.21    0.23 
  -1   1 -12    4.09    0.20 
   1   1  12    4.42    0.17 
  -1   1 -12    4.15    0.17 
  -1   1 -12    4.31    0.19 
  -1   1 -12    4.24    0.17 
  -1   1 -12    4.13    0.18 
  -2  -1 -12    1.59    0.12 
   2  -1  12    1.88    0.12 
  -2  -1 -12    1.90    0.13 
  -2  -1 -12    1.72    0.13 
  -2  -1 -12    1.85    0.08 
  -2  -1 -12    1.98    0.10 
  -2  -1 -12    1.69    0.14 
  -2   1 -12    1.93    0.13 
   2   1  12    1.83    0.14 
   2   1  12    1.67    0.11 
   2   1  12    1.59    0.10 
  -2   1 -12    1.74    0.11 
  -2   1 -12    1.61    0.11 
   5  -2 -12    2.21    0.15 
   5  -2 -12    1.97    0.14 
  -5  -2  12    2.02    0.16 
   5  -2 -12    2.09    0.14 
   5  -2 -12    1.93    0.09 
   5  -2 -12    2.06    0.12 
  -5  -2  12    2.06    0.10 
   5   2 -12    2.37    0.13 
  -5   2  12    2.11    0.16 
   5   2 -12    2.07    0.14 
   5   2 -12    2.17    0.14 
   5   2 -12    2.13    0.11 
  -5   2  12    2.14    0.17 
   5   2 -12    1.73    0.13 
  -5   2  12    1.75    0.14 
   5   2 -12    2.21    0.09 
   5   2 -12    2.12    0.13 
   4  -2 -12    8.95    0.34 
   4  -2 -12    9.04    0.24 
   4  -2 -12    8.79    0.31 
  -4  -2  12    9.24    0.33 
   4  -2 -12    8.80    0.33 
   4  -2 -12    9.37    0.34 
  -4  -2  12    9.22    0.29 
  -4  -2  12    9.06    0.55 
  -4  -2  12    9.28    0.36 
   4   2 -12    8.76    0.27 
   4   2 -12    9.18    0.29 
   4   2 -12    8.93    0.26 
   4   2 -12    9.02    0.32 
   4   2 -12    9.04    0.31 
   4   2 -12    8.77    0.33 
   4   2 -12    8.02    0.31 
  -4   2  12    9.30    0.35 
  -4   2  12    9.25    0.24 
  -4   2  12    8.75    0.33 
   4   2 -12    8.03    0.33 
   4   2 -12    8.85    0.33 
   3  -2 -12    5.27    0.24 
  -3  -2  12    5.06    0.38 
   3  -2 -12    5.39    0.21 
   3  -2 -12    5.05    0.21 
   3  -2 -12    5.35    0.16 
   3  -2 -12    5.29    0.27 
  -3  -2  12    5.25    0.22 
   3  -2 -12    4.84    0.25 
   3   2 -12    5.07    0.21 
   3   2 -12    5.19    0.23 
  -3   2  12    5.10    0.26 
  -3   2  12    5.00    0.23 
   3   2 -12    4.99    0.22 
   3   2 -12    5.08    0.16 
   3   2 -12    4.75    0.24 
   3   2 -12    5.18    0.20 
  -3   2  12    4.79    0.24 
  -3   2  12    4.65    0.17 
   3   2 -12    5.13    0.21 
   3   2 -12    4.75    0.22 
   2  -2 -12    3.05    0.19 
  -2  -2  12    2.94    0.17 
  -2  -2  12    2.15    0.25 
   2  -2 -12    3.02    0.23 
   2  -2 -12    3.14    0.21 
   2  -2 -12    3.06    0.18 
   2  -2 -12    3.05    0.19 
   2  -2 -12    2.91    0.15 
   2  -2 -12    2.90    0.10 
   2  -2 -12    2.93    0.23 
   2   2 -12    2.75    0.14 
   2   2 -12    2.94    0.15 
  -2   2  12    3.21    0.19 
   2   2 -12    2.89    0.16 
   2   2 -12    2.65    0.16 
   2   2 -12    2.64    0.16 
  -2   2  12    3.17    0.21 
   2   2 -12    3.07    0.18 
   1  -2 -12    4.83    0.28 
   1  -2 -12    4.20    0.20 
  -1  -2  12    4.84    0.21 
   1  -2 -12    4.56    0.22 
   1  -2 -12    4.42    0.25 
  -1  -2  12    4.06    0.32 
   1  -2 -12    4.62    0.20 
   1  -2 -12    4.55    0.27 
   1  -2 -12    4.31    0.23 
  -1   2  12    4.55    0.25 
  -1   2  12    4.52    0.23 
   1   2 -12    4.44    0.19 
   1   2 -12    4.59    0.22 
   1   2 -12    4.86    0.19 
   1   2 -12    4.50    0.19 
   1   2 -12    4.52    0.21 
   0  -2  12    1.54    0.13 
   0  -2 -12    1.97    0.17 
   0  -2 -12    2.02    0.19 
   0  -2 -12    1.63    0.17 
   0  -2 -12    1.86    0.14 
   0  -2 -12    1.81    0.15 
   0   2  12    1.50    0.17 
   0   2  12    1.59    0.18 
   0   2 -12    1.56    0.11 
   0   2 -12    1.84    0.14 
   0   2 -12    1.86    0.10 
   0   2 -12    1.78    0.12 
  -1  -2 -12    1.24    0.14 
  -1  -2 -12    1.60    0.11 
  -1  -2 -12    1.51    0.15 
  -1  -2 -12    1.30    0.14 
   1  -2  12    1.43    0.12 
  -1  -2 -12    1.42    0.12 
  -1  -2 -12    1.56    0.11 
  -1  -2 -12    1.31    0.12 
  -1   2 -12    1.74    0.11 
  -1   2 -12    1.48    0.09 
  -1   2 -12    1.58    0.11 
  -1   2 -12    1.26    0.12 
   1   2  12    1.62    0.15 
  -2  -2 -12    0.68    0.10 
  -2  -2 -12    0.46    0.11 
  -2  -2 -12    0.48    0.08 
  -2  -2 -12    0.58    0.08 
  -2   2 -12    0.75    0.08 
   2   2  12    0.61    0.10 
   5  -3 -12    2.07    0.08 
   5  -3 -12    1.81    0.12 
   5  -3 -12    1.85    0.13 
  -5  -3  12    2.14    0.09 
   5  -3 -12    2.12    0.11 
   5   3 -12    1.89    0.10 
  -5   3  12    1.90    0.14 
  -5   3  12    1.82    0.14 
   5   3 -12    2.16    0.08 
   5   3 -12    1.94    0.10 
   5   3 -12    2.01    0.10 
  -4  -3  12    4.62    0.19 
   4  -3 -12    4.75    0.20 
  -4  -3  12    4.75    0.17 
   4  -3 -12    4.73    0.20 
   4  -3 -12    4.81    0.22 
   4  -3 -12    4.91    0.15 
   4  -3 -12    5.04    0.19 
  -4   3  12    4.71    0.22 
   4   3 -12    4.81    0.18 
   4   3 -12    4.53    0.17 
   4   3 -12    4.59    0.20 
   4   3 -12    4.74    0.19 
  -4   3  12    4.54    0.22 
   4   3 -12    4.53    0.17 
  -4   3  12    4.87    0.21 
   4   3 -12    4.57    0.16 
  -3  -3  12   13.57    0.45 
   3  -3 -12   12.77    0.46 
   3  -3 -12   13.47    0.34 
   3  -3 -12   13.45    0.46 
   3  -3 -12   13.70    0.45 
   3  -3 -12   13.45    0.42 
   3   3 -12   13.08    0.43 
   3   3 -12   12.86    0.43 
   3   3 -12   12.38    0.41 
   3   3 -12   13.09    0.40 
  -3   3  12   12.91    0.45 
  -3   3  12   12.54    0.44 
   3   3 -12   13.29    0.39 
  -3   3  12   12.41    0.47 
  -2  -3  12    0.81    0.10 
   2  -3 -12    0.81    0.07 
   2  -3 -12    1.03    0.13 
   2  -3 -12    0.80    0.13 
   2  -3 -12    1.03    0.11 
   2  -3 -12    0.64    0.14 
   2   3 -12    0.94    0.11 
  -2   3  12    0.79    0.07 
   2   3 -12    0.82    0.09 
   2   3 -12    1.04    0.07 
  -2   3  12    1.04    0.15 
   2   3 -12    0.80    0.11 
   1  -3 -12    6.75    0.22 
  -1  -3  12    6.24    0.24 
   1  -3 -12    5.93    0.24 
   1  -3 -12    6.35    0.26 
   1  -3 -12    6.21    0.29 
   1  -3 -12    6.41    0.27 
  -1   3  12    6.50    0.26 
  -1   3  12    6.05    0.18 
   1   3 -12    5.77    0.24 
   1   3 -12    5.83    0.23 
   1   3 -12    6.15    0.20 
  -1   3  12    6.04    0.26 
   1   3 -12    6.15    0.23 
   0  -3 -12   15.17    0.51 
   0  -3 -12   16.02    0.50 
   0  -3 -12   15.05    0.53 
   0  -3 -12   16.34    0.55 
   0   3  12   15.33    0.51 
   0   3 -12   15.15    0.49 
   0   3  12   14.31    0.38 
   0   3 -12   14.82    0.48 
   0   3  12   14.45    0.50 
  -1  -3 -12    9.42    0.32 
  -1  -3 -12    9.27    0.27 
  -1  -3 -12   10.04    0.35 
   1   3  12    8.81    0.32 
  -1   3 -12    8.66    0.29 
   1   3  12    9.26    0.24 
   3  -4 -12    0.83    0.06 
   3  -4 -12    0.81    0.09 
   3   4 -12    0.77    0.08 
   2  -4 -12    5.10    0.22 
   2  -4 -12    5.89    0.20 
   2  -4 -12    5.85    0.15 
   2  -4 -12    6.04    0.22 
  -2   4  12    4.56    0.23 
  -2   4  12    6.09    0.24 
  -2   4  12    5.82    0.21 
   2   4 -12    5.82    0.20 
   2   4 -12    5.90    0.20 
   1  -4 -12    8.17    0.28 
  -1   4  12    8.68    0.30 
   5   0 -13    3.27    0.18 
  -5   0  13    3.43    0.17 
   5   0 -13    3.74    0.13 
   5   0 -13    3.49    0.17 
   5   0 -13    3.74    0.15 
  -5   0  13    3.59    0.13 
  -4   0  13    0.54    0.12 
   4   0 -13    0.43    0.10 
   4   0 -13    0.64    0.11 
   4   0 -13    0.57    0.09 
   4   0 -13    0.67    0.12 
   4   0 -13    0.72    0.11 
   4   0 -13    0.60    0.12 
   3   0 -13    3.92    0.16 
  -3   0  13    3.86    0.14 
   3   0 -13    3.74    0.19 
   3   0 -13    3.78    0.14 
  -3   0  13    3.77    0.21 
   3   0 -13    4.00    0.20 
   3   0 -13    3.81    0.20 
   3   0 -13    3.93    0.17 
   3   0 -13    3.74    0.13 
   2   0 -13   -0.01    0.05 
  -2   0  13    0.05    0.04 
   2   0 -13   -0.05    0.05 
  -2   0  13   -0.09    0.08 
   2   0 -13   -0.04    0.05 
  -2   0  13   -0.01    0.06 
   2   0 -13   -0.01    0.08 
   2   0 -13   -0.06    0.07 
   2   0 -13    0.04    0.08 
   2   0 -13   -0.02    0.07 
   2   0 -13   -0.02    0.09 
  -1   0  13    3.90    0.18 
   1   0 -13    3.74    0.17 
   1   0 -13    3.74    0.19 
   1   0 -13    3.64    0.18 
   1   0 -13    3.71    0.19 
   1   0 -13    3.79    0.14 
  -1   0  13    3.80    0.15 
   1   0 -13    3.65    0.15 
   1   0 -13    3.77    0.20 
   1   0 -13    3.87    0.18 
   0   0  13    2.22    0.12 
   0   0 -13    2.24    0.14 
   0   0 -13    2.14    0.13 
   0   0 -13    2.12    0.13 
   0   0 -13    2.11    0.15 
   0   0 -13    2.22    0.14 
   0   0 -13    2.25    0.11 
   0   0 -13    2.21    0.14 
   0   0  13    2.14    0.13 
  -1   0 -13    3.02    0.15 
  -1   0 -13    2.93    0.14 
  -1   0 -13    3.08    0.14 
  -1   0 -13    2.81    0.14 
  -1   0 -13    3.17    0.12 
   1   0  13    2.99    0.12 
   1   0  13    2.95    0.14 
  -1   0 -13    2.71    0.12 
   5  -1 -13    4.23    0.18 
  -5  -1  13    4.29    0.19 
   5  -1 -13    3.99    0.18 
   5  -1 -13    3.97    0.18 
   5   1 -13    4.23    0.14 
   5   1 -13    4.17    0.18 
  -5   1  13    4.03    0.19 
   5   1 -13    4.33    0.18 
  -5   1  13    4.06    0.12 
   5   1 -13    4.31    0.15 
   5   1 -13    4.14    0.17 
   5   1 -13    4.17    0.11 
   4  -1 -13   17.74    0.59 
  -4  -1  13   16.46    0.48 
   4  -1 -13   17.74    0.57 
   4  -1 -13   16.99    0.55 
  -4  -1  13   16.28    0.58 
  -4   1  13   16.93    0.42 
   4   1 -13   17.05    0.46 
   4   1 -13   16.22    0.54 
  -4   1  13   17.73    0.57 
   4   1 -13   16.31    0.42 
   4   1 -13   16.53    0.57 
   4   1 -13   16.82    0.49 
   4   1 -13   16.19    0.54 
   4   1 -13   17.04    0.46 
  -3  -1  13    8.28    0.33 
   3  -1 -13    8.49    0.32 
  -3  -1  13    8.48    0.30 
   3  -1 -13    8.24    0.31 
   3  -1 -13    8.37    0.33 
  -3  -1  13    8.54    0.27 
   3  -1 -13    8.41    0.27 
  -3   1  13    8.07    0.31 
   3   1 -13    8.35    0.25 
   3   1 -13    8.13    0.29 
   3   1 -13    8.07    0.24 
   3   1 -13    7.79    0.30 
   3   1 -13    7.96    0.31 
   3   1 -13    7.90    0.28 
   3   1 -13    8.16    0.30 
   3   1 -13    8.03    0.27 
   2  -1 -13    9.74    0.34 
  -2  -1  13   10.03    0.31 
   2  -1 -13   10.35    0.37 
   2  -1 -13   10.16    0.32 
   2  -1 -13   10.00    0.29 
  -2  -1  13    9.66    0.35 
   2  -1 -13   10.46    0.38 
   2   1 -13    9.85    0.27 
   2   1 -13    9.96    0.33 
  -2   1  13    9.95    0.37 
   2   1 -13   10.04    0.34 
   2   1 -13    9.58    0.36 
   2   1 -13    9.75    0.34 
   2   1 -13    9.56    0.35 
   2   1 -13    9.63    0.31 
   2   1 -13    9.85    0.30 
  -1  -1  13    1.83    0.14 
   1  -1 -13    2.05    0.16 
   1  -1 -13    1.89    0.16 
   1  -1 -13    1.97    0.12 
   1  -1 -13    1.89    0.13 
   1  -1 -13    1.84    0.12 
   1  -1 -13    1.84    0.15 
   1  -1 -13    1.87    0.09 
   1   1 -13    2.02    0.14 
   1   1 -13    1.75    0.13 
   1   1 -13    1.65    0.11 
   1   1 -13    1.90    0.12 
   1   1 -13    1.90    0.13 
  -1   1  13    1.90    0.10 
   1   1 -13    1.87    0.13 
  -1   1  13    1.85    0.18 
   0  -1 -13    0.11    0.06 
   0  -1 -13    0.19    0.04 
   0  -1 -13    0.01    0.07 
   0  -1 -13    0.18    0.07 
   0  -1 -13    0.14    0.07 
   0  -1 -13    0.22    0.06 
   0  -1 -13    0.15    0.08 
   0  -1  13    0.13    0.06 
   0  -1 -13    0.24    0.04 
   0   1 -13    0.10    0.06 
   0   1 -13    0.20    0.06 
   0   1 -13    0.12    0.04 
   0   1  13    0.12    0.07 
   0   1 -13    0.24    0.07 
   0   1  13    0.10    0.04 
   0   1 -13    0.05    0.06 
   0   1 -13    0.20    0.06 
   1  -1  13    1.14    0.10 
  -1  -1 -13    1.28    0.11 
  -1  -1 -13    1.33    0.10 
  -1  -1 -13    1.19    0.13 
  -1  -1 -13    1.21    0.10 
  -1  -1 -13    0.99    0.10 
  -1  -1 -13    1.16    0.07 
  -1   1 -13    1.19    0.09 
  -1   1 -13    1.28    0.09 
   1   1  13    1.26    0.12 
   1   1  13    1.17    0.07 
  -1   1 -13    1.37    0.10 
  -4  -2  13    0.58    0.07 
   4  -2 -13    0.80    0.12 
   4  -2 -13    0.76    0.09 
  -4  -2  13    0.47    0.07 
   4  -2 -13    0.57    0.11 
  -4  -2  13    0.81    0.10 
   4   2 -13    0.53    0.08 
  -4   2  13    0.68    0.12 
   4   2 -13    0.65    0.10 
   4   2 -13    0.64    0.10 
   4   2 -13    0.73    0.09 
   4   2 -13    0.70    0.06 
  -3  -2  13    4.32    0.16 
   3  -2 -13    4.04    0.19 
   3  -2 -13    4.13    0.21 
  -3  -2  13    4.29    0.18 
   3  -2 -13    4.39    0.17 
   3  -2 -13    4.18    0.19 
   3   2 -13    3.89    0.18 
   3   2 -13    4.11    0.15 
   3   2 -13    4.17    0.17 
   3   2 -13    4.05    0.17 
  -3   2  13    4.23    0.13 
   3   2 -13    4.17    0.17 
  -3   2  13    4.15    0.21 
   3   2 -13    3.91    0.16 
  -3   2  13    4.41    0.20 
   2  -2 -13    0.63    0.11 
   2  -2 -13    0.46    0.09 
  -2  -2  13    0.49    0.10 
   2  -2 -13    0.49    0.13 
  -2   2  13    0.81    0.08 
   2   2 -13    0.70    0.08 
   2   2 -13    0.50    0.10 
  -2   2  13    0.52    0.07 
   2   2 -13    0.65    0.09 
   2   2 -13    0.48    0.10 
   2   2 -13    0.61    0.11 
   2   2 -13    0.68    0.09 
  -1  -2  13    5.52    0.22 
   1  -2 -13    5.75    0.20 
   1  -2 -13    6.00    0.25 
   1  -2 -13    5.61    0.22 
   1   2 -13    5.10    0.17 
   1   2 -13    5.50    0.19 
   1   2 -13    5.47    0.21 
   1   2 -13    5.34    0.21 
  -1   2  13    5.57    0.23 
   0  -2 -13    7.58    0.28 
   0  -2 -13    7.14    0.28 
   0  -2  13    7.86    0.27 
   0  -2 -13    7.34    0.21 
   0  -2 -13    7.22    0.24 
   0   2 -13    7.34    0.22 
   0   2 -13    6.87    0.26 
   0   2 -13    7.19    0.25 
   0   2  13    7.13    0.27 
   0   2 -13    7.10    0.25 
  -2  -3  13   -0.02    0.04 
   2  -3 -13    0.03    0.06 
   2   3 -13    0.01    0.03 
   2   3 -13   -0.07    0.04 
  -2   3  13   -0.01    0.05 
   2   3 -13    0.01    0.04 
   3   0 -14   10.26    0.36 
   3   0 -14    9.87    0.30 
  -3   0  14   10.72    0.36 
   3   0 -14   10.58    0.29 
   3   0 -14    9.95    0.34 
   3   0 -14   10.27    0.34 
   2   0 -14    0.96    0.10 
  -2   0  14    1.08    0.06 
   2   0 -14    0.94    0.09 
  -2   0  14    0.91    0.12 
   2   0 -14    0.82    0.09 
   2   0 -14    0.89    0.09 
   1   0 -14   -0.03    0.05 
  -1   0  14    0.01    0.03 
   1   0 -14    0.01    0.04 
   1   0 -14    0.07    0.05 
   2  -1 -14    1.40    0.10 
  -2  -1  14    1.47    0.08 
   2  -1 -14    1.28    0.11 
   2  -1 -14    1.25    0.08 
   2   1 -14    1.50    0.10 
   2   1 -14    1.35    0.07 
   2   1 -14    1.40    0.09 
  -2   1  14    1.21    0.11 
   2   1 -14    1.28    0.11 
   2   1 -14    1.48    0.09 
   0   0   0    0.00    0.00 
;
_shelx_hkl_checksum              8193
#END Tags that were not found in dictionaries
loop_
_space_group_symop_operation_xyz
'x, y, z'
'-x, y+1/2, -z'
loop_
_atom_site_label
_atom_site_type_symbol
_atom_site_fract_x
_atom_site_fract_y
_atom_site_fract_z
_atom_site_U_iso_or_equiv
_atom_site_adp_type
_atom_site_occupancy
_atom_site_site_symmetry_order
_atom_site_calc_flag
_atom_site_refinement_flags_posn
_atom_site_refinement_flags_adp
C1 C 0.7165(2) 0.4726(3) 0.76180(14) 0.0205(4) Uani 1 1 d . .
H1 H 0.7036 0.3198 0.7466 0.025 Uiso 1 1 calc R U
C2 C 0.9813(2) 0.6655(3) 0.87803(14) 0.0205(4) Uani 1 1 d . .
C3 C 0.9580(2) 0.8121(3) 0.77939(16) 0.0211(4) Uani 1 1 d . .
C4 C 1.0523(2) 0.9994(3) 0.79191(15) 0.0251(4) Uani 1 1 d . .
H4 H 1.1242 1.0377 0.8664 0.030 Uiso 1 1 calc R U
C5 C 1.0429(2) 1.1308(3) 0.69743(18) 0.0283(4) Uani 1 1 d . .
H5 H 1.1083 1.2580 0.7063 0.034 Uiso 1 1 calc R U
C6 C 0.9359(2) 1.0727(3) 0.58935(17) 0.0262(4) Uani 1 1 d . .
H6 H 0.9293 1.1613 0.5239 0.031 Uiso 1 1 calc R U
C7 C 0.8389(2) 0.8892(3) 0.57485(16) 0.0233(4) Uani 1 1 d . .
H7 H 0.7662 0.8535 0.5002 0.028 Uiso 1 1 calc R U
C8 C 0.8477(2) 0.7551(3) 0.67040(15) 0.0201(4) Uani 1 1 d . .
C9 C 0.6591(2) 0.4936(3) 0.54541(14) 0.0238(4) Uani 1 1 d . .
H9A H 0.5488 0.5762 0.5186 0.036 Uiso 1 1 calc R U
H9B H 0.6268 0.3472 0.5514 0.036 Uiso 1 1 calc R U
H9C H 0.7355 0.5074 0.4894 0.036 Uiso 1 1 calc R U
C10 C 0.5376(2) 0.5494(3) 0.78959(15) 0.0255(4) Uani 1 1 d . .
C11 C 0.5226(3) 0.7826(3) 0.79993(18) 0.0320(5) Uani 1 1 d . .
H11A H 0.4043 0.8179 0.8142 0.048 Uiso 1 1 calc R U
H11B H 0.5352 0.8484 0.7272 0.048 Uiso 1 1 calc R U
H11C H 0.6184 0.8328 0.8651 0.048 Uiso 1 1 calc R U
C12 C 0.4979(3) 0.4338(4) 0.89259(17) 0.0341(5) Uani 1 1 d . .
H12A H 0.5885 0.4705 0.9637 0.051 Uiso 1 1 calc R U
H12B H 0.5020 0.2837 0.8790 0.051 Uiso 1 1 calc R U
H12C H 0.3774 0.4723 0.9018 0.051 Uiso 1 1 calc R U
N1 N 0.86821(19) 0.5017(2) 0.86199(11) 0.0212(3) Uani 1 1 d . .
H1A H 0.8875 0.4047 0.9163 0.025 Uiso 1 1 calc R U
N2 N 0.75705(19) 0.5678(2) 0.65912(12) 0.0203(3) Uani 1 1 d . .
O1 O 1.10207(16) 0.6836(2) 0.96895(10) 0.0262(3) Uani 1 1 d . .
F1 F 0.40149(13) 0.4893(2) 0.69022(9) 0.0344(3) Uani 1 1 d . .
loop_
_atom_site_aniso_label
_atom_site_aniso_U_11
_atom_site_aniso_U_22
_atom_site_aniso_U_33
_atom_site_aniso_U_23
_atom_site_aniso_U_13
_atom_site_aniso_U_12
C1 0.0226(8) 0.0194(9) 0.0184(7) 0.0010(7) 0.0025(6) -0.0010(7)
C2 0.0192(8) 0.0214(9) 0.0205(8) -0.0035(7) 0.0042(7) 0.0043(7)
C3 0.0186(8) 0.0221(9) 0.0232(8) -0.0028(7) 0.0060(6) 0.0027(7)
C4 0.0226(8) 0.0236(9) 0.0298(9) -0.0056(8) 0.0080(7) 0.0000(8)
C5 0.0261(9) 0.0211(9) 0.0409(10) -0.0010(8) 0.0143(8) -0.0011(7)
C6 0.0273(9) 0.0229(10) 0.0321(10) 0.0056(7) 0.0147(8) 0.0057(7)
C7 0.0226(8) 0.0254(10) 0.0228(9) 0.0019(7) 0.0074(7) 0.0048(7)
C8 0.0182(8) 0.0201(8) 0.0230(8) -0.0008(7) 0.0068(6) 0.0036(7)
C9 0.0241(8) 0.0256(9) 0.0202(8) -0.0016(8) 0.0023(6) -0.0013(8)
C10 0.0209(8) 0.0346(12) 0.0188(8) 0.0000(7) 0.0005(7) -0.0015(8)
C11 0.0267(10) 0.0368(12) 0.0341(10) 0.0004(9) 0.0106(8) 0.0081(9)
C12 0.0276(9) 0.0464(14) 0.0305(10) 0.0060(9) 0.0109(8) -0.0004(9)
N1 0.0221(7) 0.0211(7) 0.0183(7) 0.0033(6) 0.0008(5) 0.0012(6)
N2 0.0222(7) 0.0219(8) 0.0158(7) 0.0000(6) 0.0021(6) -0.0012(6)
O1 0.0252(6) 0.0271(7) 0.0226(6) -0.0043(5) -0.0017(5) 0.0015(5)
F1 0.0217(5) 0.0531(8) 0.0262(5) -0.0037(6) 0.0011(4) -0.0041(5)
loop_
_atom_type_symbol
_atom_type_description
_atom_type_scat_dispersion_real
_atom_type_scat_dispersion_imag
_atom_type_scat_source
C C 0.0181 0.0091 'International Tables Vol C Tables 4.2.6.8 and 6.1.1.4'
H H 0.0000 0.0000 'International Tables Vol C Tables 4.2.6.8 and 6.1.1.4'
N N 0.0311 0.0180 'International Tables Vol C Tables 4.2.6.8 and 6.1.1.4'
O O 0.0492 0.0322 'International Tables Vol C Tables 4.2.6.8 and 6.1.1.4'
F F 0.0727 0.0534 'International Tables Vol C Tables 4.2.6.8 and 6.1.1.4'
loop_
_geom_angle_atom_site_label_1
_geom_angle_atom_site_label_2
_geom_angle_atom_site_label_3
_geom_angle
N2 C1 N1 109.67(13)
N2 C1 C10 114.22(14)
N1 C1 C10 110.85(14)
N2 C1 H1 107.3
N1 C1 H1 107.3
C10 C1 H1 107.3
O1 C2 N1 120.91(16)
O1 C2 C3 123.15(16)
N1 C2 C3 115.86(14)
C4 C3 C8 120.28(16)
C4 C3 C2 120.46(16)
C8 C3 C2 119.15(16)
C5 C4 C3 121.02(17)
C5 C4 H4 119.5
C3 C4 H4 119.5
C4 C5 C6 118.59(18)
C4 C5 H5 120.7
C6 C5 H5 120.7
C7 C6 C5 121.59(17)
C7 C6 H6 119.2
C5 C6 H6 119.2
C6 C7 C8 120.13(17)
C6 C7 H7 119.9
C8 C7 H7 119.9
N2 C8 C3 119.55(15)
N2 C8 C7 122.03(16)
C3 C8 C7 118.37(16)
N2 C9 H9A 109.5
N2 C9 H9B 109.5
H9A C9 H9B 109.5
N2 C9 H9C 109.5
H9A C9 H9C 109.5
H9B C9 H9C 109.5
F1 C10 C11 106.37(16)
F1 C10 C12 106.37(15)
C11 C10 C12 112.96(17)
F1 C10 C1 104.19(13)
C11 C10 C1 114.77(16)
C12 C10 C1 111.30(15)
C10 C11 H11A 109.5
C10 C11 H11B 109.5
H11A C11 H11B 109.5
C10 C11 H11C 109.5
H11A C11 H11C 109.5
H11B C11 H11C 109.5
C10 C12 H12A 109.5
C10 C12 H12B 109.5
H12A C12 H12B 109.5
C10 C12 H12C 109.5
H12A C12 H12C 109.5
H12B C12 H12C 109.5
C2 N1 C1 125.01(15)
C2 N1 H1A 117.5
C1 N1 H1A 117.5
C8 N2 C9 120.86(14)
C8 N2 C1 119.22(14)
C9 N2 C1 117.74(14)
loop_
_geom_bond_atom_site_label_1
_geom_bond_atom_site_label_2
_geom_bond_distance
C1 N2 1.451(2)
C1 N1 1.455(2)
C1 C10 1.553(2)
C1 H1 1.0000
C2 O1 1.241(2)
C2 N1 1.345(2)
C2 C3 1.473(2)
C3 C4 1.392(3)
C3 C8 1.406(2)
C4 C5 1.385(3)
C4 H4 0.9500
C5 C6 1.390(3)
C5 H5 0.9500
C6 C7 1.381(3)
C6 H6 0.9500
C7 C8 1.406(2)
C7 H7 0.9500
C8 N2 1.379(2)
C9 N2 1.451(2)
C9 H9A 0.9800
C9 H9B 0.9800
C9 H9C 0.9800
C10 F1 1.421(2)
C10 C11 1.512(3)
C10 C12 1.512(3)
C11 H11A 0.9800
C11 H11B 0.9800
C11 H11C 0.9800
C12 H12A 0.9800
C12 H12B 0.9800
C12 H12C 0.9800
N1 H1A 0.8800
