#------------------------------------------------------------------------------
#$Date: 2016-10-05 12:32:47 +0300 (Wed, 05 Oct 2016) $
#$Revision: 186952 $
#$URL: file:///home/coder/svn-repositories/cod/cif/4/51/39/4513908.cif $
#------------------------------------------------------------------------------
#
# This file is available in the Crystallography Open Database (COD),
# http://www.crystallography.net/
#
# All data on this site have been placed in the public domain by the
# contributors.
#
data_4513908
loop_
_publ_author_name
'Petrus, Rafa\/l'
'Bykowski, Dominik'
'Sobota, Piotr'
_publ_section_title
;
 Solvothermal Alcoholysis Routes for Recycling Polylactide Waste as Lactic
 Acid Esters
;
_journal_issue                   8
_journal_name_full               'ACS Catalysis'
_journal_page_first              5222
_journal_paper_doi               10.1021/acscatal.6b01009
_journal_volume                  6
_journal_year                    2016
_chemical_absolute_configuration rmad
_chemical_formula_moiety         'C20 H40 Ca O12, 2(Cl)'
_chemical_formula_sum            'C20 H40 Ca Cl2 O12'
_chemical_formula_weight         583.50
_space_group_crystal_system      triclinic
_space_group_IT_number           1
_space_group_name_Hall           'P 1'
_space_group_name_H-M_alt        'P 1'
_symmetry_space_group_name_Hall  'P 1'
_symmetry_space_group_name_H-M   'P 1'
_atom_sites_solution_hydrogens   mixed
_audit_creation_method           SHELXL-2014/7
_cell_angle_alpha                97.45(3)
_cell_angle_beta                 100.88(3)
_cell_angle_gamma                117.39(3)
_cell_formula_units_Z            1
_cell_length_a                   8.768(7)
_cell_length_b                   9.508(6)
_cell_length_c                   10.629(10)
_cell_measurement_reflns_used    4277
_cell_measurement_temperature    100(2)
_cell_measurement_theta_max      78.1092
_cell_measurement_theta_min      4.3725
_cell_volume                     748.4(11)
_computing_cell_refinement       'CrysAlis PRO (Agilent, 2011)'
_computing_data_collection       'CrysAlis PRO (Agilent, 2011)'
_computing_data_reduction        'CrysAlis PRO (Agilent, 2011)'
_computing_molecular_graphics    'DIAMOND  (Brandenburg, 2007)'
_computing_publication_material  'SHELXL-2014/7 (Sheldrick, 2014)'
_computing_structure_refinement  'SHELXL-2014/7 (Sheldrick, 2014)'
_computing_structure_solution    'SHELXS-2014/7 (Sheldrick, 2014)'
_diffrn_ambient_temperature      100(2)
_diffrn_measured_fraction_theta_full 0.975
_diffrn_measured_fraction_theta_max 0.975
_diffrn_measurement_device_type
'Xcalibur PX \k-geometry diffractometer with CCD Onyx camera'
_diffrn_measurement_method       '\w and \f'
_diffrn_radiation_monochromator  graphite
_diffrn_radiation_source         'fine-focus sealed tube'
_diffrn_radiation_type           CuK\a
_diffrn_radiation_wavelength     1.54178
_diffrn_reflns_av_R_equivalents  0.0574
_diffrn_reflns_av_unetI/netI     0.0622
_diffrn_reflns_Laue_measured_fraction_full 0.975
_diffrn_reflns_Laue_measured_fraction_max 0.975
_diffrn_reflns_limit_h_max       10
_diffrn_reflns_limit_h_min       -10
_diffrn_reflns_limit_k_max       10
_diffrn_reflns_limit_k_min       -11
_diffrn_reflns_limit_l_max       13
_diffrn_reflns_limit_l_min       -12
_diffrn_reflns_number            5453
_diffrn_reflns_point_group_measured_fraction_full 0.613
_diffrn_reflns_point_group_measured_fraction_max 0.611
_diffrn_reflns_theta_full        70.000
_diffrn_reflns_theta_max         70.958
_diffrn_reflns_theta_min         4.373
_exptl_absorpt_coefficient_mu    3.908
_exptl_absorpt_correction_T_max  0.561
_exptl_absorpt_correction_T_min  0.373
_exptl_absorpt_correction_type   analytical
_exptl_absorpt_process_details
;
CrysAlisPro, Agilent Technologies,
Version 1.171.36.28 (release 01-02-2013 CrysAlis171 .NET)
(compiled Feb  1 2013,16:14:44)
Analytical numeric absorption correction using a multifaceted crystal
model based on expressions derived by R.C. Clark & J.S. Reid.
(Clark, R. C. & Reid, J. S. (1995). Acta Cryst. A51, 887-897)
;
_exptl_crystal_colour            colourless
_exptl_crystal_density_diffrn    1.295
_exptl_crystal_description       plate
_exptl_crystal_F_000             310
_exptl_crystal_size_max          0.410
_exptl_crystal_size_mid          0.250
_exptl_crystal_size_min          0.230
_refine_diff_density_max         0.524
_refine_diff_density_min         -0.628
_refine_diff_density_rms         0.093
_refine_ls_abs_structure_details
;
 Classical Flack method preferred over Parsons because s.u. lower.
;
_refine_ls_abs_structure_Flack   -0.014(17)
_refine_ls_extinction_method     none
_refine_ls_goodness_of_fit_ref   1.074
_refine_ls_hydrogen_treatment    constr
_refine_ls_matrix_type           full
_refine_ls_number_parameters     324
_refine_ls_number_reflns         3523
_refine_ls_number_restraints     3
_refine_ls_restrained_S_all      1.074
_refine_ls_R_factor_all          0.0604
_refine_ls_R_factor_gt           0.0565
_refine_ls_shift/su_max          0.000
_refine_ls_shift/su_mean         0.000
_refine_ls_structure_factor_coef Fsqd
_refine_ls_weighting_details
'w=1/[\s^2^(Fo^2^)+(0.1033P)^2^+0.3679P] where P=(Fo^2^+2Fc^2^)/3'
_refine_ls_weighting_scheme      calc
_refine_ls_wR_factor_gt          0.1434
_refine_ls_wR_factor_ref         0.1614
_reflns_Friedel_coverage         0.254
_reflns_Friedel_fraction_full    0.250
_reflns_Friedel_fraction_max     0.248
_reflns_number_gt                3338
_reflns_number_total             3523
_reflns_threshold_expression     'I > 2\s(I)'
_cod_data_source_file            cs6b01009_si_002.cif
_cod_data_source_block           2
_cod_depositor_comments
'Adding full bibliography for 4513907--4513908.cif.'
_cod_database_code               4513908
_shelx_shelxl_version_number     2014/7
_shelx_space_group_comment
;
The symmetry employed for this shelxl refinement is uniquely defined
by the following loop, which should always be used as a source of
symmetry information in preference to the above space-group names.
They are only intended as comments.
;
_shelx_estimated_absorpt_t_min   0.297
_shelx_estimated_absorpt_t_max   0.467
_shelx_res_file
;

    2.res created by SHELXL-2014/7


TITL 2.INS in P1
CELL 1.54178   8.768   9.508  10.629  97.45 100.88 117.39
ZERR    1.00   0.007   0.006   0.010   0.03   0.03   0.03
LATT -1
SFAC C H O CL CA
UNIT 20 40 12 2 1
L.S. 100
BOND
TEMP -173
FMAP 2
PLAN 20
ACTA 140
SIZE   0.41  0.25  0.23
OMIT -3 142
CONF
HTAB
EQIV $1 x, y-1, z
EQIV $2 x-1, y-1, z
EQIV $3 x+1, y, z
EQIV $4 x-1, y, z
HTAB O1 Cl1_$1
HTAB C4 Cl1_$2
HTAB O4 Cl1
HTAB C9 Cl1_$3
HTAB O7 Cl2
HTAB C14 Cl2_$4
HTAB O10 Cl2_$2
HTAB C19 Cl2_$1
WGHT    0.103300    0.367900
FVAR       9.76833
CA1   5    0.616775    0.295459    0.648709    11.00000    0.01997    0.01546 =
         0.03043    0.00819    0.00864    0.00921
CL1   4    0.648204    0.819478    0.711472    11.00000    0.03708    0.02689 =
         0.04279    0.01273    0.01343    0.02203
CL2   4    1.089459    0.776466    0.588671    11.00000    0.02541    0.02803 =
         0.04492    0.01297    0.01333    0.00977
O1    3    0.624304    0.124391    0.801412    11.00000    0.03147    0.02509 =
         0.03399    0.01044    0.01390    0.01816

AFIX   3
H1    2    0.632579    0.052902    0.752476    11.00000   -1.50000
AFIX   0
C1    1    0.492484    0.061771    0.869810    11.00000    0.03243    0.02897 =
         0.03810    0.01779    0.02077    0.01905
AFIX  13
H1A   2    0.420591   -0.059632    0.834276    11.00000   -1.50000
AFIX   0

C2    1    0.371102    0.130321    0.836079    11.00000    0.02542    0.01255 =
         0.03188    0.00267    0.01155    0.00628
O2    3    0.388027    0.220449    0.761855    11.00000    0.02713    0.02667 =
         0.04446    0.01606    0.02092    0.01744
C3    1    0.573839    0.097369    1.016462    11.00000    0.05622    0.08420 =
         0.04577    0.03270    0.02418    0.04429
AFIX 137
H3A   2    0.645791    0.043968    1.032079    11.00000   -1.50000
H3B   2    0.478267    0.055535    1.059887    11.00000   -1.50000
H3C   2    0.650325    0.215738    1.052717    11.00000   -1.50000
AFIX   0
O3    3    0.245124    0.085558    0.899934    11.00000    0.03264    0.03008 =
         0.05115    0.02171    0.02861    0.02024
C4    1    0.110816    0.135351    0.867907    11.00000    0.03981    0.03576 =
         0.05698    0.02114    0.02708    0.02444
AFIX  23
H4A   2    0.004874    0.048482    0.797133    11.00000   -1.20000
H4B   2    0.160684    0.236466    0.836358    11.00000   -1.20000
AFIX   0
C5    1    0.059067    0.164332    0.988735    11.00000    0.06360    0.08123 =
         0.06099   -0.00393    0.01629    0.04907
AFIX 137
H5A   2    0.025863    0.068896    1.026141    11.00000   -1.50000
H5B   2   -0.043187    0.182363    0.966836    11.00000   -1.50000
H5C   2    0.160135    0.260996    1.053531    11.00000   -1.50000
AFIX   0

O4    3    0.729258    0.561440    0.794427    11.00000    0.02828    0.02040 =
         0.03119    0.00825    0.00280    0.01439
AFIX   3
H4    2    0.689255    0.623307    0.775023    11.00000   -1.50000
AFIX   0
C6    1    0.912915    0.665267    0.861662    11.00000    0.02366    0.01722 =
         0.02507   -0.00014    0.00504    0.00926
AFIX  13
H6A   2    0.958319    0.766873    0.828793    11.00000   -1.20000
AFIX   0

C7    1    1.010967    0.576601    0.828449    11.00000    0.02314    0.01437 =
         0.02228    0.00524    0.00752    0.00900
O5    3    0.933376    0.440181    0.755829    11.00000    0.02403    0.02239 =
         0.04976    0.00861    0.00913    0.01266
C8    1    0.941215    0.712291    1.009790    11.00000    0.05436    0.11302 =
         0.03390    0.00215    0.00809    0.06081
AFIX 137
H8A   2    0.864365    0.757145    1.027057    11.00000   -1.50000
H8B   2    1.066851    0.794781    1.053059    11.00000   -1.50000
H8C   2    0.910683    0.615278    1.044802    11.00000   -1.50000
AFIX   0
O6    3    1.183571    0.661385    0.887363    11.00000    0.02331    0.02707 =
         0.04454    0.01191    0.00595    0.01333

C9    1    1.293027    0.591213    0.852978    11.00000    0.02982    0.03528 =
         0.04567    0.01356    0.01845    0.02009
AFIX  23
H9A   2    1.353882    0.643265    0.788625    11.00000   -1.20000
H9B   2    1.216605    0.472266    0.812736    11.00000   -1.20000
AFIX   0

C10   1    1.427713    0.621843    0.977262    11.00000    0.05442    0.10453 =
         0.04598    0.00547    0.00231    0.06504
AFIX 137
H10A  2    1.498775    0.739542    1.018382    11.00000   -1.50000
H10B  2    1.506846    0.581158    0.956809    11.00000   -1.50000
H10C  2    1.366117    0.564978    1.038353    11.00000   -1.50000
AFIX   0

O7    3    0.722635    0.468808    0.497398    11.00000    0.02094    0.02976 =
         0.03596    0.01561    0.00942    0.01419
AFIX   3
H7    2    0.832126    0.536783    0.514207    11.00000   -1.50000
AFIX   0
C11   1    0.619741    0.530183    0.428477    11.00000    0.02878    0.03038 =
         0.04450    0.02080    0.01599    0.01818
AFIX  13
H11A  2    0.685223    0.652204    0.458937    11.00000   -1.20000
AFIX   0
C12   1    0.445530    0.461513    0.466570    11.00000    0.02419    0.02347 =
         0.03261    0.00708    0.00985    0.01584
O8    3    0.408817    0.371561    0.539170    11.00000    0.02646    0.02220 =
         0.04340    0.01561    0.00965    0.01345

C13   1    0.589854    0.480239    0.279383    11.00000    0.05802    0.09375 =
         0.03732    0.03016    0.02076    0.05129
AFIX 137
H13A  2    0.705640    0.527512    0.259779    11.00000   -1.50000
H13B  2    0.516106    0.520434    0.233307    11.00000   -1.50000
H13C  2    0.528666    0.360767    0.249529    11.00000   -1.50000
AFIX   0

O9    3    0.337075    0.508963    0.404938    11.00000    0.02721    0.03137 =
         0.04537    0.01713    0.01073    0.01770
C14   1    0.168255    0.460499    0.439967    11.00000    0.03443    0.02979 =
         0.04858    0.01405    0.00920    0.01861
AFIX  23
H14A  2    0.177435    0.554525    0.500070    11.00000   -1.20000
H14B  2    0.142590    0.371151    0.485625    11.00000   -1.20000
AFIX   0
C15   1    0.022319    0.404389    0.315625    11.00000    0.02801    0.07628 =
         0.05502    0.00624    0.00254    0.02023
AFIX 137
H15A  2    0.048634    0.493760    0.271400    11.00000   -1.50000
H15B  2   -0.091594    0.371450    0.336671    11.00000   -1.50000
H15C  2    0.013913    0.311044    0.257008    11.00000   -1.50000
AFIX   0

O10   3    0.393982    0.026736    0.504000    11.00000    0.02272    0.01645 =
         0.04050    0.00185    0.01373    0.00892
AFIX   3
H10   2    0.296269   -0.027547    0.520630    11.00000   -1.50000
AFIX   0
C16   1    0.442473   -0.079153    0.441518    11.00000    0.03522    0.01919 =
         0.02839    0.00616    0.00956    0.01395
AFIX  13
H16A  2    0.409262   -0.174430    0.482292    11.00000   -1.20000
AFIX   0

C17   1    0.645028    0.014504    0.468026    11.00000    0.03112    0.01564 =
         0.03061    0.00799    0.01447    0.01427
O11   3    0.738468    0.151957    0.538359    11.00000    0.02693    0.01921 =
         0.04852    0.00801    0.01825    0.01195
C18   1    0.347209   -0.142849    0.292821    11.00000    0.03868    0.05951 =
         0.04109   -0.00001    0.00453    0.02357
AFIX 137
H18A  2    0.217893   -0.209372    0.278997    11.00000   -1.50000
H18B  2    0.391023   -0.209732    0.251557    11.00000   -1.50000
H18C  2    0.371816   -0.050158    0.252857    11.00000   -1.50000
AFIX   0

O12   3    0.704753   -0.071306    0.408012    11.00000    0.03348    0.02298 =
         0.03864    0.00327    0.01711    0.01466
C19   1    0.900615    0.001421    0.438427    11.00000    0.03059    0.03469 =
         0.05606    0.01213    0.02126    0.02007
AFIX  23
H19A  2    0.945141   -0.039037    0.509937    11.00000   -1.20000
H19B  2    0.959995    0.122063    0.467453    11.00000   -1.20000
AFIX   0

C20   1    0.939219   -0.048778    0.313492    11.00000    0.05056    0.07632 =
         0.06519    0.02090    0.03761    0.03949
AFIX 137
H20A  2    0.885600   -0.167976    0.288804    11.00000   -1.50000
H20B  2    1.069010    0.002524    0.327958    11.00000   -1.50000
H20C  2    0.888213   -0.013607    0.242267    11.00000   -1.50000

AFIX   0
HKLF 4

REM  2.INS in P1
REM R1 =  0.0565 for    3338 Fo > 4sig(Fo)  and  0.0604 for all    3523 data
REM    324 parameters refined using      3 restraints

END

WGHT      0.1033      0.3679

REM Instructions for potential hydrogen bonds
HTAB C4 Cl1_$2
HTAB O4 Cl1
HTAB C6 Cl2
HTAB C9 Cl1_$3
HTAB O7 Cl2
HTAB C14 Cl2_$4
HTAB O10 Cl2_$2
HTAB C16 Cl1_$1
HTAB C19 Cl2_$1

REM Highest difference peak  0.524,  deepest hole -0.628,  1-sigma level  0.093
Q1    1   0.6095  0.2665  0.7400  11.00000  0.05    0.52
Q2    1   0.6497  0.8041  0.8078  11.00000  0.05    0.49
Q3    1   1.0917  0.7440  0.6922  11.00000  0.05    0.44
Q4    1   0.6135  0.3205  0.5570  11.00000  0.05    0.44
Q5    1   1.0895  0.8012  0.5001  11.00000  0.05    0.43
Q6    1   1.0385  0.6411  0.5982  11.00000  0.05    0.42
Q7    1   0.4542  0.2029  0.6048  11.00000  0.05    0.41
Q8    1   0.6973  0.4405  0.7339  11.00000  0.05    0.41
Q9    1   0.4072  0.3473  0.7183  11.00000  0.05    0.41
Q10   1   0.7741  0.3805  0.6855  11.00000  0.05    0.40
Q11   1   0.5218  0.1410  0.5655  11.00000  0.05    0.38
Q12   1   0.9269  0.8688  0.7855  11.00000  0.05    0.37
Q13   1   1.1751  0.9377  0.6225  11.00000  0.05    0.37
Q14   1   0.7128  0.9601  0.7152  11.00000  0.05    0.37
Q15   1   1.1762  0.9205  0.6731  11.00000  0.05    0.36
Q16   1   0.9395  0.6815  0.5648  11.00000  0.05    0.36
Q17   1   0.6567  0.8576  0.6166  11.00000  0.05    0.35
Q18   1   1.0524  0.5949  0.7007  11.00000  0.05    0.35
Q19   1   1.4279  0.6568  0.8949  11.00000  0.05    0.34
Q20   1   0.2748 -0.2716  0.5193  11.00000  0.05    0.34
;
_shelx_res_checksum              43373
_shelx_hkl_file
;
   0   0  -1 526452. 2328.83   6
   0   0  -1 489851. 4137.07   4
   0   0  -2 271763. 4431.86   4
   0   0  -2 267214. 2147.49   6
   0   0  -3 30138.2 835.348   6
   0   0  -3 34804.9 1955.11   4
   0   0  -4 27213.4 837.110   6
   0   0  -4 34896.4 2301.65   4
   0   0  -5 57020.9 3278.67   4
   0   0  -6 4176.07 971.215   4
   0   0  -6 3835.47 1019.34   1
   0   0  -7 19998.1 2575.57   1
   0   0  -8 3800.58 1212.81   1
   0   0   8 4591.58 659.535  11
   0   0   9 7032.19 857.750  11
   0   0  10 1064.30 346.007  11
   0   0  11 190.537 162.305   8
   0   0  12 471.567 160.342   8
   0  -1  13 350.154 86.6320   8
   0  -1  12 3395.05 453.097   8
   0  -1  11 11704.4 1025.07   8
   0  -1  10 31711.8 1814.26  11
   0  -1   9 12684.4 1913.20   2
   0   1  -9 14522.8 2455.08   1
   0   1  -8 31104.3 3456.44   1
   0   1  -8 30000.6 3122.84   4
   0  -1   8 37157.3 1877.10  11
   0   1  -7 74020.4 4816.78   4
   0   1  -6 12182.7 1838.17   4
   0   1  -5 2043.03 711.202   4
   0   1  -4 3218.46 744.909   4
   0   1  -3 3187.96 628.379   4
   0   1  -2 27950.6 1498.65   4
   0   1  -1 3108.16 398.130   4
   0  -1   1 2782.96 277.072   2
   0  -1   1 2835.74 268.122   6
   0  -1   0 588.350 134.375   3
   0  -1   0 74.7859 56.3099   6
   0  -1  -1 17846.1 995.720   3
   0  -1  -1 17404.7 818.276   6
   0  -1  -2 2740.23 549.723   1
   0  -1  -2 2410.20 332.882   6
   0  -1  -3 11061.9 770.017   6
   0  -1  -3 13150.7 1392.63   1
   0  -1  -4 1702.51 320.877   6
   0  -1  -4 1922.04 651.982   1
   0  -1  -5 10306.5 1599.53   1
   0  -1  -6 47508.7 3743.70   1
   0  -1  -7 50626.9 4163.11   1
   0   1   8 31027.1 1707.04  11
   0  -1  -8 27161.0 3168.24   1
   0   1   9 24856.9 1580.15  11
   0   1  10 11809.5 1011.48  11
   0   1  10 13102.5 1191.78   8
   0   1  11 3802.01 541.046   8
   0   1  12 754.863 168.063   8
   0  -2  13 294.777 87.9739   8
   0  -2  13 137.179 75.5719  12
   0  -2  12 667.814 207.940   8
   0  -2  11 2062.50 428.269   8
   0   2  -9 2654.63 1048.14   1
   0   2  -9 2404.18 955.298   4
   0   2  -8 1835.93 742.150   4
   0  -2   8 1105.39 335.760  11
   0  -2   8 732.927 533.447   2
   0  -2   7 1320.66 535.983   2
   0   2  -7 643.044 539.796   4
   0   2  -6 44239.5 3838.21   4
   0  -2   6 46323.4 2971.22   2
   0  -2   5 2189.01 587.391   2
   0   2  -5 843.238 541.816   4
   0   2  -4 142882. 5301.13   4
   0  -2   4 139692. 3980.09   2
   0  -2   3 734198. 7773.95   2
   0   2  -3 787171. 10725.0   4
   0   2  -2 751865. 9090.80   4
   0  -2   2 711260. 5990.71   6
   0  -2   1 441020. 5174.18   6
   0  -2   1 358927. 4225.42   3
   0  -2   0 57112.9 1943.16   6
   0  -2   0 73212.4 2131.06   3
   0  -2  -1 999999. 9185.31   3
   0  -2  -1 990881. 8499.26   6
   0  -2  -2 486065. 8267.75   1
   0  -2  -2 404634. 5712.55   6
   0  -2  -3 59605.8 2314.29   6
   0  -2  -3 64992.1 3456.72   1
   0  -2  -4 15267.8 1229.61   6
   0  -2  -4 18018.2 2020.72   1
   0  -2  -5 29050.3 1652.24   6
   0  -2  -5 36575.2 3149.99   1
   0  -2  -6 3147.88 1000.20   1
   0  -2  -7 426.096 395.243   1
   0   2   9 1249.40 335.162  11
   0   2  10 2192.13 404.675  11
   0   2  10 2267.79 451.082   8
   0   2  11 865.093 212.982   8
   0  -3  13 141.509 76.9659  12
   0  -3  12 2884.56 376.865   8
   0  -3  11 3430.42 517.466   8
   0  -3  10 20158.7 1201.34  19
   0  -3  10 26542.1 1566.08   8
   0  -3   9 42855.0 1833.46  19
   0   3  -9 39438.6 4357.11   4
   0  -3   9 40905.1 3277.48  23
   0  -3   8 1520.00 614.053   2
   0  -3   8 1631.08 665.262  23
   0   3  -8 2133.68 1049.44   4
   0  -3   7 4793.34 1030.06   2
   0   3  -7 3436.84 1225.22   4
   0  -3   6 83286.8 3950.73   2
   0   3  -6 83430.1 5572.30   4
   0   3  -5 106981. 5638.04   4
   0  -3   5 112067. 4091.88   2
   0  -3   4 38029.4 2121.30   2
   0   3  -4 44627.6 3209.90   4
   0  -3   3 28359.4 1472.83   6
   0   3  -3 32155.8 2414.00   4
   0  -3   2 87616.5 2755.08   6
   0   3  -2 85611.1 3519.93   4
   0  -3   2 84835.7 2665.54   3
   0  -3   1 10911.8 1032.46   6
   0  -3   1 8104.43 830.833   3
   0  -3   0 79592.2 2890.05   6
   0  -3   0 74039.8 2688.07   3
   0  -3  -1 18046.7 1419.59   6
   0  -3  -1 19121.3 1502.44   3
   0  -3  -2 47889.3 2422.75   6
   0  -3  -3 106762. 3755.47   6
   0  -3  -4 64697.3 2994.04   6
   0  -3  -4 65749.6 4146.50   1
   0  -3  -5 4404.08 1148.20   1
   0  -3  -5 3089.38 645.035   6
   0  -3  -6 1938.68 778.093   1
   0   3   9 6640.42 724.163  11
   0   3   9 6455.96 726.642   8
   0   3  10 3830.26 462.266  11
   0   3  10 3150.38 394.470   8
   0  -4  13 511.500 103.583  12
   0  -4  12 523.969 195.963  12
   0  -4  11 1985.87 341.077   8
   0  -4  11 2229.13 369.586  19
   0  -4  10 5256.35 614.041   8
   0  -4  10 6199.47 710.274  19
   0  -4   9 5238.82 1222.27  23
   0  -4   9 5436.88 710.236  19
   0   4  -8 357.658 482.512   4
   0  -4   8 916.711 496.924  23
   0   4  -7 23937.1 3470.81   4
   0   4  -6 68066.3 5392.04   4
   0   4  -5 40069.9 3728.83   4
   0   4  -4 627.722 475.029   4
   0  -4   4 161.943 182.849   3
   0  -4   3 89.5396 75.2374   3
   0  -4   3 129.416 163.155   6
   0  -4   2 206594. 5172.83   6
   0   4  -2 191475. 6130.51   4
   0  -4   1 386725. 7127.52   3
   0  -4   1 414598. 7588.62   6
   0  -4   0 20529.0 1694.24   3
   0  -4   0 18154.6 1666.10   6
   0  -4  -1 9796.78 1234.81   6
   0  -4  -1 7542.99 1101.17   3
   0  -4  -2 15493.5 1617.08   6
   0  -4  -3 61322.3 3285.53   6
   0  -4  -4 34339.3 2482.86   6
   0  -4  -5 1282.40 319.205  20
   0  -4  -6 4119.21 565.555  20
   0  -4  -7 778.666 234.169  20
   0   4   9 1206.28 260.575  11
   0   4  10 72.0981 45.9831  11
   0  -5  12 3766.45 344.540  19
   0  -5  12 4866.51 450.981  12
   0  -5  11 3089.96 447.269  19
   0  -5  11 3380.09 498.360  12
   0  -5  10 383.712 223.729  12
   0  -5  10 203.929 155.187  19
   0  -5   9 17852.7 2397.21  23
   0  -5   9 19212.9 1401.80  19
   0  -5   8 106910. 5876.43  23
   0  -5   8 111856. 3422.63  19
   0   5  -8 100606. 7765.09   4
   0  -5   7 54744.4 4018.14  23
   0   5  -7 56202.3 5555.98   4
   0  -5   7 44370.5 3167.95   3
   0  -5   7 49524.0 2025.60  12
   0  -5   6 2682.11 770.954   3
   0   5  -6 3501.98 1299.41   4
   0   5  -5 431.207 478.240   4
   0  -5   5 342.855 266.031   3
   0  -5   4 1718.06 575.498   3
   0   5  -4 1549.36 725.740   4
   0  -5   3 220.718 249.354   3
   0   5  -3-14.3520 319.652   4
   0  -5   3 243.548 221.265   6
   0  -5   2 35258.4 2514.22   6
   0  -5   2 31957.0 2422.99   3
   0   5  -2 31931.4 2885.47   4
   0   5  -1 21057.3 2200.75   4
   0  -5   1 19990.4 1960.05   6
   0  -5   1 21272.7 1972.88   3
   0  -5   0 726.368 393.326   6
   0  -5   0 362.589 314.999   3
   0  -5  -1 301.021 307.284   6
   0  -5  -1 480.182 315.612   3
   0  -5  -2 310.287 312.401   6
   0  -5  -3 9281.53 973.367  15
   0  -5  -3 9688.03 1477.56   6
   0  -5  -4 83588.4 2711.94  20
   0  -5  -4 81083.6 4249.83   6
   0  -5  -4 80132.9 2971.00   9
   0  -5  -5 102774. 3033.48  20
   0  -5  -6 6565.88 742.981  20
   0  -5  -7 223.654 137.571  20
   0   5   8 2404.38 369.746  11
   0   5   9 1748.24 225.278  11
   0  -6  12 47.7177 34.2972  12
   0  -6  11 98.3535 89.3690  12
   0  -6  11 147.237 110.504  19
   0  -6  10 175.140 141.328  12
   0  -6  10 307.040 185.713  19
   0  -6   9 4379.82 605.474  12
   0  -6   9 4953.94 717.082  19
   0  -6   8 2441.60 513.556  19
   0  -6   8 2240.64 439.113  12
   0  -6   8 2256.67 913.737  23
   0  -6   7 1655.49 356.584  12
   0   6  -7 1945.31 1056.37   4
   0  -6   7 1939.72 477.148  19
   0  -6   7 2138.54 829.622  23
   0  -6   6 16767.1 1102.45  12
   0  -6   6 17045.3 1230.26   7
   0  -6   6 20494.5 1406.48  19
   0  -6   6 16542.3 1111.32  17
   0  -6   6 20194.5 2424.55  23
   0  -6   6 16658.8 2003.40   3
   0   6  -6 18092.1 3097.13   4
   0  -6   5 53097.8 3662.29  23
   0  -6   5 47266.6 1871.21   7
   0  -6   5 57310.5 2146.79  19
   0  -6   5 48238.1 1742.33  12
   0   6  -5 67372.6 5594.77   4
   0  -6   5 63933.2 3929.49   3
   0  -6   5 47569.3 1840.98  17
   0  -6   4 63668.2 3923.78   3
   0   6  -4 59349.5 4913.07   4
   0   6  -3 18027.5 2545.84   4
   0  -6   3 19028.5 2126.99   3
   0   6  -2 4224.35 1166.82   4
   0  -6   2 4487.73 1030.39   3
   0  -6   2 3402.70 901.930   6
   0  -6   1 8306.60 1442.69   6
   0   6  -1 7605.11 1501.06   4
   0  -6   1 8675.74 1440.01   3
   0  -6   0 48010.1 3401.73   3
   0  -6   0 60645.9 3948.61   6
   0  -6  -1 57151.5 2389.04   9
   0  -6  -1 54883.1 2252.58  20
   0  -6  -1 51027.7 2246.47  15
   0  -6  -2 16208.8 1321.92   9
   0  -6  -2 15496.7 1308.75  15
   0  -6  -2 15819.5 1253.04  20
   0  -6  -2 17228.6 2168.48   6
   0  -6  -3 2407.70 841.775   6
   0  -6  -3 3155.80 631.383  15
   0  -6  -3 3560.60 641.158   9
   0  -6  -3 3299.86 584.081  20
   0  -6  -4 216.235 176.110  20
   0  -6  -5 1702.03 394.589  20
   0  -6  -5 1688.45 386.338  14
   0  -6  -6 1259.55 306.834  20
   0   6   7 482.673 157.397  11
   0  -6  -7 700.269 192.157  20
   0  -7  11 13700.2 607.261  12
   0  -7  11 20848.1 981.055  19
   0  -7  10 23446.3 1183.34  21
   0  -7  10 22282.3 1019.44  12
   0  -7   9 712.157 184.478  12
   0  -7   9 1116.60 329.189  19
   0  -7   8 735.196 282.361  19
   0  -7   8 530.278 185.889  12
   0  -7   7 8508.95 788.452  12
   0  -7   7 9107.89 1719.66  23
   0  -7   7 10225.7 1034.08  19
   0  -7   6 20017.5 1186.55  12
   0  -7   6 22200.3 2576.95  23
   0  -7   6 24062.5 1519.34  19
   0  -7   6 19274.0 1326.82   7
   0  -7   5 4762.24 1119.43  23
   0  -7   5 4723.32 625.898  19
   0  -7   5 3984.96 510.315  12
   0  -7   5 3469.62 535.104   7
   0   7  -5 3172.88 1252.21   4
   0   7  -4 926.934 659.268   4
   0  -7   4 1150.51 272.557  12
   0  -7   4 567.359 399.087   3
   0  -7   3 5465.53 1217.09   3
   0   7  -3 4811.33 1342.17   4
   0  -7   3 7625.78 871.639  21
   0  -7   3 5824.64 680.558  20
   0  -7   2 6128.79 1283.87   3
   0  -7   2 5857.84 730.146  20
   0  -7   2 5966.68 724.536  21
   0  -7   1 3800.88 641.568  15
   0  -7   1 3494.96 584.313  20
   0  -7   1 2896.93 479.332  21
   0  -7   1 2850.07 954.180   6
   0  -7   1 2678.09 855.876   3
   0  -7   0 680.490 473.346   6
   0  -7   0 750.260 295.919  20
   0  -7   0 594.855 247.023  15
   0  -7  -1 26367.7 1710.06  20
   0  -7  -1 25281.4 1732.59  15
   0  -7  -1 27759.5 1833.43   9
   0  -7  -1 25011.8 2734.37   6
   0  -7  -2 36037.4 2137.28  15
   0  -7  -2 36866.0 2124.84   9
   0  -7  -2 35760.4 1987.94  20
   0  -7  -3 2556.72 558.034   9
   0  -7  -3 2810.54 546.046  20
   0  -7  -4 1408.72 368.106  20
   0  -7  -4 1095.15 314.550  14
   0  -7  -5 8455.49 762.724  14
   0  -7  -5 8158.97 772.001  20
   0  -7  -6 29412.3 1196.54  20
   0  -8  10 83.9261 73.2000  21
   0  -8  10 106.906 89.6639  19
   0  -8   9 2076.12 375.128  19
   0  -8   9 2368.49 413.752  21
   0  -8   8-32.7947 103.544  19
   0  -8   8 81.8948 79.7647  12
   0  -8   8 120.653 158.549  21
   0  -8   7 249.690 122.170  12
   0  -8   7 493.382 266.533  21
   0  -8   7 358.231 203.776  19
   0  -8   6 530.860 188.293  12
   0  -8   6 761.533 257.498  19
   0  -8   6 430.071 246.699  21
   0  -8   5 24376.8 1712.79  21
   0  -8   4 50999.0 2381.51  21
   0  -8   3 30931.5 1610.93  20
   0  -8   3 30431.7 1658.47  14
   0  -8   2 39965.1 2134.42  15
   0  -8   2 38822.2 1930.53  20
   0  -8   2 35279.5 1795.11  21
   0  -8   2 39031.8 2026.48  14
   0  -8   1 42084.1 2086.97  20
   0  -8   1 45186.5 2286.13  15
   0  -8   0 15013.2 1259.24  20
   0  -8   0 15923.6 1372.67  15
   0  -8   0 16394.9 1437.57   9
   0  -8  -1 916.055 334.765   9
   0  -8  -1 1001.91 368.557  15
   0  -8  -1 826.205 289.835  20
   0  -8  -2 1047.02 339.362  20
   0  -8  -2 1178.94 337.763  14
   0  -8  -2 1281.27 385.578   9
   0  -8  -3 627.763 246.891  14
   0  -8  -3 530.110 213.255  20
   0  -8  -4 973.456 249.316  20
   0  -8  -4 967.186 244.630  14
   0  -8  -5 191.133 81.6484  14
   0  -8  -5 228.367 93.9804  20
   0  -9   9 18507.6 870.862  21
   0  -9   8 9051.20 755.997  21
   0  -9   7 2391.01 439.343  21
   0  -9   6 12646.4 1057.20  21
   0  -9   5 3458.64 567.074  21
   0  -9   5 2529.11 418.264  15
   0  -9   4 3410.12 549.396  21
   0  -9   4 2927.64 484.855  15
   0  -9   3 16024.4 1178.37  15
   0  -9   3 12999.4 934.241  14
   0  -9   3 15782.5 1111.66  21
   0  -9   3 13326.0 901.557  20
   0  -9   2 7325.58 814.558  15
   0  -9   2 8582.82 955.140   9
   0  -9   2 7141.17 755.665  14
   0  -9   2 5724.02 606.943  21
   0  -9   2 6313.15 683.879  20
   0  -9   1 25.9984 93.9380  14
   0  -9   1 49.4229 114.899  20
   0  -9   1 18.4411 120.040   9
   0  -9   1 239.416 170.814  15
   0  -9   0 6319.35 755.056  15
   0  -9   0 6312.67 727.246  14
   0  -9   0 6154.33 697.064  20
   0  -9   0 6483.65 783.765   9
   0  -9  -1 4902.23 612.642  14
   0  -9  -1 4958.12 589.611  20
   0  -9  -1 5174.07 653.699   9
   0  -9  -2 4123.30 511.965  14
   0  -9  -2 4000.60 489.100  20
   0  -9  -3 23718.7 1008.86  14
   0  -9  -3 23488.2 1005.77  20
   0  -9  -4 7357.29 417.850  20
   0 -10   7 2155.46 251.800   9
   0 -10   7 3308.69 339.419  21
   0 -10   6 1321.41 251.171   9
   0 -10   6 1150.53 226.116  21
   0 -10   5 4166.77 489.718   9
   0 -10   5 3224.48 380.479  21
   0 -10   4 34166.7 1450.55   9
   0 -10   4 22377.8 955.686  21
   0 -10   3 53505.8 1839.70   9
   0 -10   3 33362.0 1166.45  15
   0 -10   2 17194.7 1036.34   9
   0 -10   1 922.352 228.053   9
   0 -10   1 577.039 158.148  14
   0 -10   0 298.985 101.012  20
   0 -10   0 420.738 133.029  14
   0 -10  -1 1237.61 177.688  20
   1 -11   2 1860.45 246.269   9
   1 -11   3 1058.37 196.495   9
   1 -11   4 2834.88 312.229   9
   1 -11   5 1513.76 205.819   9
   1 -10  -3 1898.83 207.364  20
   1 -10  -2 1949.93 272.680  20
   1 -10  -1 4342.98 490.541  14
   1 -10  -1 4287.47 466.977  20
   1 -10   0 10712.8 871.716  15
   1 -10   0 10406.4 807.550  14
   1 -10   0 9815.71 766.328  20
   1 -10   0 10849.9 849.546   9
   1 -10   1 4546.47 584.305   9
   1 -10   1 4420.63 576.982  15
   1 -10   1 4010.95 506.155  14
   1 -10   1 3868.02 489.416  20
   1 -10   2 10166.2 911.829   9
   1 -10   2 9573.38 862.706  15
   1 -10   2 7576.59 664.943  14
   1 -10   3 19581.7 1288.50   9
   1 -10   3 17120.4 1135.26  15
   1 -10   4 6992.83 695.049  15
   1 -10   4 5903.14 585.711  21
   1 -10   5 6310.13 609.526  15
   1 -10   5 7328.17 669.574  21
   1 -10   6 5790.88 503.567  15
   1 -10   6 9604.31 756.051  21
   1 -10   7 3396.71 412.990  21
   1 -10   8 4482.18 403.903  21
   1  -9  -5 4537.31 314.918  20
   1  -9  -4 10286.1 676.753  14
   1  -9  -4 10927.0 709.508  20
   1  -9  -3 3297.03 466.499  20
   1  -9  -3 3096.49 462.624  14
   1  -9  -2 3849.03 567.552  14
   1  -9  -2 3759.08 573.490   9
   1  -9  -2 3958.90 569.392  20
   1  -9  -1 10250.3 1052.51  15
   1  -9  -1 9461.98 962.718   9
   1  -9  -1 9107.12 948.271  14
   1  -9  -1 9105.83 924.201  20
   1  -9   0 17545.5 1322.22  20
   1  -9   0 17159.0 1338.67  14
   1  -9   0 17753.2 1375.34   9
   1  -9   0 17781.2 1412.82  15
   1  -9   1 22503.4 1607.65   9
   1  -9   1 22191.3 1607.16  15
   1  -9   1 20059.0 1448.45  14
   1  -9   1 21634.6 1478.23  20
   1  -9   2 9427.00 1037.52  15
   1  -9   2 6491.57 685.934  21
   1  -9   2 7870.94 861.245  14
   1  -9   2 8274.43 894.203  20
   1  -9   3 5623.26 666.883  14
   1  -9   3 6117.67 725.499  21
   1  -9   3 6110.44 714.061  20
   1  -9   4 12710.8 1094.16  21
   1  -9   4 9503.54 821.149   7
   1  -9   5 7941.46 765.474   7
   1  -9   5 11237.6 1057.29  21
   1  -9   6 4310.98 662.490  21
   1  -9   7 1801.42 411.295  21
   1  -9   7 1267.69 267.738  19
   1  -9   8 4292.02 471.876  19
   1  -9   8 6075.09 684.974  21
   1  -9   9 9485.50 618.965  19
   1  -9   9 11329.5 763.756  21
   1  -8  -6 671.658 149.020  20
   1  -8  -5 609.462 187.851  14
   1  -8  -5 625.524 192.825  20
   1  -8  -4 5447.00 665.200  20
   1  -8  -4 5757.15 699.556  14
   1  -8  -3 18388.4 1344.94  20
   1  -8  -3 16646.3 1308.92   9
   1  -8  -3 19088.9 1416.09  14
   1  -8  -3 18577.5 1488.71  15
   1  -8  -2 16107.0 1372.08  14
   1  -8  -2 16020.3 1316.91  20
   1  -8  -2 14726.3 1298.81   9
   1  -8  -2 15349.6 1411.26  15
   1  -8  -1 10829.0 1182.27  15
   1  -8  -1 11017.9 1118.99  20
   1  -8  -1 11016.3 1162.20  14
   1  -8  -1 10615.7 1125.65   9
   1  -8   0 10898.2 1114.59  20
   1  -8   0 10941.8 1158.61  14
   1  -8   0 11470.6 1206.12  15
   1  -8   1 7955.49 1001.25  15
   1  -8   1 7031.80 898.374  14
   1  -8   1 7730.04 929.699  20
   1  -8   2 520.040 244.309  14
   1  -8   2 711.200 277.954  20
   1  -8   2 458.849 211.700  21
   1  -8   2 330.999 177.024   7
   1  -8   3 3585.23 581.138  20
   1  -8   3 3411.87 558.468  14
   1  -8   3 3930.58 625.150  21
   1  -8   3 3463.28 536.268   7
   1  -8   4 9674.98 928.122   7
   1  -8   5 7891.26 768.595  19
   1  -8   5 7816.99 1392.07  23
   1  -8   5 8880.31 913.571   7
   1  -8   6 13176.3 1140.45   7
   1  -8   6 13395.1 1973.20  23
   1  -8   6 13066.9 1062.99  19
   1  -8   7 23980.3 1478.63  19
   1  -8   7 24895.3 2720.24  23
   1  -8   8 11766.3 1018.24  19
   1  -8   9 3939.47 541.658  19
   1  -8  10 2481.59 368.047  19
   1  -8  10 1889.03 304.084  21
   1  -8  11 1638.51 211.742  19
   1  -7  -7 5902.29 444.205  20
   1  -7  -6 912.499 233.313  14
   1  -7  -6 1092.14 269.785  20
   1  -7  -5 5205.74 664.076  20
   1  -7  -5 5785.27 707.923  14
   1  -7  -4 8449.66 912.821  20
   1  -7  -4 8609.02 959.973  14
   1  -7  -3 38713.5 2121.83  14
   1  -7  -3 39413.5 2273.97  15
   1  -7  -3 37156.1 1999.98  20
   1  -7  -3 36053.9 2042.30   9
   1  -7  -2 40729.6 2135.37   9
   1  -7  -2 41746.5 2142.43  20
   1  -7  -2 42649.4 2302.01  15
   1  -7  -1 46639.0 2226.74  20
   1  -7  -1 46565.0 2336.95  15
   1  -7   0 31642.4 3038.31   3
   1  -7   0 32564.7 1831.75  20
   1  -7   1 25086.1 1567.63  20
   1  -7   1 25449.3 2729.40   3
   1  -7   2 6728.65 709.030   7
  -1   7  -2 8858.94 1918.13   4
   1  -7   2 7914.80 850.709  20
   1  -7   2 7929.03 862.595  14
   1  -7   2 7998.57 1531.84   3
   1  -7   3 35739.6 3242.60   3
  -1   7  -3 33792.3 3899.85   4
   1  -7   3 25730.4 1463.06  20
   1  -7   3 25155.5 1398.98   7
  -1   7  -4 30284.8 3847.28   4
   1  -7   4 22284.4 1378.83   7
   1  -7   4 18730.4 2118.40  23
   1  -7   4 27584.8 2867.87   3
   1  -7   4 24669.5 1473.64  17
   1  -7   5 31850.1 3049.26  23
   1  -7   5 31331.7 1715.43   7
   1  -7   5 31805.1 1666.24  19
   1  -7   5 33215.5 1735.40  17
  -1   7  -5 32848.1 4165.97   4
   1  -7   5 30439.2 3001.93   3
   1  -7   6 36281.6 1947.97   7
   1  -7   6 38968.9 1988.68  19
   1  -7   6 36958.9 1854.53  17
   1  -7   6 30906.2 2966.93   3
   1  -7   6 39103.2 3597.88  23
  -1   7  -6 31557.0 4250.15   4
   1  -7   7 20015.4 1491.62   7
   1  -7   7 21518.7 1401.56  17
   1  -7   7 23847.6 1628.83  19
   1  -7   7 23247.9 2836.69  23
   1  -7   8 157.436 127.153  12
   1  -7   8 478.991 613.848  23
   1  -7   8 394.803 194.690  17
   1  -7   8 457.067 291.574  19
   1  -7   9 3866.63 511.967  17
   1  -7   9 3050.95 423.408  12
   1  -7   9 4431.09 1193.46  23
   1  -7   9 4900.11 694.146  19
   1  -7  10 2982.61 487.548  19
   1  -7  10 1881.52 277.529  12
   1  -7  11 12022.6 744.955  19
   1  -6  -7 1513.43 290.139  20
   1  -6  -6 13106.0 1005.97  20
   1  -6  -5 17027.2 1231.90  20
   1  -6  -5 18138.7 1289.08  14
   1  -6  -4 12181.1 1056.30  20
   1  -6  -4 11503.1 1101.51   9
   1  -6  -4 13065.0 1294.85  15
   1  -6  -3 10527.8 1084.97  15
   1  -6  -3 9084.01 950.531   9
   1  -6  -3 9776.43 947.394  20
   1  -6  -2 9205.42 1546.85   6
   1  -6  -2 8288.45 906.395  15
   1  -6  -2 7755.21 827.984  20
   1  -6  -1 11767.5 1731.51   6
   1  -6  -1 11466.9 1688.66   3
   1  -6   0 6784.05 1291.43   6
   1  -6   0 6207.68 1231.63   3
   1  -6   1 15765.1 1920.21   3
   1  -6   2 22308.9 2273.17   3
  -1   6  -2 21186.5 2646.07   4
  -1   6  -3 7686.67 1688.28   4
   1  -6   3 5934.36 1156.72   3
   1  -6   4 14823.0 1890.92   3
  -1   6  -4 15355.3 2541.77   4
   1  -6   5 20458.8 2289.87   3
  -1   6  -5 21114.6 3140.88   4
   1  -6   6 11742.2 991.479  17
   1  -6   6 11774.0 1772.91   3
  -1   6  -6 14037.2 2726.67   4
   1  -6   6 11898.7 1078.11   7
   1  -6   6 13663.4 2017.35  23
   1  -6   6 8816.72 743.380  12
   1  -6   7 12721.1 963.609  12
   1  -6   7 13500.3 1916.19   3
  -1   6  -7 13786.8 2792.44   4
   1  -6   7 16486.4 2350.04  23
   1  -6   7 14952.2 1328.80   7
   1  -6   7 15231.2 1171.91  17
   1  -6   8 21306.2 1284.67  12
   1  -6   8 24026.7 1474.56  17
   1  -6   8 25805.6 2988.26  23
   1  -6   9 12893.8 995.102  12
   1  -6   9 16007.1 2252.34  23
   1  -6   9 13483.9 1046.16  17
   1  -6   9 17495.6 1344.93  19
   1  -6  10 2074.38 372.741  12
   1  -6  10 2651.99 466.481  19
   1  -6  10 1855.50 336.156  17
   1  -6  11 8273.12 677.053  19
   1  -6  11 6798.58 544.470  12
   1  -6  12 1662.22 197.039  19
   1  -5  -8 3092.51 392.699   7
  -1   5   8 5525.27 562.409  11
   1  -5  -7 1826.35 348.794   7
   1  -5  -6 43291.0 1814.03  20
   1  -5  -5 20809.2 1281.34  20
  -1   5   5 22055.6 2825.41   5
   1  -5  -4 3730.06 622.784  15
  -1   5   4 2952.04 1054.96   5
   1  -5  -4 3277.52 809.223   6
  -1   5   3 19543.7 2247.91   5
   1  -5  -3 25205.0 2260.59   6
   1  -5  -2 77659.9 3905.24   6
   1  -5  -2 64124.7 3642.62   3
   1  -5  -1 39755.0 2778.03   3
   1  -5  -1 42619.7 2848.85   6
   1  -5   0 64734.1 3428.90   3
   1  -5   0 74498.0 3706.61   6
   1  -5   1 5818.30 992.543   3
   1  -5   1 4806.34 954.193   6
   1  -5   2 49716.0 2899.33   3
  -1   5  -2 39398.8 3149.60   4
  -1   5  -3 53272.3 3923.34   4
   1  -5   3 51246.9 2993.78   3
   1  -5   4 78920.4 3909.92   3
  -1   5  -4 109497. 6020.29   4
  -1   5  -5 52425.3 4507.98   4
  -1   5  -6 6354.49 1743.65   4
   1  -5   7 9845.27 1700.89  23
   1  -5   7 8905.30 1000.23   7
  -1   5  -7 8567.23 2130.75   4
   1  -5   8 51974.7 4054.79  23
  -1   5  -8 43856.5 4922.70   4
   1  -5   9 16011.4 2213.14  23
   1  -5  10 3321.93 532.672  19
   1  -5  11 3581.57 456.236  19
   1  -5  11 3680.98 481.915  12
   1  -5  12 1032.18 191.486  12
  -1   4  10 3412.93 362.071  11
  -1   4   9 6115.78 609.230  11
  -1   4   8 4244.39 564.278  11
  -1   4   7 2487.55 1038.63   5
   1  -4  -4 20439.2 1792.64   6
   1  -4  -3 75260.3 3394.22   6
  -1   4   2 98410.7 4069.04   5
   1  -4  -2 100545. 3811.19   6
   1  -4  -1 53211.9 2786.36   3
   1  -4  -1 54200.1 2747.82   6
  -1   4   1 53108.7 2453.77   5
  -1   4   0 36156.9 1507.89   5
   1  -4   0 36002.1 2161.53   3
   1  -4   1 36056.6 2209.77   6
   1  -4   1 33356.4 1978.01   3
   1  -4   2 43445.3 2290.90   3
  -1   4  -3 69312.2 3923.09   4
  -1   4  -4 95476.2 5052.01   4
   1  -4   5 67044.8 3580.91   2
  -1   4  -5 56743.4 4292.00   4
  -1   4  -6 39355.5 3973.10   4
   1  -4   6 37197.3 2922.15   2
   1  -4   7 14291.7 1945.30   2
  -1   4  -7 14095.8 2554.78   4
   1  -4   8 4272.83 1101.64   2
  -1   4  -8 5206.25 1582.15   4
   1  -4   8 3503.46 943.602  23
   1  -4   9 2686.84 874.620  23
   1  -4  10 1861.69 396.780   8
   1  -4  10 1999.63 394.664  19
   1  -4  11 1464.70 304.623   8
   1  -4  11 1440.49 277.744  19
   1  -4  12 19.3245 37.3388   8
   1  -4  12 3176.72 384.323  12
  -1   3  11 5821.83 446.984   8
  -1   3  10 9310.40 742.746  11
  -1   3  10 9663.46 830.037   8
  -1   3   9 12720.0 988.146  11
  -1   3   9 13741.4 1152.04   8
  -1   3   8 9790.00 998.746   8
  -1   3   8 8143.33 814.023  11
   1  -3  -6 21725.0 2483.47   1
   1  -3  -5 103374. 5066.95   1
   1  -3  -4 69520.4 2787.91   6
   1  -3  -4 77220.5 4012.69   1
   1  -3  -3 109891. 3439.81   6
   1  -3  -2 64582.0 2546.08   6
   1  -3  -2 71637.1 2919.59   3
   1  -3  -1 27497.0 1663.10   3
   1  -3  -1 28152.2 1655.52   6
   1  -3   0 65297.8 2472.69   6
   1  -3   0 56401.0 2155.78   3
   1  -3   1 48396.1 1959.23   3
   1  -3   1 51315.7 2197.81   6
  -1   3  -1 47825.1 1298.24   5
  -1   3  -3 70664.7 3534.04   4
   1  -3   3 78285.7 3004.23   2
  -1   3  -4 137220. 5535.70   4
   1  -3   4 150506. 4734.33   2
  -1   3  -5 79125.6 4696.93   4
   1  -3   5 83455.7 3945.94   2
  -1   3  -6 145394. 6980.20   4
   1  -3   6 145288. 5797.64   2
   1  -3   7 37560.4 3229.71   2
  -1   3  -7 37787.7 3882.62   4
   1  -3   8 2920.16 955.640   2
   1  -3   8 1222.34 539.534  23
  -1   3  -8 2569.17 1081.24   4
  -1   3  -8 2441.03 771.163  24
   1  -3   9 8308.84 1375.49  23
   1  -3  10 10837.8 841.169  19
   1  -3  11 9900.69 872.414   8
   1  -3  12 5101.07 479.323   8
  -1   2  12 4315.42 351.956   8
  -1   2  11 1979.88 364.715   8
  -1   2  10 3949.99 543.418  11
  -1   2  10 4803.60 694.531   8
  -1   2   9 8329.00 852.103  11
  -1   2   9 9934.81 1051.94   8
  -1   2   8 3403.21 529.650  11
   1  -2  -8 3344.22 1045.66   1
   1  -2  -7 10436.8 1759.18   1
   1  -2  -6 4404.97 1084.50   1
   1  -2  -5 40477.0 2991.09   1
   1  -2  -4 65370.8 2179.87   6
   1  -2  -4 77738.5 3707.63   1
   1  -2  -3 76628.3 2326.60   6
   1  -2  -3 87283.0 3475.90   1
   1  -2  -2 188551. 4355.55   1
   1  -2  -2 184287. 3497.54   6
   1  -2  -1 230949. 3842.31   3
   1  -2  -1 237178. 3914.47   6
   1  -2   0 8870.13 748.038   6
   1  -2   0 8270.42 630.356   3
   1  -2   1 114968. 2510.61   2
  -1   2  -1 91681.0 1851.28   5
  -1   2  -2 308875. 5560.47   4
   1  -2   2 265580. 4542.09   2
  -1   2  -3 128239. 4193.28   4
  -1   2  -4 150415. 5210.34   4
  -1   2  -5 27994.1 2529.32   4
  -1   2  -6 13712.5 1983.95   4
  -1   2  -7 5546.95 1343.78   4
  -1   2  -8 4718.86 1143.00  24
   1  -2   8 5472.71 1327.21   2
  -1   2  -8 4747.65 1368.47   1
   1  -2   8 3670.60 599.041  11
   1  -2   9 11824.4 1133.25  11
   1  -2  11 1552.45 367.786   8
   1  -2  12 4865.16 498.710   8
  -1   1  12 3844.91 442.416   8
  -1   1  11 6147.02 729.293   8
  -1   1  10 1716.42 404.251  11
  -1   1  10 1926.53 487.123   8
  -1   1   9 525.716 242.226  11
   1  -1  -8 15737.6 2272.92   1
  -1   1   8 13488.7 1075.77  11
   1  -1  -7 32582.5 3107.10   1
   1  -1  -6 31578.1 2763.79   1
   1  -1  -5 18349.6 1897.00   1
   1  -1  -4 141076. 4599.89   1
   1  -1  -4 148623. 4968.07   4
   1  -1  -3 144435. 4327.04   4
   1  -1  -3 127989. 3696.20   1
   1  -1  -2 72936.7 2220.20   1
  -1   1   1 144214. 2447.62   5
   1  -1  -1 140887. 2128.14   3
   1  -1   0 87658.8 1457.03   2
  -1   1   0 84073.0 1656.69   5
  -1   1  -1 174015. 2728.18   5
  -1   1  -2 62585.0 2083.65   4
  -1   1  -3 196313. 4503.41   4
  -1   1  -4 115683. 4096.17   4
  -1   1  -4 101641. 2477.10   6
  -1   1  -5 11709.1 1483.45   4
  -1   1  -6 12905.5 1684.23   4
  -1   1  -7 38371.5 3746.83   1
   1  -1   8 15803.8 1254.25  11
  -1   1  -8 15323.5 2516.11   1
   1  -1   9 2085.33 486.782  11
   1  -1  10 5380.77 748.721  11
   1  -1  11 8640.36 844.117   8
   1  -1  12 5637.67 513.314   8
  -1   0  13 3680.49 305.947   8
  -1   0  12 7471.36 670.953   8
  -1   0  11 5940.87 738.455   8
  -1   0  10 742.471 296.797   8
   1   0  -9 1082.77 612.005   1
  -1   0   9 1870.67 416.782  11
  -1   0   8 22103.6 1382.23  11
   1   0  -8 18802.9 2505.19   1
   1   0  -7 31238.3 3113.85   4
   1   0  -7 28208.6 2831.12   1
   1   0  -6 23743.9 2323.82   1
   1   0  -6 26545.9 2692.40   4
   1   0  -5 14606.3 1821.11   4
   1   0  -4 184603. 5680.63   4
   1   0  -3 65061.4 2935.07   4
   1   0  -2 117614. 3318.41   4
  -1   0   1 103253. 1737.70   5
   1   0  -1 114565. 2536.94   4
  -1   0   0 119081. 2050.46   5
  -1   0   0 120975. 1992.86   1
  -1   0  -1 138307. 3138.93   1
  -1   0  -1 117775. 1320.44   4
  -1   0  -2 51496.1 1583.93   4
  -1   0  -2 56730.5 1914.19   6
  -1   0  -3 194754. 5542.48   1
  -1   0  -3 187542. 3558.26   6
  -1   0  -4 31937.6 1919.58   4
  -1   0  -4 32645.9 1494.41   6
  -1   0  -5 27003.8 1934.08   4
  -1   0  -5 35382.9 3009.30   1
  -1   0  -6 21803.0 2660.32   1
  -1   0  -7 29609.5 3338.93   1
  -1   0  -8 5346.62 1465.00   1
   1   0   8 6572.25 810.296  11
   1   0   9 1500.58 403.091  11
   1   0  10 7660.52 838.350  11
   1   0  11 5834.30 665.783   8
   1   0  12 2132.66 273.643   8
  -1  -1  13 3579.31 329.286   8
  -1  -1  12 1301.35 288.948   8
  -1  -1  11 3724.91 598.641   8
  -1  -1  10 14527.6 1252.03   8
   1   1  -9 2559.46 986.292   4
  -1  -1   9 3290.16 953.851   5
   1   1  -9 2610.81 983.126   1
  -1  -1   8 7426.60 811.732  11
   1   1  -8 5665.65 1537.84   4
   1   1  -8 4343.25 1220.50   1
   1   1  -7 3511.35 1160.12   4
   1   1  -6 43950.3 3704.62   4
   1   1  -5 92772.8 4854.12   4
   1   1  -4 119736. 4948.21   4
   1   1  -3 209881. 5444.31   4
  -1  -1   3 195274. 3171.85   2
  -1  -1   2 170113. 2498.91   6
  -1  -1   2 162628. 2291.59   5
  -1  -1   1 8740.48 535.093   3
  -1  -1   1 9324.05 687.517   6
  -1  -1   1 9048.73 505.912   5
  -1  -1   0 100318. 2314.10   3
  -1  -1   0 101623. 2473.11   6
  -1  -1  -1 295984. 4574.26   6
  -1  -1  -1 343007. 5992.37   1
  -1  -1  -2 101023. 2861.10   6
  -1  -1  -2 106665. 3991.37   1
  -1  -1  -3 98579.0 2937.73   6
  -1  -1  -3 102953. 4475.12   1
  -1  -1  -4 55037.0 3644.64   1
  -1  -1  -4 42196.8 2012.61   6
  -1  -1  -5 41070.0 3477.60   1
  -1  -1  -5 28343.0 1665.33   6
  -1  -1  -6 12849.0 2107.95   1
  -1  -1  -7 9451.43 1886.61   1
   1   1   9 7895.03 892.141  11
   1   1  10 1287.13 330.189  11
   1   1  11 2227.36 348.479   8
  -1  -2  13 1696.44 219.361   8
  -1  -2  13 1582.24 231.245  12
  -1  -2  12 8307.98 704.972   8
  -1  -2  11 13683.7 1082.47   8
  -1  -2  10 18076.7 1346.77   8
  -1  -2   9 1730.08 424.853   8
   1   2  -9 930.872 593.118   1
  -1  -2   9 1188.90 288.097  19
   1   2  -9 957.288 457.514   4
   1   2  -8 7659.17 1966.83   4
  -1  -2   7 75633.9 3713.49   5
  -1  -2   7 77557.8 3746.71   2
   1   2  -7 79703.7 5837.64   4
   1   2  -6 137606. 7083.15   4
  -1  -2   6 138158. 4489.48   2
  -1  -2   5 52634.7 2318.77   5
  -1  -2   5 56941.0 2503.31   2
  -1  -2   4 125915. 3182.73   2
  -1  -2   4 115672. 2750.79   5
  -1  -2   3 263.121 130.868   6
   1   2  -3 402.797 275.774   4
  -1  -2   3 131.576 59.7584   5
   1   2  -2 29698.4 1909.77   4
  -1  -2   2 33336.6 1352.26   3
  -1  -2   2 32870.6 1511.41   6
  -1  -2   1 55167.3 1890.20   3
   1   2  -1 62207.5 2361.11   4
  -1  -2   0 49717.2 2032.70   3
  -1  -2   0 54545.1 2219.22   6
  -1  -2  -1 1675.57 412.731   6
  -1  -2  -2 179323. 4475.77   6
  -1  -2  -2 209559. 6180.25   1
  -1  -2  -3 60476.9 3754.80   1
  -1  -2  -3 57700.0 2670.78   6
  -1  -2  -4 102124. 5308.30   1
  -1  -2  -4 97576.6 3595.36   6
  -1  -2  -5 54883.2 4210.66   1
  -1  -2  -5 46360.7 2519.78   6
  -1  -2  -6 3587.25 1158.62   1
  -1  -2  -7 954.221 611.243   1
   1   2   9 9904.49 936.241  11
   1   2  10 8850.60 742.378  11
   1   2  10 8137.99 715.186   8
  -1  -3  13 3411.55 326.355  12
  -1  -3  12 3914.36 509.878  12
  -1  -3  12 2888.94 373.035   8
  -1  -3  11 3091.22 484.122   8
  -1  -3  11 2485.53 385.564  19
  -1  -3  10 2162.74 411.206  19
  -1  -3  10 1952.16 407.011   8
   1   3  -9 3668.65 1419.80   4
  -1  -3   9 4596.01 610.194  19
  -1  -3   9 4556.48 621.790   8
  -1  -3   8 5911.64 678.358  19
  -1  -3   8 6673.06 1311.01  23
   1   3  -8 6230.65 1875.26   4
  -1  -3   8 5512.30 654.835   8
   1   3  -7 24648.2 3496.20   4
   1   3  -6 35609.1 3819.35   4
   1   3  -5 89669.6 5340.61   4
  -1  -3   4 51272.5 1925.85   6
  -1  -3   4 55931.4 2403.69   3
  -1  -3   3 49901.8 2178.08   6
   1   3  -3 55049.8 3296.03   4
  -1  -3   2 33097.6 1748.60   3
   1   3  -2 37584.6 2442.24   4
  -1  -3   2 38120.4 2047.95   6
  -1  -3   1 34328.0 1863.66   3
  -1  -3   1 40521.7 2203.69   6
   1   3  -1 35321.6 2170.27   4
   1   3   0 32221.5 1826.17   4
  -1  -3   0 39486.9 2139.76   3
  -1  -3  -1 83772.0 3414.93   6
  -1  -3  -2 101876. 3968.61   6
  -1  -3  -3 45649.4 2777.26   6
  -1  -3  -4 30325.3 2347.06   6
  -1  -3  -5 2856.03 694.240   6
  -1  -3  -5 3468.88 517.546  20
  -1  -3  -6 648.356 231.177  20
  -1  -3  -7 5161.73 635.721  20
   1   3   9 2769.20 441.988  11
   1   3  10 2143.30 301.739  11
  -1  -4  13 2084.62 229.309  12
  -1  -4  12 691.391 215.212  12
  -1  -4  11 1576.02 331.468  19
  -1  -4  11 2427.71 473.231  12
  -1  -4  10 629.452 227.823  19
  -1  -4   9 46259.2 2084.25  19
   1   4  -8 28974.0 4127.21   4
  -1  -4   8 26987.2 1567.33  19
  -1  -4   8 25302.0 2739.32  23
  -1  -4   7 1568.50 624.064  23
  -1  -4   7 1992.91 402.427  19
   1   4  -6 17875.0 2796.02   4
  -1  -4   6 18078.9 1686.16   3
  -1  -4   5 60804.8 2997.32   3
   1   4  -5 59689.8 4683.12   4
  -1  -4   4 29387.8 1821.75   6
   1   4  -4 33871.5 3189.32   4
  -1  -4   4 35544.1 2191.23   3
  -1  -4   3 64224.9 2986.78   6
  -1  -4   3 61558.0 2857.43   3
  -1  -4   2 11827.2 1371.70   6
  -1  -4   2 9715.48 1146.77   3
  -1  -4   1 24335.3 2095.80   6
  -1  -4   1 22964.4 1817.55   3
   1   4  -1 21285.8 1940.19   4
   1   4   0 41075.0 2474.67   4
  -1  -4   0 43780.4 2584.91   3
  -1  -4  -1 58975.9 3409.17   6
  -1  -4  -2 44421.4 3062.00   6
  -1  -4  -3 4700.37 1015.31   6
  -1  -4  -4 7500.41 1264.39   6
  -1  -4  -4 7316.26 800.992  20
  -1  -4  -5 41696.9 1956.12  20
  -1  -4  -6 19357.3 1303.71  20
  -1  -4  -7 2802.36 457.677  20
  -1  -4  -8 5644.30 514.634  20
   1   4   9 1902.51 296.992  11
  -1  -5  12 8060.59 589.111  12
  -1  -5  11 8057.89 763.659  12
  -1  -5  11 7100.59 684.759  19
  -1  -5  10 7217.00 834.869  12
  -1  -5  10 7133.49 804.880  19
  -1  -5   9 19829.8 1424.91  12
  -1  -5   9 19230.7 1405.22  19
  -1  -5   8 20486.8 1424.06  12
  -1  -5   8 19614.2 1437.79  19
  -1  -5   7 13567.1 1149.48  19
  -1  -5   7 13806.0 1111.58  12
  -1  -5   7 12688.0 1948.07  23
   1   5  -7 13376.7 2757.79   4
   1   5  -6 10278.1 2239.77   4
  -1  -5   6 10148.8 1638.04  23
  -1  -5   6 11252.3 931.840  12
  -1  -5   6 12037.6 1023.04  19
  -1  -5   5 11366.9 1431.64   3
   1   5  -5 14379.1 2455.25   4
  -1  -5   4 5376.04 994.954   3
  -1  -5   4 4574.16 847.692   6
   1   5  -4 4907.47 1296.86   4
  -1  -5   3 12384.5 1515.47   6
   1   5  -3 9266.21 1701.95   4
  -1  -5   3 11612.7 1450.78   3
  -1  -5   2 12662.8 1613.77   6
   1   5  -2 14284.4 1941.46   4
  -1  -5   2 12308.9 1499.99   3
   1   5  -1 11891.6 1642.43   4
  -1  -5   1 10223.5 1390.39   3
  -1  -5   1 13063.5 1709.88   6
  -1  -5   0 12581.7 1713.84   6
  -1  -5  -1 13691.6 1844.99   6
  -1  -5  -2 13098.3 1138.12  15
  -1  -5  -2 13463.1 1170.70   9
  -1  -5  -2 16545.2 2052.26   6
  -1  -5  -2 13647.0 1116.87  20
  -1  -5  -3 13880.2 1272.96   9
  -1  -5  -3 12484.2 1779.86   6
  -1  -5  -3 13214.7 1142.66  20
  -1  -5  -4 13201.6 1787.49   6
  -1  -5  -4 21710.8 1487.29  20
  -1  -5  -5 25423.6 1557.88  20
  -1  -5  -6 3362.67 523.041  20
  -1  -5  -7 2629.54 391.174  20
   1   5   8 4845.52 451.935  11
  -1  -6  12 7497.83 430.306  12
  -1  -6  11 7942.41 683.919  19
  -1  -6  11 7881.18 629.755  12
  -1  -6  10 1175.24 313.785  12
  -1  -6  10 1124.36 320.389  19
  -1  -6  10 924.361 233.075  21
  -1  -6   9 3408.31 560.538  21
  -1  -6   9 4284.01 667.973  19
  -1  -6   9 3729.26 567.708  12
  -1  -6   8 11066.0 997.590  12
  -1  -6   8 11240.5 1109.58  19
  -1  -6   7 31767.8 1691.39  12
  -1  -6   7 33602.9 1895.82  19
  -1  -6   6 38644.2 1931.52  19
  -1  -6   6 37974.5 1767.22  12
  -1  -6   5 33708.3 1677.02  19
  -1  -6   5 34191.9 1605.74  12
  -1  -6   4 23203.0 1270.31  12
  -1  -6   4 22381.3 2195.68   3
  -1  -6   4 18286.3 1145.04  19
   1   6  -4 15296.6 2492.26   4
  -1  -6   4 28961.9 1730.97  21
  -1  -6   3 17320.1 1993.40   6
  -1  -6   3 18664.6 1319.11  21
  -1  -6   3 15645.8 1031.45  12
  -1  -6   3 15316.0 1819.82   3
  -1  -6   2 7467.56 1279.40   3
  -1  -6   2 7866.71 1419.75   6
  -1  -6   2 8291.87 841.963  21
  -1  -6   2 6178.63 677.802  20
  -1  -6   1 32178.4 1622.17  21
  -1  -6   1 33154.9 1672.82  20
  -1  -6   1 31924.9 1678.81  15
  -1  -6   0 25006.7 2663.36   6
  -1  -6   0 27434.3 1725.16   9
  -1  -6   0 23348.8 1506.06  15
  -1  -6   0 25914.1 1566.92  20
  -1  -6   0 20883.5 1262.47  21
  -1  -6  -1 30077.7 2937.77   6
  -1  -6  -1 35080.7 2002.21   9
  -1  -6  -1 33934.3 1856.61  20
  -1  -6  -1 31783.5 1835.07  15
  -1  -6  -2 34637.3 3122.73   6
  -1  -6  -2 39446.6 2196.28   9
  -1  -6  -2 35821.5 2048.52  15
  -1  -6  -2 38522.1 2025.97  20
  -1  -6  -3 18200.1 1395.45  20
  -1  -6  -4 1713.74 407.303  20
  -1  -6  -5 6550.27 735.364  20
  -1  -6  -6 4728.02 532.782  20
  -1  -6  -7 6960.34 468.965  20
   1   6   7 7295.77 489.640  11
  -1  -7  11 785.791 145.473  12
  -1  -7  10 2871.70 364.423  12
  -1  -7  10 2469.15 350.733  21
  -1  -7  10 3178.91 456.861  19
  -1  -7   9 4231.41 510.579  12
  -1  -7   9 4710.99 619.780  21
  -1  -7   9 5101.27 656.918  19
  -1  -7   8 18948.8 1402.45  21
  -1  -7   8 15081.1 1045.02  12
  -1  -7   8 17453.1 1299.68  19
  -1  -7   7 17563.8 1155.18  12
  -1  -7   7 18840.2 1359.21  19
  -1  -7   6 7988.20 859.431  19
  -1  -7   6 7904.68 775.555  12
  -1  -7   5 9888.94 865.781  12
  -1  -7   5 9465.11 873.007  19
  -1  -7   4 8075.49 972.704  21
  -1  -7   3 538.525 212.892  15
  -1  -7   3 751.748 306.770  21
  -1  -7   2 4574.77 663.096  15
  -1  -7   2 5025.90 719.561  21
  -1  -7   2 4285.52 616.196  20
  -1  -7   1 11545.4 1191.00   9
  -1  -7   1 8953.00 895.454  21
  -1  -7   1 9401.60 953.083  20
  -1  -7   1 9185.97 967.519  15
  -1  -7   0 12166.9 1145.11  15
  -1  -7   0 14478.1 1333.23   9
  -1  -7   0 12785.7 1158.16  20
  -1  -7  -1 15400.2 1381.31   9
  -1  -7  -1 14575.3 1237.11  20
  -1  -7  -1 13734.9 1248.06  15
  -1  -7  -2 23617.2 1674.89   9
  -1  -7  -2 22451.6 1511.47  20
  -1  -7  -3 15605.5 1198.54  20
  -1  -7  -4 1746.59 371.098  14
  -1  -7  -4 1866.65 384.547  20
  -1  -7  -5 559.087 164.492  14
  -1  -7  -5 831.589 213.547  20
  -1  -7  -6 2332.32 254.224  20
  -1  -8  10 6365.71 405.939  21
  -1  -8   9 8859.20 708.478  21
  -1  -8   8 5229.59 660.914  21
  -1  -8   7 6465.16 804.410  21
  -1  -8   6 10444.1 1076.12  21
  -1  -8   5 18676.6 1448.43  21
  -1  -8   4 13283.4 1198.73  21
  -1  -8   3 3537.51 545.102  15
  -1  -8   3 3058.16 504.257  14
  -1  -8   3 4106.39 643.924  21
  -1  -8   2 10453.7 1102.87   9
  -1  -8   2 8773.61 880.696  21
  -1  -8   2 8404.49 812.107  20
  -1  -8   2 8543.39 876.565  15
  -1  -8   1 11575.8 914.421  21
  -1  -8   1 13970.1 1092.66  20
  -1  -8   1 13269.2 1113.75  15
  -1  -8   0 10272.7 979.496  15
  -1  -8   0 10788.1 966.842  20
  -1  -8   0 12051.9 1156.61   9
  -1  -8  -1 2511.01 455.529  20
  -1  -8  -1 2273.37 479.873   9
  -1  -8  -2 928.246 267.068  14
  -1  -8  -2 1045.12 276.749  20
  -1  -8  -3 5689.91 581.054  14
  -1  -8  -3 5654.44 566.274  20
  -1  -8  -4 8108.11 521.528  14
  -1  -8  -4 10152.5 617.939  20
  -1  -9   8 3010.25 369.586  21
  -1  -9   7 4915.91 550.268  21
  -1  -9   7 2968.75 360.190   9
  -1  -9   6 9748.41 830.551  21
  -1  -9   6 8218.97 709.856   9
  -1  -9   5 3140.70 484.521  21
  -1  -9   5 3227.12 492.608   9
  -1  -9   4 10887.0 873.456  21
  -1  -9   4 11653.5 970.288   9
  -1  -9   3 14828.4 956.507  21
  -1  -9   3 17551.0 1204.15   9
  -1  -9   2 5877.84 588.515  14
  -1  -9   2 7491.31 783.934   9
  -1  -9   2 255.822 122.315  21
  -1  -9   1 7405.13 603.610  20
  -1  -9   1 8797.63 736.374  14
  -1  -9   0 10595.2 786.730  14
  -1  -9   0 9235.58 667.673  20
  -1  -9  -1 3947.94 433.823  14
  -1  -9  -1 3328.80 375.338  20
  -1  -9  -2 3952.94 360.671  14
  -1  -9  -2 3597.54 334.568  20
  -1 -10   4 1024.85 178.341   9
   2 -11   1 22.3028 47.5460   9
   2 -11   1 115.663 88.1607  15
   2 -11   2 1072.48 227.262   9
   2 -11   2 1296.78 261.422  15
   2 -11   3 2698.80 364.966  15
   2 -11   3 2484.15 353.011   9
   2 -11   4 1327.59 246.194  15
   2 -11   4 1464.32 278.089   9
   2 -11   5 123.573 74.4728  15
   2 -11   5 214.018 107.347   9
   2 -11   6 842.609 178.824   9
   2 -10  -3 1193.13 223.638  20
   2 -10  -2 6099.39 603.074  20
   2 -10  -1 8658.62 802.962  14
   2 -10  -1 9112.70 872.381  15
   2 -10  -1 7707.91 712.549   9
   2 -10  -1 8296.67 771.019  20
   2 -10   0 5666.85 678.912  14
   2 -10   0 5833.86 683.834  20
   2 -10   0 6284.73 760.063  15
   2 -10   0 5590.33 663.954   9
   2 -10   1 6116.94 702.608  14
   2 -10   1 7285.50 842.157  15
   2 -10   1 7089.48 788.029   9
   2 -10   1 6483.50 730.319  20
   2 -10   2 13445.8 872.372   7
   2 -10   2 20059.9 1408.23  15
   2 -10   3 16635.0 1006.83   7
   2 -10   3 12487.8 831.934  21
   2 -10   4 5942.82 614.805   7
   2 -10   4 5834.71 610.253  21
   2 -10   5 6659.43 682.443  21
   2 -10   5 5776.34 605.659   7
   2 -10   6 10951.3 859.394  21
   2 -10   7 5060.90 546.788  21
   2 -10   8 724.785 177.358  21
   2  -9  -5 9886.99 613.114  20
   2  -9  -4 13983.7 950.825  14
   2  -9  -4 13608.3 918.449  20
   2  -9  -3 14001.5 1102.36  14
   2  -9  -3 13622.3 1055.89  20
   2  -9  -2 11592.4 1102.01  14
   2  -9  -2 10078.7 961.192   9
   2  -9  -2 11260.5 1052.89  20
   2  -9  -2 11795.8 1155.98  15
   2  -9  -1 2982.94 587.244  14
   2  -9  -1 2589.67 519.472   9
   2  -9  -1 2791.74 582.563  15
   2  -9  -1 2280.46 402.672   7
   2  -9  -1 2804.71 558.507  20
   2  -9   0 38.7296 105.930   7
   2  -9   0 31.0467 106.832  15
   2  -9   0 39.9709 109.345   9
   2  -9   0 88.5352 111.600  20
   2  -9   0 18.3359 132.857  14
   2  -9   1 5457.37 835.485  15
   2  -9   1 4147.88 594.836   7
   2  -9   1 4868.53 742.573  20
   2  -9   1 4561.35 716.233  14
   2  -9   2 6564.79 821.637  14
   2  -9   2 6593.08 773.651   7
   2  -9   2 7093.21 880.992  20
   2  -9   2 4375.23 556.681  21
   2  -9   3 3323.52 558.890   7
   2  -9   3 3211.36 530.742  21
   2  -9   3 2926.08 502.332  14
   2  -9   4 828.709 297.052   7
   2  -9   5 1129.17 506.309  23
   2  -9   5 1972.48 451.045   7
   2  -9   6 7058.72 668.385  19
   2  -9   6 8491.25 904.618   7
   2  -9   6 7142.07 1294.41  23
   2  -9   7 7755.49 708.379  19
   2  -9   7 8326.51 1415.73  23
   2  -9   8 7574.65 667.198  19
   2  -9   9 14546.3 815.460  19
   2  -9   9 16020.1 955.246  21
   2  -9  10 6481.94 406.473  19
   2  -9  10 4655.62 348.160  21
   2  -8  -6 2354.83 324.975  20
   2  -8  -5 940.185 272.646  14
   2  -8  -5 926.161 246.780  20
   2  -8  -4 2042.32 449.159  14
   2  -8  -4 1330.90 299.277   7
   2  -8  -4 1865.78 411.539  20
   2  -8  -3 4252.72 576.628   7
   2  -8  -3 5227.71 830.371  15
   2  -8  -3 5135.54 762.097  14
   2  -8  -3 4604.03 681.949   9
   2  -8  -3 5089.90 713.953  20
   2  -8  -2 6969.79 918.844  14
   2  -8  -2 6802.78 878.441  20
   2  -8  -2 5686.07 703.014   7
   2  -8  -2 5837.94 786.902   9
   2  -8  -2 6708.34 951.562  15
   2  -8  -1 19916.6 1367.10   7
   2  -8  -1 22433.9 1698.57  15
   2  -8  -1 20885.5 1522.90   9
   2  -8  -1 22926.8 1682.44  14
   2  -8  -1 22427.0 1636.49  20
   2  -8   0 34607.8 2048.66  20
   2  -8   0 30625.2 3129.57   3
   2  -8   0 33931.9 1793.09   7
   2  -8   0 36877.1 2111.90  14
   2  -8   1 17939.2 2433.90   3
  -2   8  -1 15825.2 2626.70   4
   2  -8   1 19437.9 1356.79   7
   2  -8   1 20894.0 1568.78  20
   2  -8   1 20302.2 1532.89  14
  -2   8  -2 10791.7 2318.53   4
   2  -8   2 12623.4 2046.21   3
   2  -8   2 11681.8 1103.72  14
   2  -8   2 13419.5 1213.57  20
   2  -8   2 12635.6 1106.41   7
   2  -8   3 28691.7 1698.54  20
   2  -8   3 28173.9 1675.02   7
   2  -8   3 22873.7 1427.78  14
  -2   8  -3 24367.3 3585.31   4
   2  -8   3 24443.1 2874.20   3
   2  -8   4 33568.4 1854.25   7
   2  -8   4 28371.5 2687.96  23
   2  -8   4 34850.2 1890.39  17
   2  -8   5 11895.8 1099.63  17
   2  -8   5 10627.5 1080.00   7
   2  -8   5 11547.3 1867.52  23
   2  -8   5 9164.76 868.198  19
   2  -8   6 5259.50 784.627   7
   2  -8   6 5899.45 1377.66  23
   2  -8   6 5806.30 764.684  17
   2  -8   6 4859.42 680.320  19
   2  -8   7 5526.59 717.665  17
   2  -8   7 5083.48 758.142   7
   2  -8   7 5225.00 1324.83  23
   2  -8   7 5192.31 715.989  19
   2  -8   8 1894.29 392.838  17
   2  -8   8 2015.74 436.516  19
   2  -8   8 1866.66 772.897  23
   2  -8   9 1381.57 583.649  23
   2  -8   9 1636.23 362.187  19
   2  -8   9 1597.91 304.688  17
   2  -8  10 3038.64 398.166  19
   2  -8  11 96.2618 55.0836  19
   2  -7  -7-24.3609 39.5697   7
   2  -7  -6 14091.3 933.736   7
   2  -7  -6 15092.6 994.195  14
   2  -7  -6 16016.1 1030.06  20
   2  -7  -5 11185.2 923.970   7
   2  -7  -5 12812.6 1041.06  20
   2  -7  -5 13362.3 1111.54  14
   2  -7  -4 8047.00 876.055   9
   2  -7  -4 10524.6 1052.21  14
   2  -7  -4 8441.64 856.327   7
   2  -7  -4 9855.93 972.931  20
   2  -7  -4 10653.6 1168.89  15
   2  -7  -3 6236.23 831.273  14
   2  -7  -3 5259.77 685.549   7
   2  -7  -3 5270.16 719.231   9
   2  -7  -3 6034.67 783.863  20
   2  -7  -3 5899.73 865.933  15
   2  -7  -2 4348.85 714.471  15
   2  -7  -2 4704.66 734.220  14
   2  -7  -2 4649.62 699.230  20
   2  -7  -2 3880.12 584.203   7
   2  -7  -2 3854.31 614.574   9
   2  -7  -2 3680.27 1064.84  22
   2  -7  -1 12316.1 1032.50   7
   2  -7  -1 13138.7 1199.31  14
   2  -7  -1 13505.4 1190.45  20
   2  -7  -1 13139.8 1978.93  22
   2  -7  -1 13392.4 1994.32   3
   2  -7   0 1567.72 694.284  22
   2  -7   0 1439.38 382.873  14
   2  -7   0 1583.82 398.544  20
   2  -7   0 2143.28 804.749   3
   2  -7   1 55.2519 196.781  22
   2  -7   1 192.727 143.446  20
   2  -7   1 80.8432 125.868   3
   2  -7   2 929.508 519.318   3
   2  -7   2 664.281 453.772  22
   2  -7   2 636.464 234.069  17
  -2   7  -2 640.190 632.404   4
  -2   7  -3 2295.61 1042.11   4
   2  -7   3 1385.63 348.266  20
   2  -7   3 1680.04 374.527   7
   2  -7   3 1845.25 405.218  17
   2  -7   3 1809.54 747.887   3
   2  -7   4 9289.75 926.670   7
   2  -7   4 10119.0 952.090  17
  -2   7  -4 12987.4 2577.65   4
   2  -7   4 10917.2 1811.26   3
   2  -7   4 8092.46 1444.75  23
   2  -7   5 1608.40 395.020  17
   2  -7   5 1536.97 675.701  23
   2  -7   5 1622.91 409.831   7
   2  -7   5 1228.03 611.117   3
  -2   7  -6 5649.20 1760.23   4
   2  -7   6 10366.5 1026.61  17
   2  -7   6 9309.00 1031.69   7
   2  -7   6 7547.83 1517.37   3
   2  -7   6 10545.0 1921.46  23
   2  -7   7 18724.9 1374.95  17
   2  -7   7 17548.4 1458.53   7
   2  -7   7 19883.2 2667.73  23
   2  -7   8 12070.3 2042.46  23
   2  -7   8 10677.9 1022.14  17
   2  -7   9 11583.4 1829.04  23
   2  -7   9 10898.6 927.601  17
   2  -7   9 12280.7 1083.32  19
   2  -7  10 13043.0 846.120  17
   2  -7  10 14845.1 1018.25  19
   2  -7  11 9259.17 616.270  19
   2  -6  -8 1783.44 296.507   7
   2  -6  -7 2439.82 418.543   7
   2  -6  -6 3533.80 539.319   7
   2  -6  -6 3362.52 492.825  20
   2  -6  -5 1383.26 353.255  14
   2  -6  -5 1309.37 331.430   7
   2  -6  -5 1130.11 309.036  20
   2  -6  -4 9478.38 1042.09  15
   2  -6  -4 8856.97 908.287  14
   2  -6  -4 8151.59 824.661   7
   2  -6  -4 8528.43 845.433  20
   2  -6  -3 366.794 189.926  15
   2  -6  -3 422.450 160.226  14
   2  -6  -3 266.179 167.388  20
   2  -6  -2 3447.55 925.560   3
   2  -6  -1 30425.5 2735.81   3
   2  -6   0 141220. 5754.87   3
   2  -6   1 214835. 6956.94   3
   2  -6   2 145525. 5745.70   3
  -2   6  -3 57723.4 4604.86   4
   2  -6   3 42468.0 3105.00   3
  -2   6  -4 9668.16 1997.73   4
   2  -6   4 6419.78 1248.73   3
  -2   6  -5 2409.18 1015.54   4
   2  -6   5 3615.14 989.861   3
   2  -6   5 3481.47 555.588   7
   2  -6   6 3669.43 641.901   7
  -2   6  -6 3652.32 1375.36   4
   2  -6   6 4041.88 1153.82  23
   2  -6   7 4563.20 1229.22  23
   2  -6   7 4107.96 714.652   7
  -2   6  -7 2666.12 1170.70   4
   2  -6   8 2554.68 427.037  12
   2  -6   8 4182.16 1185.44  23
   2  -6   9 2757.68 899.992  23
   2  -6   9 1756.28 352.483  12
   2  -6  10 1748.41 363.306  17
   2  -6  10 1924.13 678.230  23
   2  -6  10 2077.76 409.388  19
   2  -6  10 1243.68 258.994  12
   2  -6  11 1156.78 243.399  19
   2  -6  11 766.340 182.447  17
   2  -5 -10-16.0498 29.6204   7
   2  -5  -9 11600.2 798.239   7
  -2   5   6 16853.2 2614.01   5
   2  -5  -5 15331.1 1263.67  15
  -2   5   5 15892.9 2375.38   5
  -2   5   4 6133.53 1326.99   5
  -2   5   3 4596.72 1025.28   5
  -2   5   2 9310.88 1292.26   5
   2  -5  -2 7241.51 1190.06   3
  -2   5   1 2430.16 587.070   5
   2  -5  -1 2376.01 655.144   3
  -2   5   0 11318.4 1053.06   5
   2  -5   0 14249.3 1561.81   3
   2  -5   1 26842.6 2098.70   3
   2  -5   2 4207.05 829.672   3
  -2   5  -3 7517.04 1453.98   4
  -2   5  -4 10047.5 1821.17   4
  -2   5  -5 11826.8 2078.81   4
  -2   5  -6 9577.03 2025.18   4
   2  -5   7 23693.1 1645.89   7
  -2   5  -7 20369.4 3056.21   4
   2  -5   7 24320.5 2671.92  23
   2  -5   7 28676.2 2942.48   2
   2  -5   8 38893.7 3446.91  23
   2  -5   9 36959.6 3201.00  23
   2  -5  10 25555.5 1392.98  19
   2  -5  10 21606.4 2146.96  23
   2  -5  11 4138.82 451.110  12
   2  -5  11 4861.96 477.980  19
   2  -4 -11 1858.71 216.898   7
  -2   4   9 1323.98 322.260   8
  -2   4   8 3155.71 513.887   8
  -2   4   7 5383.57 1553.80   5
  -2   4   6 21148.0 2821.46   5
  -2   4   5 3337.86 1056.94   5
  -2   4   4 1603.94 660.221   5
  -2   4   3 14409.1 1692.31   5
   2  -4  -2 110368. 3992.84   3
  -2   4   2 127064. 4288.82   5
  -2   4   1 142185. 3973.77   5
   2  -4  -1 142878. 4309.70   3
   2  -4   0 163851. 4367.47   3
  -2   4   0 137380. 3528.57   5
  -2   4  -1 157985. 3452.58   5
   2  -4   1 199831. 4801.12   3
  -2   4  -2 99173.2 2671.55   5
  -2   4  -3 110543. 4857.29   4
   2  -4   3 116434. 4138.63   2
   2  -4   4 9692.24 1323.63   2
  -2   4  -4 13141.6 1853.72   4
   2  -4   5 105.941 180.414   2
  -2   4  -5-334.464 350.896   4
   2  -4   6 4832.05 1135.42   2
  -2   4  -6 4141.97 1211.68   4
   2  -4   7 18668.6 2418.55   2
  -2   4  -7 13126.9 2283.30   4
   2  -4   7 12666.2 1748.97  23
  -2   4  -8 5425.50 1221.12  24
   2  -4   8 7755.80 1635.66   2
   2  -4   8 6181.14 1259.12  23
   2  -4   9 2597.50 756.069  23
   2  -4  11 3393.00 445.259   8
   2  -4  12-104.744 50.8318   8
   2  -4  12 401.191 112.118  12
  -2   3  11 10183.9 730.905   8
  -2   3  10 12691.0 1019.78   8
  -2   3   9 5370.99 602.540  11
  -2   3   9 6273.50 790.323   8
  -2   3   8 5700.55 1594.35   5
  -2   3   8 4526.96 560.566  11
  -2   3   8 6353.93 801.779   8
  -2   3   7 51455.9 4416.05   5
  -2   3   7 31847.0 1620.22   8
  -2   3   6 22620.2 2673.65   5
   2  -3  -6 15825.7 1870.48   1
   2  -3  -5 6318.71 1095.81   1
  -2   3   5 9747.83 1613.76   5
  -2   3   4 108456. 4680.29   5
  -2   3   3 22146.9 1860.37   5
   2  -3  -2 614.229 258.593   3
  -2   3   2 431.873 272.142   5
  -2   3   1 635.652 260.100   5
   2  -3  -1 852.813 285.953   3
  -2   3   0 240489. 4250.92   5
   2  -3   0 255200. 4444.14   3
  -2   3  -1 31351.9 1564.43   5
   2  -3   2 8181.01 936.306   2
  -2   3  -2 6697.53 732.700   5
   2  -3   3 2853.86 636.991   2
  -2   3  -3 3188.30 758.723   4
   2  -3   4 118854. 4581.45   2
  -2   3  -4 114546. 4849.62   4
   2  -3   5 44780.3 3146.52   2
  -2   3  -5 38080.6 3058.27   4
   2  -3   6 10196.5 1654.50   2
  -2   3  -6 14849.9 2075.00   4
  -2   3  -7 29393.5 3011.70   4
   2  -3   7 38292.0 3547.74   2
   2  -3   8 18428.2 2550.12   2
   2  -3   8 17665.6 1285.87  11
  -2   3  -8 17043.2 2255.29  24
   2  -3  11 15797.3 1037.66   8
   2  -3  12 5175.82 420.407   8
  -2   2  12 2472.40 322.013   8
  -2   2  11 3037.12 482.330   8
  -2   2  10 2222.16 483.995   8
  -2   2   9 12792.0 992.878  11
  -2   2   9 14608.7 1268.68   8
  -2   2   8 6412.54 1534.26   5
  -2   2   8 4396.21 562.596  11
  -2   2   8 5206.00 716.842   8
   2  -2  -7 10357.5 1569.17   1
  -2   2   7 17659.9 2379.91   5
   2  -2  -6 3250.93 824.220   1
   2  -2  -5 34172.0 2422.68   1
   2  -2  -4 72667.5 3085.29   1
  -2   2   3 86419.3 3246.83   5
   2  -2  -3 69784.3 2546.33   1
  -2   2   2 130031. 3391.39   5
   2  -2  -2 148472. 3161.29   3
  -2   2   1 97319.4 2592.40   5
   2  -2  -1 90861.9 2090.79   3
  -2   2   0 47957.8 1806.48   5
   2  -2   1 90792.0 2571.54   2
  -2   2  -1 101275. 2768.82   5
  -2   2  -3 101985. 3551.64   4
  -2   2  -4 70460.0 3312.93   4
  -2   2  -5 13611.1 1609.91   4
  -2   2  -6 4969.03 1033.65   4
   2  -2   7 1780.47 392.036  11
  -2   2  -7 1761.82 897.335   1
  -2   2  -7 1775.83 704.873  24
   2  -2   8 13874.6 2229.69   2
   2  -2   8 13144.9 1154.36  11
  -2   2  -8 14327.7 2169.27  24
  -2   2  -8 12219.0 2318.14   1
   2  -2   9 8785.42 950.554  11
   2  -2  10 384.735 219.108  11
   2  -2  12 6094.00 461.078   8
  -2   1  13 297.969 82.0684   8
  -2   1  12 158.952 98.6952   8
  -2   1  11 1227.21 314.526   8
  -2   1  10 7571.29 904.572   8
  -2   1   9 31378.3 3279.42   5
  -2   1   9 33969.5 1677.65  11
  -2   1   9 36383.6 1967.36   8
  -2   1   8 13782.2 1008.40  11
  -2   1   8 15141.4 1176.81   8
  -2   1   7 38685.3 3218.70   5
   2  -1  -7 25280.8 2443.74   1
   2  -1  -6 182912. 5930.82   1
   2  -1  -5 42111.9 3153.90   4
   2  -1  -5 33157.3 2224.85   1
  -2   1   4 394.476 220.967   5
   2  -1  -4 791.334 305.272   1
   2  -1  -4 774.769 398.254   4
   2  -1  -3 5815.55 945.446   4
  -2   1   3 5624.68 753.280   5
   2  -1  -3 4267.65 544.596   1
   2  -1  -2 198201. 2292.60   1
  -2   1   2 225255. 4013.63   5
  -2   1   1 531.734 189.784   5
   2  -1  -1 685.944 112.857   3
  -2   1   0 5617.36 616.466   5
  -2   1  -1 269267. 4643.42   5
  -2   1  -2 9804.28 740.424   4
  -2   1  -3 428.056 202.844   4
  -2   1  -4 18310.8 1462.24   6
  -2   1  -4 13498.0 1207.62   4
  -2   1  -5 211349. 7801.81   1
  -2   1  -6 52046.8 4210.98   1
  -2   1  -7 12211.6 2208.44   1
  -2   1  -7 13703.0 2044.75  24
   2  -1   8 32875.9 1845.20  11
  -2   1  -8 26475.5 3376.84   1
   2  -1   9 10139.0 1035.33  11
   2  -1  10 1977.70 408.167  11
   2  -1  11 869.600 265.111   8
   2  -1  12 127.163 72.1463   8
  -2   0  13 4033.76 353.155   8
  -2   0  13 2096.22 206.337  12
  -2   0  12 3251.81 462.590   8
  -2   0  11 939.177 320.226   8
  -2   0  10 9451.58 1006.09   8
  -2   0   9 14172.5 2060.31   5
  -2   0   9 16798.5 1303.23   8
  -2   0   8 2882.54 521.914   8
  -2   0   8 2760.44 475.948  11
   2   0  -8 2203.77 787.155   1
   2   0  -8 2881.03 1062.65   4
  -2   0   8 3121.73 914.321   5
   2   0  -7 17902.7 2561.23   4
  -2   0   7 15330.1 1896.74   5
  -2   0   6 12550.3 1551.63   5
   2   0  -6 11304.8 1856.85   4
  -2   0   5 79746.2 3417.76   5
   2   0  -5 81336.5 4527.49   4
  -2   0   4 113008. 3530.08   5
   2   0  -4 122452. 4997.24   4
  -2   0   3 117584. 3042.92   5
   2   0  -3 106265. 4144.17   4
  -2   0   2 107328. 2595.60   5
   2   0  -2 101305. 3478.31   4
  -2   0   1 56548.9 1864.72   5
   2   0  -1 60249.9 2161.31   4
  -2   0   0 79247.3 2216.48   1
  -2   0   0 83478.8 2393.27   5
  -2   0  -1 143973. 4004.12   1
  -2   0  -1 135262. 3829.89   6
  -2   0  -2 73051.7 3401.32   1
  -2   0  -2 71930.5 2871.90   6
  -2   0  -3 77657.9 3069.13   6
  -2   0  -3 81651.7 4123.56   1
  -2   0  -4 36111.3 3058.49   1
  -2   0  -4 28439.9 1869.57   6
  -2   0  -5 4876.81 1241.32   1
  -2   0  -5 3447.78 627.759   6
  -2   0  -6 13562.9 2234.55   1
  -2   0  -7 3613.37 1235.14   1
  -2   0  -7 4115.61 1156.80  24
   2   0   9 2454.46 514.010  11
   2   0  10 1987.14 397.565  11
   2   0  11 3895.92 450.749   8
  -2  -1  13 5708.50 395.372  12
  -2  -1  13 6474.29 454.439   8
  -2  -1  12 16729.4 1020.26   8
  -2  -1  11 15317.5 1166.43   8
  -2  -1  10 7303.18 859.280   8
   2   1  -9 12903.0 2439.58   4
  -2  -1   9 14287.7 1181.93   8
   2   1  -8 43552.8 4546.97   4
  -2  -1   8 38287.6 2980.88   5
  -2  -1   8 35733.9 1719.99   8
   2   1  -7 10029.7 2071.59   4
  -2  -1   7 11118.5 1481.02   5
   2   1  -6 27515.5 3078.88   4
  -2  -1   6 21237.3 1848.21   5
  -2  -1   5 79540.3 3109.62   5
   2   1  -5 88320.3 4970.21   4
  -2  -1   4 2365.68 460.320   5
  -2  -1   4 1847.23 254.993   6
   2   1  -4 2772.09 791.096   4
  -2  -1   3 2024.38 369.269   5
  -2  -1   3 1820.12 340.649   6
  -2  -1   3 1543.57 209.670   3
   2   1  -3 2168.83 613.162   4
   2   1  -2 25047.6 1799.48   4
  -2  -1   2 20405.2 829.247   3
  -2  -1   2 24559.8 1402.97   6
  -2  -1   2 23700.6 1163.92   5
  -2  -1   1 211663. 4498.58   6
   2   1  -1 190006. 4200.15   4
   2   1   0 2985.85 334.798   4
  -2  -1   0 4055.73 665.302   6
  -2  -1  -1 1334.46 443.283   1
  -2  -1  -1 1261.91 386.892   6
  -2  -1  -2 18848.3 1907.96   1
  -2  -1  -2 17877.7 1509.29   6
  -2  -1  -3 179242. 6499.27   1
  -2  -1  -3 130744. 4246.47   6
  -2  -1  -4 16689.7 2206.95   1
  -2  -1  -4 11992.0 1313.32   6
  -2  -1  -5 11446.9 1274.39   6
  -2  -1  -5 16217.0 2341.71   1
  -2  -1  -6 40029.5 3917.73   1
  -2  -1  -7 11555.2 2135.62   1
  -2  -1  -7 9550.40 886.411  20
   2   1   9 10486.5 959.058  11
   2   1  10 9269.89 753.298  11
   2   1  11 4807.92 339.620   8
  -2  -2  13 681.617 149.943  12
  -2  -2  13 509.912 116.409   8
  -2  -2  12 2794.57 433.983  12
  -2  -2  12 2600.28 389.830   8
  -2  -2  11 1791.45 391.076   8
  -2  -2  10 4716.66 572.603  19
  -2  -2  10 5866.26 732.636   8
  -2  -2   9 2932.43 470.052  19
   2   2  -9 3672.63 1418.84   4
  -2  -2   9 3465.95 561.898   8
  -2  -2   8 11354.9 895.456  19
  -2  -2   8 12304.5 981.086   8
   2   2  -7 6137.48 1689.53   4
   2   2  -6 1579.38 838.527   4
   2   2  -5 8530.55 1670.67   4
  -2  -2   5 9265.61 894.909   5
  -2  -2   4 81159.6 2333.79   6
  -2  -2   4 79497.1 2227.07   5
  -2  -2   3 99802.4 2406.14   3
  -2  -2   3 105857. 2224.80   5
  -2  -2   2 122392. 2796.78   3
   2   2  -2 123809. 4249.24   4
  -2  -2   2 112838. 2239.64   5
  -2  -2   1 137601. 3313.65   3
  -2  -2   1 136655. 4038.25   6
  -2  -2   0 121169. 4008.74   6
   2   2   0 80206.2 2271.84   4
  -2  -2  -1 98296.9 3696.95   6
  -2  -2  -2 11643.1 1353.07   6
  -2  -2  -3 902.485 534.061   1
  -2  -2  -3 437.068 330.266   6
  -2  -2  -4 1749.90 543.104   6
  -2  -2  -4 2340.48 862.153   1
  -2  -2  -5 14205.5 2273.25   1
  -2  -2  -5 12958.9 1054.38  20
  -2  -2  -5 12058.9 1457.52   6
  -2  -2  -6 6214.00 753.338  20
  -2  -2  -6 5333.90 1429.81   1
  -2  -2  -7 4263.78 607.921  20
  -2  -2  -8 2686.96 408.256  20
   2   2   9 5728.92 641.255  11
   2   2  10 2914.22 351.268  11
   2   2  10 1325.05 189.733   8
  -2  -3  13 353.789 109.967  12
  -2  -3  12 43.4798 86.6033   8
  -2  -3  12 7182.82 660.926  12
  -2  -3  11 23808.5 1207.41  19
  -2  -3  11 24151.8 1238.84   8
  -2  -3  10 36463.2 1715.26  19
  -2  -3  10 35740.3 1657.34   8
  -2  -3   9 28547.5 1479.58   8
  -2  -3   9 31557.5 1649.59  19
   2   3  -8 18074.7 3178.99   4
  -2  -3   8 15026.7 1118.92  19
   2   3  -7 6331.29 1805.30   4
   2   3  -6 6975.36 1759.28   4
   2   3  -5 10514.4 1909.67   4
  -2  -3   4 7015.15 859.869   6
  -2  -3   4 6412.58 758.410   3
   2   3  -4 8485.68 1531.17   4
  -2  -3   3 2395.75 466.412   3
  -2  -3   3 3007.10 636.783   6
   2   3  -3 3153.80 866.566   4
  -2  -3   2 17367.7 1307.21   3
   2   3  -2 20178.2 1906.54   4
  -2  -3   1 11852.8 1142.40   3
  -2  -3   1 14712.3 1556.33   6
   2   3  -1 10826.5 1220.86   4
  -2  -3   0 4437.62 876.662   6
  -2  -3  -1 15364.2 1687.41   6
  -2  -3  -2 3148.01 778.723   6
  -2  -3  -3 8969.58 1377.10   6
  -2  -3  -4 17757.3 1280.74  20
  -2  -3  -4 17723.4 1992.65   6
  -2  -3  -5 24015.8 1505.06  20
  -2  -3  -6 27116.8 1583.60  20
  -2  -3  -7 30663.4 1541.45  20
  -2  -3  -8 13448.3 833.842  20
   2   3   9 2975.51 391.488  11
  -2  -4  13 248.200 74.0046  12
  -2  -4  12 264.604 134.595  12
  -2  -4  11 1137.81 282.177  19
  -2  -4  11 1503.60 353.039  12
  -2  -4  10 2522.81 526.556  12
  -2  -4  10 1728.20 400.791  19
  -2  -4   9 4224.76 692.664  12
  -2  -4   9 3514.19 583.063  19
  -2  -4   8 3905.90 651.502  12
  -2  -4   8 3242.94 563.181  19
   2   4  -8 3561.53 1398.86   4
  -2  -4   7 4737.50 673.737  12
   2   4  -7 4868.92 1654.38   4
  -2  -4   7 4120.75 611.107  19
  -2  -4   6 2632.97 456.684  12
   2   4  -6 4071.74 1360.49   4
  -2  -4   6 3642.60 537.683  19
   2   4  -5 6795.75 1608.30   4
  -2  -4   4 41606.2 2439.72   6
   2   4  -4 36271.1 3421.11   4
  -2  -4   3 115747. 3810.09   3
   2   4  -3 117968. 5679.27   4
  -2  -4   3 124549. 4742.48   6
  -2  -4   2 130677. 4193.71   3
   2   4  -2 131170. 5404.93   4
  -2  -4   1 118237. 5017.51   6
  -2  -4   0 23481.2 2301.49   6
  -2  -4  -1 3379.38 928.931   6
  -2  -4  -2 1003.56 274.545  13
  -2  -4  -2 1090.33 324.749  20
  -2  -4  -2 1136.03 341.857   9
  -2  -4  -2 1162.38 575.159   6
  -2  -4  -3 8474.75 1480.17   6
  -2  -4  -3 8266.86 902.992  20
  -2  -4  -3 8184.07 814.550  13
  -2  -4  -4 4208.91 666.388  20
  -2  -4  -4 1969.09 731.307   6
  -2  -4  -5 5355.34 728.581  20
  -2  -4  -6 2479.01 466.422  20
  -2  -4  -7 1099.56 272.573  20
   2   4   8 542.035 186.828  11
  -2  -4  -8 312.252 111.540  20
  -2  -5  12 9744.25 600.691  12
  -2  -5  11 17140.5 1044.03  12
  -2  -5  10 12623.5 1045.59  19
  -2  -5  10 14416.7 1115.44  12
  -2  -5   9 11418.9 1060.52  12
  -2  -5   9 8406.08 800.584  21
  -2  -5   9 10837.4 1055.49  19
  -2  -5   8 14209.4 1203.34  12
  -2  -5   8 11396.8 1036.58  21
  -2  -5   8 13591.9 1206.35  19
  -2  -5   7 6151.23 764.136  12
  -2  -5   7 6028.58 785.367  21
  -2  -5   7 5821.42 769.399  19
   2   5  -7 6552.43 1832.32   4
  -2  -5   6 1640.30 383.886  12
  -2  -5   6 1711.26 425.468  21
  -2  -5   6 1649.92 384.071  19
   2   5  -6 990.803 711.019   4
  -2  -5   5 11947.9 970.990  12
  -2  -5   5 13614.9 1159.74  21
   2   5  -5 10207.4 2074.22   4
  -2  -5   5 11063.8 956.217  19
  -2  -5   4 2853.93 455.023  12
  -2  -5   4 3005.48 529.638  21
   2   5  -4 1627.14 804.887   4
  -2  -5   3 92.5502 113.876  12
  -2  -5   3 138.098 192.725   6
  -2  -5   3 312.572 185.114  21
  -2  -5   2 505.645 365.994   6
  -2  -5   2 648.236 241.325  21
  -2  -5   1 259.357 140.719  13
  -2  -5   1 399.814 354.919   6
  -2  -5   1 411.825 178.487  21
  -2  -5   0 6411.78 722.200  15
  -2  -5   0 7755.68 803.905  20
  -2  -5   0 8860.93 1589.02   6
  -2  -5   0 7463.36 776.095  21
  -2  -5   0 8348.43 904.531   9
  -2  -5   0 8340.71 844.969  13
  -2  -5  -1 2920.86 557.279   9
  -2  -5  -1 2661.86 500.305  15
  -2  -5  -1 2679.37 492.288  13
  -2  -5  -1 2341.27 425.984  21
  -2  -5  -1 2967.66 949.635   6
  -2  -5  -1 3121.15 554.323  20
  -2  -5  -2 8180.83 924.742  20
  -2  -5  -2 6602.60 1368.17   6
  -2  -5  -2 8315.52 989.983   9
  -2  -5  -3 14475.6 1246.58  20
  -2  -5  -4 12540.0 1124.75  20
  -2  -5  -5 16173.6 1179.46  20
  -2  -5  -6 16735.6 1032.12  20
  -2  -5  -7 6349.46 489.449  20
  -2  -6  11 2410.68 324.058  12
  -2  -6  10 2180.32 389.762  12
  -2  -6  10 1251.32 245.734  21
  -2  -6   9 314.926 181.862  12
  -2  -6   9 353.770 174.771  21
  -2  -6   9 568.566 243.768  19
  -2  -6   8 7134.28 799.732  12
  -2  -6   8 6956.15 849.185  19
  -2  -6   8 6102.90 771.818  21
  -2  -6   7 8232.05 873.607  12
  -2  -6   7 8375.68 969.856  21
  -2  -6   7 8141.24 932.342  19
  -2  -6   6 11760.7 1033.46  12
  -2  -6   6 14106.8 1302.43  21
  -2  -6   6 11481.6 1065.58  19
  -2  -6   5 31483.4 1636.18  12
  -2  -6   5 27563.6 1558.17  19
  -2  -6   4 28973.9 1556.89  12
  -2  -6   4 35330.3 2018.41  21
  -2  -6   3 15821.5 1325.32  21
  -2  -6   3 10472.9 1590.16   6
  -2  -6   2 11317.0 1725.74   6
  -2  -6   2 18200.8 1371.09  21
  -2  -6   1 22481.7 1387.50  15
  -2  -6   1 28345.8 1653.78  21
  -2  -6   1 19642.6 2374.57   6
  -2  -6   1 31773.1 1892.87   9
  -2  -6   1 27574.3 1549.42  20
  -2  -6   0 14196.6 1164.13  15
  -2  -6   0 16763.5 1272.86  20
  -2  -6   0 14281.4 1128.73  21
  -2  -6   0 18022.4 1439.67   9
  -2  -6  -1 2524.65 438.486  21
  -2  -6  -1 4006.21 701.933   9
  -2  -6  -1 3852.12 625.553  20
  -2  -6  -2 4083.82 641.279  20
  -2  -6  -3 3664.54 591.965  20
  -2  -6  -4 1427.08 336.917  20
  -2  -6  -5 2532.68 389.764  20
  -2  -6  -5 2079.94 319.008  14
  -2  -6  -6 1109.97 202.739  20
  -2  -7  10 12814.5 697.328  12
  -2  -7  10 7881.89 501.952  21
  -2  -7   9 8588.38 679.050  12
  -2  -7   9 8778.49 742.897  21
  -2  -7   8 9414.06 790.928  12
  -2  -7   8 10532.7 969.169  21
  -2  -7   7 6838.01 712.235  12
  -2  -7   7 8177.91 934.858  21
  -2  -7   6 1982.27 392.866  12
  -2  -7   6 2217.65 515.926  21
  -2  -7   5-49.0489 174.168  21
  -2  -7   4 8023.25 973.316  21
  -2  -7   3 8319.16 971.501  21
  -2  -7   3 7897.99 954.899   9
  -2  -7   2 1102.68 288.537  20
  -2  -7   2 1483.39 417.676   9
  -2  -7   2 1209.72 354.886  21
  -2  -7   1 626.129 236.482  15
  -2  -7   1 1015.90 358.404   9
  -2  -7   1 748.542 256.231  21
  -2  -7   1 699.117 238.040  20
  -2  -7   0 4166.41 700.399   9
  -2  -7   0 2891.09 454.696  21
  -2  -7   0 3730.35 578.694  20
  -2  -7  -1 13294.7 1190.95   9
  -2  -7  -1 11834.2 1014.25  20
  -2  -7  -2 10614.0 914.317  20
  -2  -7  -3 12824.7 908.819  20
  -2  -7  -4 12236.8 715.142  14
  -2  -7  -4 13758.9 799.273  20
  -2  -7  -5 4497.29 339.057  20
  -2  -8   9 704.602 159.855  21
  -2  -8   8 7079.25 648.446  21
  -2  -8   7 16589.3 1137.27  21
  -2  -8   6 12829.4 1070.74  21
  -2  -8   6 8404.73 737.541   9
  -2  -8   5 6267.22 701.387   9
  -2  -8   5 8092.61 874.615  21
  -2  -8   4 19173.0 1315.84  21
  -2  -8   4 17986.2 1230.75   9
  -2  -8   3 19060.5 1300.33   9
  -2  -8   3 19823.4 1283.33  21
  -2  -8   2 7064.96 799.509   9
  -2  -8   2 5792.37 641.353  21
  -2  -8   1 3572.89 451.974  20
  -2  -8   1 3201.80 414.526  21
  -2  -8   1 4695.87 641.442   9
  -2  -8   0 6634.99 614.393  20
  -2  -8  -1 5754.40 600.437  14
  -2  -8  -1 4969.70 507.919  20
  -2  -8  -2 888.708 205.372  14
  -2  -8  -2 871.854 190.922  20
  -2  -8  -3 39.1641 44.2127  14
  -2  -8  -3-8.80690 37.7977  20
  -2  -9   7 1815.00 243.880  21
  -2  -9   6 706.548 173.475  21
  -2  -9   5 609.227 167.582  21
  -2  -9   5 313.603 105.764   9
  -2  -9   4 1172.73 227.294   9
  -2  -9   4 981.584 209.764  21
  -2  -9   3 1606.77 234.966  21
  -2  -9   3 2535.54 345.474   9
  -2  -9   2-11.3457 23.5757  14
  -2  -9   1 779.602 154.025  14
  -2  -9   0 1790.03 210.596  14
   3 -11   0 12619.7 855.287  15
   3 -11   0 14.5075 46.7943   9
   3 -11   1 9756.69 789.663  15
   3 -11   1 7300.85 577.890   9
   3 -11   2 2449.66 403.373  15
   3 -11   2 1851.94 313.781   9
   3 -11   3 3334.93 471.587  15
   3 -11   3 2106.52 297.501   7
   3 -11   3 2755.36 405.903   9
   3 -11   4 6223.24 509.119   7
   3 -11   4 8457.53 718.666  15
   3 -11   5 6468.39 579.380  15
   3 -11   5 17.9460 23.7380  21
   3 -11   6 3252.19 356.084  15
   3 -11   6 2274.77 239.303  21
   3 -10  -3 150.453 112.260  20
   3 -10  -2 1774.28 392.074  15
   3 -10  -2 1886.56 377.123  20
   3 -10  -1 17361.2 1018.87   7
   3 -10  -1 23465.3 1501.81  15
   3 -10  -1 22870.1 1390.03  20
   3 -10  -1 17988.3 1092.09   9
   3 -10   0 30446.8 1477.14   7
   3 -10   0 31417.9 1578.39   9
   3 -10   0 34113.7 1788.09  20
   3 -10   1 3867.57 551.495   7
   3 -10   1 4572.20 717.131  15
   3 -10   2 3036.02 507.641   7
   3 -10   3 6240.62 738.118   7
   3 -10   3 3994.90 478.758  21
   3 -10   4 38526.5 1821.22   7
   3 -10   4 30219.5 1431.70  21
   3 -10   5 20929.7 1317.15   7
   3 -10   6 4967.03 615.021   7
   3 -10   7 134.902 66.0996  19
   3 -10   8 6205.00 530.586  21
   3 -10   8-20.1903 23.0269  19
   3  -9  -5-9.15030 40.5148   7
   3  -9  -5 2271.83 324.437  20
   3  -9  -4 7871.31 668.036   7
   3  -9  -4 9300.21 797.796  20
   3  -9  -3 40268.7 2090.00  15
   3  -9  -3 39602.1 1984.72  14
   3  -9  -3 37716.9 1840.87  20
   3  -9  -2 31236.9 1888.03  14
   3  -9  -2 32820.8 1987.31  15
   3  -9  -2 27839.1 1567.99   7
   3  -9  -2 30947.4 1809.22  20
   3  -9  -1 2872.17 603.480  15
   3  -9  -1 2915.78 604.999  14
   3  -9  -1 2513.74 492.625   9
   3  -9  -1 2637.24 511.025   7
   3  -9  -1 2992.66 587.529  20
   3  -9   0 4423.04 680.360   7
   3  -9   0 4489.82 769.857  15
   3  -9   0 4808.29 769.556  14
   3  -9   0 5108.55 787.540  20
   3  -9   1 12569.1 1155.16   7
   3  -9   1 12208.7 1210.59  14
   3  -9   1 12754.2 1254.45  20
   3  -9   2 5104.61 748.920   7
   3  -9   3 13271.5 1214.85   7
   3  -9   4 2807.01 568.870   7
   3  -9   4 1892.92 662.739  23
   3  -9   5 12705.3 1180.63   7
   3  -9   5 10794.3 1709.85  23
   3  -9   5 8323.11 736.830  19
   3  -9   6 35508.5 1792.21  17
   3  -9   6 33490.9 1882.75   7
   3  -9   6 30267.2 2888.62  23
   3  -9   7 20201.8 1264.82  17
   3  -9   7 20105.0 1413.95   7
   3  -9   7 21326.5 2352.93  23
   3  -9   7 17865.5 1123.38  19
   3  -9   8 2599.81 400.169  19
   3  -9   8 2708.19 777.170  23
   3  -9   8 2855.19 425.908  17
   3  -9   9 2948.72 366.583  19
   3  -9  10 747.026 133.310  19
   3  -8  -7 29.3964 43.2562   7
   3  -8  -6 1510.85 293.663   7
   3  -8  -6 1378.19 257.139  20
   3  -8  -5 1288.25 320.579   7
   3  -8  -5 1060.59 277.960  20
   3  -8  -4 19097.8 1507.76  15
   3  -8  -4 18482.8 1395.61  14
   3  -8  -4 16740.7 1241.36   7
   3  -8  -4 17143.0 1257.27  20
   3  -8  -3 56311.1 2668.96  15
   3  -8  -3 55659.0 2555.74  14
   3  -8  -3 51462.6 2280.08   7
   3  -8  -3 54896.2 2427.55  20
   3  -8  -2 34890.9 2106.70  15
   3  -8  -2 32674.2 1880.86   7
   3  -8  -2 33166.1 2039.99  14
   3  -8  -2 25449.6 1533.53   9
   3  -8  -2 31736.5 1929.46  20
   3  -8  -2 31182.3 3201.22  22
   3  -8  -1 11352.5 1861.05   3
   3  -8  -1 15938.4 1392.36  20
   3  -8  -1 15827.1 1431.98  15
   3  -8  -1 15746.3 1310.70   7
   3  -8  -1 15583.6 1397.81  14
   3  -8  -1 15226.9 2324.19  22
   3  -8   0 4957.20 737.269   7
   3  -8   0 4705.45 771.674  14
   3  -8   0 4178.99 1244.48  22
   3  -8   0 3865.22 1128.09   3
   3  -8   0 4596.90 759.022  20
   3  -8   1 50388.9 2445.62  14
   3  -8   1 53839.5 2409.52   7
   3  -8   1 51931.1 2527.31  20
  -3   8  -1 40412.9 4550.88   4
   3  -8   1 60984.3 4834.87  22
   3  -8   1 45050.2 3879.96   3
  -3   8  -2 32175.1 4188.94   4
   3  -8   2 33981.4 1927.35   7
   3  -8   2 29951.8 1784.79  14
   3  -8   2 32623.1 3304.80   3
   3  -8   2 34198.4 2005.64  20
   3  -8   2 37043.7 3691.18  22
   3  -8   3 10307.9 1024.97  17
   3  -8   3 7967.34 1437.76  23
   3  -8   3 10266.2 1070.41   7
   3  -8   3 10584.0 1866.66   3
   3  -8   4 25549.7 1633.95  17
   3  -8   4 24686.0 1676.26   7
   3  -8   4 21109.6 2653.34   3
   3  -8   4 21117.4 2549.61  23
   3  -8   5 45727.6 2300.78   7
   3  -8   5 48889.2 2307.29  17
   3  -8   5 45570.5 3931.39  23
   3  -8   6 42552.4 2242.83   7
   3  -8   6 44150.6 2178.92  17
   3  -8   6 46879.8 4080.45  23
   3  -8   7 8831.85 1008.12   7
   3  -8   7 9565.52 1814.89  23
   3  -8   7 9793.49 976.981  17
   3  -8   8 2335.50 458.734  17
   3  -8   8 1987.86 769.091  23
   3  -8   8 2392.64 496.206  19
   3  -8   9 960.149 474.748  23
   3  -8   9 788.560 228.332  17
   3  -8   9 1146.50 299.856  19
   3  -8  10 3422.10 359.936  17
   3  -8  10 4322.97 462.026  19
   3  -7  -8 1284.00 231.949   7
   3  -7  -7 1764.91 341.573   7
   3  -7  -6 23360.4 1402.42   7
   3  -7  -5 28805.5 1647.49  14
   3  -7  -5 28524.3 1644.59   7
   3  -7  -5 25946.5 1448.15  20
   3  -7  -4 1341.47 405.639  15
   3  -7  -4 1202.05 367.681  14
   3  -7  -4 1169.32 354.053   7
   3  -7  -4 963.655 453.996  22
   3  -7  -4 979.749 279.953  20
   3  -7  -3 2704.32 560.974  15
   3  -7  -3 2773.52 555.822  14
   3  -7  -3 2236.25 794.789  22
   3  -7  -3 2289.28 469.343  20
   3  -7  -3 2517.06 502.930   7
   3  -7  -2 8154.12 938.904  15
   3  -7  -2 9113.15 1000.56  14
   3  -7  -2 7967.35 888.993   7
   3  -7  -2 8618.10 1614.78  22
   3  -7  -2 7394.58 1447.32   3
   3  -7  -2 7627.04 882.523  20
   3  -7  -1 47968.2 3722.65   3
   3  -7  -1 45993.5 2229.45  14
   3  -7  -1 46130.9 2096.76   7
   3  -7  -1 47572.6 3836.50  22
   3  -7  -1 47310.9 2204.40  20
   3  -7   0 59530.5 4148.19   3
   3  -7   0 50716.5 2300.93  20
   3  -7   0 59151.2 4334.23  22
   3  -7   1 3709.07 1022.16   3
   3  -7   2 51682.0 3799.79   3
   3  -7   3 31335.6 1639.80  17
   3  -7   3 31799.7 1713.11   7
   3  -7   4 4098.97 1013.95  22
   3  -7   4 6109.47 752.958  17
  -3   7  -4 8527.51 2080.76   4
   3  -7   4 5783.98 765.890   7
   3  -7   4 7308.50 1474.30   3
   3  -7   5 420.869 199.490  17
   3  -7   5 530.637 248.547   7
   3  -7   5 583.368 435.459   3
  -3   7  -6-637.734 582.860   4
   3  -7   6 1288.08 392.827  17
   3  -7   6 749.715 318.781   7
   3  -7   6 1599.04 798.789  23
   3  -7   6 1273.05 638.763   3
   3  -7   7 25800.2 3064.71  23
   3  -7   7 22540.9 1658.03   7
   3  -7   7 22172.6 1558.65  17
   3  -7   8 21125.4 1461.56  17
   3  -7   8 23011.4 2747.67  23
   3  -7   9 1483.78 365.302  17
   3  -7   9 1213.72 577.504  23
   3  -7  10 4304.01 500.200  17
   3  -7  10 3991.47 828.759  23
   3  -7  10 4476.13 528.676  19
   3  -7  11 2535.84 250.921  17
   3  -7  11 4995.30 387.858  19
   3  -6 -10-21.3150 21.5728   7
   3  -6  -9 1229.24 249.410   7
   3  -6  -8 2012.63 389.175   7
   3  -6  -7 16424.4 1208.46   7
   3  -6  -6 27440.7 1633.29   7
  -3   6   5 14134.5 2228.43   5
   3  -6  -5 14290.0 1227.93  15
   3  -6  -5 14957.5 1133.23  14
   3  -6  -5 16331.2 1266.62   7
   3  -6  -5 13143.4 985.041  20
  -3   6   4 14535.4 2110.06   5
   3  -6  -4 11348.0 1061.77  15
   3  -6  -4 11812.6 1035.32  14
   3  -6  -4 12340.5 1069.27   7
   3  -6  -4 10257.8 897.741  20
  -3   6   3 8861.44 1522.96   5
  -3   6   2 19738.8 2112.55   5
   3  -6  -2 26567.8 2514.15   3
   3  -6  -1 88549.4 4540.19   3
   3  -6   0 27624.6 2497.47   3
   3  -6   1 3965.64 931.913   3
   3  -6   2 82447.5 4253.97   3
   3  -6   3 59224.0 3707.24   3
  -3   6  -3 72889.5 5169.53   4
  -3   6  -4 9924.94 2006.14   4
   3  -6   5 19151.5 1323.23   7
  -3   6  -5 17190.8 2698.50   4
   3  -6   6 19698.6 1444.13   7
  -3   6  -6 12977.1 2363.87   4
   3  -6   7 19914.9 1537.31   7
   3  -6   7 23035.7 2798.80  23
   3  -6   8 31177.1 3153.87  23
   3  -6   9 3727.80 996.424  23
   3  -6  10 1708.32 540.178  23
   3  -6  10 2600.87 427.661  19
   3  -6  11 762.019 183.046  17
   3  -6  11 1106.00 200.439  19
   3  -5 -10 354.809 137.788   7
  -3   5   6 1600.58 760.191   5
  -3   5   5 40438.0 3650.28   5
  -3   5   4 84365.4 4856.46   5
   3  -5  -3 58548.7 3320.97   3
  -3   5   3 57455.8 3695.59   5
  -3   5   2 21539.1 2026.29   5
   3  -5  -2 28077.7 2251.61   3
   3  -5  -1 4397.46 878.004   3
  -3   5   1 7554.83 1115.29   5
   3  -5   0 112420. 4316.02   3
  -3   5   0 109231. 3857.68   5
   3  -5   1 88602.7 3783.68   3
  -3   5  -1 65370.3 2823.13   5
  -3   5  -2 563.120 239.902   5
  -3   5  -3 38015.0 3232.13   4
  -3   5  -4 64034.3 4515.37   4
  -3   5  -5 78423.0 5163.20   4
   3  -5   5 84183.5 4724.67   2
   3  -5   6 18963.1 2418.26   2
  -3   5  -6 18880.5 2631.77   4
   3  -5   6 15173.2 1212.13   7
   3  -5   7 2646.29 930.415   2
  -3   5  -7 763.354 459.084  24
   3  -5   8 24311.1 2633.48  23
  -3   5  -8 17471.3 2161.74  24
   3  -5   9 16882.1 2003.15  23
  -3   5  -9 13666.5 1827.29  24
   3  -5  10 1134.98 416.969  23
   3  -5  11 150.145 81.2641  19
  -3   4  10 13449.5 901.006   8
  -3   4   9 5865.72 706.954   8
  -3   4   8 7414.37 812.581   8
  -3   4   7 19993.7 2740.84   5
  -3   4   7 13563.8 1069.51   8
  -3   4   6 12987.6 2092.07   5
  -3   4   5 36914.2 3212.67   5
  -3   4   4 43730.3 3171.12   5
   3  -4  -3 12331.4 1315.51   3
  -3   4   3 17138.0 1793.94   5
  -3   4   2 2770.33 666.408   5
   3  -4  -2 2409.33 575.124   3
  -3   4   1 16201.7 1462.53   5
   3  -4  -1 20749.9 1580.49   3
   3  -4   0 62679.6 2702.13   3
  -3   4   0 57849.3 2632.66   5
  -3   4  -1 28960.3 1860.91   5
  -3   4  -2 2461.22 564.394   5
   3  -4   2 4797.77 833.236   2
  -3   4  -3 22240.5 2180.58   4
   3  -4   3 22847.4 1985.47   2
   3  -4   4 49481.9 3267.23   2
  -3   4  -4 41450.4 3159.39   4
   3  -4   5 41898.2 3307.62   2
  -3   4  -5 34724.9 3049.36   4
   3  -4   6 14568.4 2125.46   2
  -3   4  -6 9790.84 1664.28   4
   3  -4   7 10459.9 846.232  11
  -3   4  -7 9636.73 1696.25  24
  -3   4  -8 11118.7 1869.92  24
   3  -4   8 12517.5 1739.58  23
  -3   4  -9 6300.60 1376.31  24
   3  -4  11 15392.3 852.150   8
  -3   3  12 1392.39 189.446   8
  -3   3  11 8215.76 703.777   8
  -3   3  10 8905.72 880.774   8
  -3   3   9 159.595 165.010   8
  -3   3   8 2624.70 965.612   5
  -3   3   8 2798.85 533.940   8
  -3   3   7 30038.5 3158.38   5
  -3   3   7 20013.2 1280.08   8
  -3   3   6 33783.9 3117.43   5
  -3   3   5 19259.2 2118.14   5
  -3   3   4 53475.5 3188.47   5
  -3   3   3 135987. 4524.92   5
  -3   3   2 266935. 5822.94   5
   3  -3  -2 278706. 4931.34   3
  -3   3   1 109839. 3530.57   5
   3  -3  -1 122005. 3056.81   3
  -3   3   0 55296.3 2493.97   5
   3  -3   1 260160. 5151.22   2
  -3   3  -1 270903. 5559.63   5
  -3   3  -2 221262. 5333.41   5
   3  -3   2 236539. 5561.46   2
  -3   3  -3 124148. 4444.94   4
   3  -3   3 115321. 4368.10   2
  -3   3  -4 23870.5 2059.53   4
   3  -3   4 22758.3 2216.58   2
  -3   3  -5 13931.2 1669.94   4
   3  -3   5 29209.0 2735.21   2
   3  -3   6 38046.8 3468.02   2
   3  -3   7 3033.46 498.673  11
  -3   3  -7 6074.70 1409.45  24
   3  -3   7 4620.31 1336.29   2
  -3   3  -7 4363.53 1353.48   1
   3  -3   8 4235.29 608.436  11
  -3   3  -8 5193.09 1357.55  24
   3  -3   9 5115.46 675.441  11
  -3   2  12 2589.20 352.434   8
  -3   2  11 440.930 201.854   8
  -3   2  10 816.449 301.852   8
  -3   2   9 14387.0 1212.57   8
  -3   2   8 14927.9 2237.72   5
  -3   2   8 12963.3 1097.24   8
  -3   2   7 16271.8 2181.20   5
  -3   2   6 98437.3 4911.49   5
   3  -2  -5 38704.1 2047.79   1
  -3   2   5 61029.2 3504.07   5
  -3   2   4 62036.4 3131.19   5
  -3   2   3 27590.7 1882.83   5
   3  -2  -2 1088.08 225.437   3
  -3   2   2 737.452 286.458   5
   3  -2  -1 10231.0 667.976   3
  -3   2   1 9240.56 982.375   5
   3  -2   0 5800.50 613.450   2
  -3   2   0 7455.57 898.444   5
  -3   2  -1 756.110 318.129   5
   3  -2   1 69.9078 108.655   2
  -3   2  -2 38690.6 1842.28   4
  -3   2  -2 44599.1 2454.57   5
  -3   2  -3 53865.5 2309.76   4
  -3   2  -6 11432.6 2083.13   1
   3  -2   7 15308.2 1166.42  11
  -3   2  -7 21597.2 2718.37  24
  -3   2  -7 19485.8 2852.98   1
  -3   2  -8 11391.3 2014.49  24
   3  -2   8 8222.81 893.900  11
   3  -2   9 1522.78 386.199  11
  -3   1  13 4148.27 325.837   8
  -3   1  12 573.087 195.340   8
  -3   1  11 838.350 286.640   8
  -3   1  10 2487.93 515.298   8
  -3   1   9 11442.1 1853.96   5
  -3   1   9 15225.2 1233.02   8
  -3   1   8 8293.03 1548.72   5
  -3   1   8 8201.59 858.727   8
  -3   1   7 45884.9 3392.80   5
  -3   1   6 114924. 4887.96   5
  -3   1   5 54181.9 3033.94   5
  -3   1   4 71003.5 3116.85   5
   3  -1  -4 65908.5 3808.28   4
  -3   1   3 10014.0 1064.68   5
  -3   1   2 3563.49 604.860   5
   3  -1  -1 14590.6 610.895   2
  -3   1   1 19019.2 1363.09   5
  -3   1   0 742.215 211.802   1
  -3   1   0 916.929 321.559   5
  -3   1  -1 4193.82 732.346   5
  -3   1  -1 3855.87 681.514   1
  -3   1  -2 61111.2 3231.61   1
  -3   1  -3 61833.9 3273.09   6
  -3   1  -3 65879.4 3834.54   1
  -3   1  -4 68216.7 3427.35   6
  -3   1  -4 68918.6 4398.77   1
  -3   1  -5 62694.8 4583.25   1
  -3   1  -5 43496.7 2556.86   6
  -3   1  -6 6801.96 1442.44  24
  -3   1  -6 6792.64 1648.10   1
  -3   1  -7 21701.9 3001.82   1
  -3   1  -7 28156.2 3119.18  24
   3  -1   8 4876.31 708.910  11
   3  -1   9 4752.47 644.970  11
   3  -1  10 377.939 191.417  11
   3  -1  11 2235.61 309.304   8
  -3   0  13 1248.93 195.885   8
  -3   0  12 7547.04 678.613   8
  -3   0  11 16885.6 1206.92   8
  -3   0  10 31.0675 135.707   8
  -3   0   9 1741.92 671.363   5
  -3   0   9 3352.27 581.542   8
  -3   0   8 18867.4 2172.39   5
  -3   0   8 19351.5 1282.21   8
  -3   0   7 19332.2 2049.54   5
   3   0  -7 30099.9 3511.99   4
  -3   0   6 11931.1 1487.50   5
   3   0  -6 18833.2 2544.03   4
  -3   0   5 49718.6 2737.53   5
   3   0  -5 47235.2 3697.46   4
  -3   0   4 126889. 3923.46   5
   3   0  -4 120893. 5292.67   4
  -3   0   3 279335. 5398.69   5
   3   0  -3 264072. 7052.02   4
  -3   0   3 266421. 5508.71   6
  -3   0   2 134098. 4171.52   6
  -3   0   2 133503. 3577.16   5
  -3   0   1 44241.7 2525.98   6
  -3   0   1 48591.6 2233.88   5
  -3   0   0 240190. 6085.02   6
  -3   0   0 248371. 5265.97   5
  -3   0  -1 205903. 5351.55   1
  -3   0  -1 225715. 6038.00   6
  -3   0  -2 119152. 4507.60   6
  -3   0  -2 107803. 4649.68   1
  -3   0  -3 23909.2 2478.11   1
  -3   0  -3 23137.1 2019.60   6
  -3   0  -4 32227.4 3126.82   1
  -3   0  -4 23186.4 2010.76   6
  -3   0  -5 25892.0 2030.77   6
  -3   0  -5 32976.8 3439.64   1
  -3   0  -6 9421.04 1670.80  24
  -3   0  -6 11388.1 2082.37   1
  -3   0  -8 1640.15 349.102  20
   3   0   8 2336.70 486.914  11
   3   0   9 12889.2 1017.81  11
   3   0  10 9311.34 691.778  11
  -3  -1  13 6759.30 441.131   8
  -3  -1  13 5408.32 341.108  12
  -3  -1  12 14652.2 915.535   8
  -3  -1  12 14271.5 846.407  12
  -3  -1  11 8379.31 826.591   8
  -3  -1  10 6348.99 772.344   8
   3   1  -9 26257.7 3629.58   4
  -3  -1   9 20921.2 1403.55   8
  -3  -1   8 8217.74 764.317  19
  -3  -1   8 9874.39 907.261   8
  -3  -1   7 20470.1 1950.33   5
   3   1  -7 25073.6 3328.84   4
  -3  -1   6 41675.7 2541.33   5
   3   1  -6 46430.3 4143.66   4
   3   1  -5 30231.3 3035.80   4
  -3  -1   5 27822.5 1876.44   5
  -3  -1   4 2853.05 490.310   6
  -3  -1   4 2977.84 562.842   5
   3   1  -3 4401.32 952.236   4
  -3  -1   3 6237.61 840.099   6
  -3  -1   3 5843.45 742.066   5
  -3  -1   2 41848.5 1968.34   5
   3   1  -2 38088.5 2405.23   4
   3   1  -1 39240.8 1860.78   4
  -3  -1   1 41200.1 2492.12   6
  -3  -1   1 39697.2 1962.09   5
  -3  -1   0 7722.96 1130.23   6
  -3  -1  -1 10409.1 1329.80   6
  -3  -1  -2 30596.9 2620.44   1
  -3  -1  -2 32617.9 2428.14   6
  -3  -1  -3 50628.0 3764.72   1
  -3  -1  -3 45733.0 2935.27   6
  -3  -1  -4 25471.1 2881.79   1
  -3  -1  -4 25961.2 2222.46   6
  -3  -1  -5 7708.53 1661.77   1
  -3  -1  -5 5745.26 1153.80  24
  -3  -1  -6 13874.1 2279.23   1
  -3  -1  -7 2572.56 487.953  20
  -3  -1  -8 9175.49 777.081  20
   3   1   9 15350.2 1001.08  11
   3   1  10 8133.23 539.892  11
   3   1  10 6481.39 436.638   8
  -3  -2  13 587.433 121.828  12
  -3  -2  12 256.139 137.994  12
  -3  -2  12 124.201 101.334   8
  -3  -2  11 4681.16 630.248  12
  -3  -2  11 4085.34 542.642   8
  -3  -2  10 20516.3 1316.61   8
  -3  -2  10 18790.9 1180.35  19
  -3  -2   9 5632.46 689.214  19
  -3  -2   9 6303.38 737.346   8
  -3  -2   8 541.689 220.495   8
   3   2  -8 174.039 275.323   4
  -3  -2   8 512.264 215.544  19
   3   2  -7 52204.0 4971.64   4
   3   2  -6 69707.8 5296.74   4
   3   2  -5 48393.7 4032.25   4
   3   2  -4 7799.34 1492.55   4
  -3  -2   4 10002.9 1048.85   6
   3   2  -3 21585.0 2202.25   4
  -3  -2   3 16684.2 1495.06   6
   3   2  -2 105190. 4326.56   4
  -3  -2   2 124410. 4347.54   6
  -3  -2   1 43968.9 2744.74   6
  -3  -2   0 4670.29 915.566   6
  -3  -2  -1 36335.3 2651.48   6
  -3  -2  -2 57581.8 3443.69   6
  -3  -2  -3 68272.4 3891.84   6
  -3  -2  -4 6940.28 1241.77   6
  -3  -2  -4 5314.40 591.871  13
  -3  -2  -5 7433.60 879.707  20
  -3  -2  -6 26745.0 1611.43  20
  -3  -2  -7 15942.0 1128.88  20
  -3  -2  -8 1042.35 243.055  20
   3   2   9 2474.79 344.987  11
  -3  -3  13 354.184 86.3143  12
  -3  -3  12 2201.74 330.772  12
  -3  -3  11 848.695 269.418  12
  -3  -3  11 325.315 129.402   8
  -3  -3  10 6965.02 668.714   8
  -3  -3  10 7938.33 817.012  19
  -3  -3   9 39403.1 2019.49  12
  -3  -3   9 32476.7 1745.96  19
   3   3  -8 20176.5 3256.35   4
  -3  -3   8 20071.8 1409.11  12
  -3  -3   8 17763.6 1290.55  19
  -3  -3   7 18875.4 1296.06  12
  -3  -3   7 16410.6 1195.99  19
  -3  -3   6 6987.23 724.591  12
  -3  -3   6 6115.42 699.316  19
   3   3  -5 17103.8 2528.48   4
   3   3  -4 61707.0 4389.70   4
  -3  -3   4 65218.0 3068.42   6
  -3  -3   3 18827.1 1798.78   6
   3   3  -3 18926.9 2185.94   4
  -3  -3   2 2467.55 683.929   6
  -3  -3   1 54091.5 3365.07   6
  -3  -3   0 57455.5 3617.31   6
  -3  -3  -1 14957.6 1884.79   6
  -3  -3  -2 10209.9 881.136  13
  -3  -3  -2 10773.9 1650.35   6
  -3  -3  -2 10282.3 968.481  20
  -3  -3  -3 13080.0 1018.11  13
  -3  -3  -3 14646.4 1217.18  20
  -3  -3  -3 10684.0 944.325  21
  -3  -3  -3 13828.3 1862.00   6
  -3  -3  -4 12576.8 1752.84   6
  -3  -3  -4 15284.3 1095.89  13
  -3  -3  -4 16092.6 1315.92  20
  -3  -3  -5 32505.7 1814.55  20
  -3  -3  -6 10752.6 962.651  20
  -3  -3  -7 1925.85 342.654  20
   3   3   8 1426.04 283.200  11
  -3  -3  -8 554.074 140.540  20
   3   3   9 525.985 109.403  11
  -3  -4  12 3398.70 366.385  12
  -3  -4  11 2330.78 411.857  12
  -3  -4  10 11035.3 983.688  12
  -3  -4   9 41418.1 2023.60  12
  -3  -4   9 35862.5 1892.38  19
  -3  -4   8 13551.4 1178.26  12
  -3  -4   8 9642.93 869.112  21
  -3  -4   8 12440.0 1133.71  19
  -3  -4   7 86.0483 104.363  12
  -3  -4   7-39.3570 108.582  21
   3   4  -7 174.941 311.311   4
  -3  -4   7 25.9433 88.5870  19
  -3  -4   6 2197.12 436.913  12
  -3  -4   6 2253.29 448.090  21
  -3  -4   6 2093.88 443.523  19
  -3  -4   5 17660.4 1169.54  12
   3   4  -5 14730.2 2394.75   4
  -3  -4   5 16617.7 1219.37  21
  -3  -4   5 15554.1 1143.10  19
  -3  -4   4 44110.0 1762.10  12
  -3  -4   4 44835.7 1988.47  21
  -3  -4   3 14004.5 1750.96   6
  -3  -4   2 19746.5 2185.86   6
  -3  -4   1 42814.8 1830.47  13
  -3  -4   1 48609.7 2054.94  21
  -3  -4   0 18613.0 1244.07  13
  -3  -4   0 15554.3 1126.47  20
  -3  -4   0 15499.3 1183.58   9
  -3  -4   0 16352.8 1205.38  21
  -3  -4  -1 2433.11 475.259  20
  -3  -4  -1 2185.51 439.067  13
  -3  -4  -1 2343.57 498.940   9
  -3  -4  -1 2298.41 822.371   6
  -3  -4  -1 2044.77 426.144  21
  -3  -4  -2 1635.65 392.118  13
  -3  -4  -2 1335.89 344.701  21
  -3  -4  -2 1321.57 637.293   6
  -3  -4  -2 1689.04 409.775  20
  -3  -4  -3 3093.69 584.035  20
  -3  -4  -3 2863.21 506.016  13
  -3  -4  -4 31264.3 1771.46  20
  -3  -4  -5 7833.06 843.804  20
  -3  -4  -6 816.707 228.088  20
  -3  -4  -7 4707.26 429.496  20
   3   4   8 3477.44 277.737  11
  -3  -5  12 3439.19 300.296  12
  -3  -5  11 5985.03 549.594  12
  -3  -5  10 1194.88 307.080  12
  -3  -5   9 669.583 257.408  12
  -3  -5   9 640.600 209.049  21
  -3  -5   8 26478.2 1590.13  12
  -3  -5   8 20967.3 1364.30  21
  -3  -5   8 24786.7 1626.43  19
  -3  -5   7 56281.2 2339.03  12
  -3  -5   7 51814.5 2307.61  21
  -3  -5   7 52833.7 2382.13  19
  -3  -5   6 26506.1 1570.63  12
  -3  -5   6 25942.4 1687.06  21
  -3  -5   5 12675.7 1063.21  12
  -3  -5   5 12976.3 1203.36  21
  -3  -5   4 3195.90 527.467  12
  -3  -5   4 3474.56 621.331  21
  -3  -5   3 44872.9 1874.26  13
  -3  -5   3 40947.7 3150.14   6
  -3  -5   3 44463.6 1977.95   9
  -3  -5   2 21201.8 1358.80  13
  -3  -5   2 21936.2 1432.55   9
  -3  -5   2 18583.8 2253.68   6
  -3  -5   2 24919.1 1626.13  21
  -3  -5   1 10742.7 1036.42   9
  -3  -5   1 11331.7 1025.69  13
  -3  -5   1 11662.1 1096.95  21
  -3  -5   1 10737.0 1788.57   6
  -3  -5   1 9022.09 856.705  20
  -3  -5   0 25147.0 1654.01   9
  -3  -5   0 28092.6 1661.03  13
  -3  -5   0 21708.0 2593.05   6
  -3  -5   0 24441.8 1524.83  21
  -3  -5   0 23643.9 1467.72  20
  -3  -5  -1 46748.9 2161.36  13
  -3  -5  -1 42389.5 2213.16   9
  -3  -5  -1 44196.6 2079.14  20
  -3  -5  -2 43322.3 2088.02  20
  -3  -5  -2 32181.1 1580.64  21
  -3  -5  -3 7454.60 845.605  20
  -3  -5  -4 2060.33 404.182  20
  -3  -5  -5 1422.01 305.841  20
  -3  -5  -6 3968.63 388.941  20
  -3  -6  11 1826.13 233.725  12
  -3  -6  10 5248.84 519.201  12
  -3  -6   9 9755.84 806.420  12
  -3  -6   9 8054.74 690.281  21
  -3  -6   8 33759.3 1628.29  12
  -3  -6   8 31677.6 1635.39  21
  -3  -6   7 33111.2 1675.26  12
  -3  -6   7 33286.0 1860.05  21
  -3  -6   6 4888.62 654.444  12
  -3  -6   6 5079.10 755.881  21
  -3  -6   5 5458.28 811.908  21
  -3  -6   5 3605.84 537.476   9
  -3  -6   4 17592.9 1458.12  21
  -3  -6   4 12740.9 1069.89   9
  -3  -6   3 4705.11 737.035  21
  -3  -6   3 4107.76 627.421   9
  -3  -6   2 8507.87 933.596   9
  -3  -6   2 10003.7 1052.93  21
  -3  -6   1 1648.90 413.897   9
  -3  -6   1 1350.55 338.051  20
  -3  -6   1 1396.12 367.100  21
  -3  -6   0 6498.48 845.484   9
  -3  -6   0 5890.50 719.983  21
  -3  -6   0 5851.58 713.556  20
  -3  -6  -1 26542.0 1509.42  20
  -3  -6  -1 21279.8 1235.65  21
  -3  -6  -2 21712.5 1319.15  20
  -3  -6  -3 1918.21 360.952  20
  -3  -6  -4 1105.22 236.930  20
  -3  -6  -5 2047.62 249.443  20
  -3  -7   9 1983.53 279.419  21
  -3  -7   8 1516.81 317.737  21
  -3  -7   7 6756.38 757.690  21
  -3  -7   6 37670.9 1903.75  21
  -3  -7   5 16140.8 1023.23   9
  -3  -7   5 25396.6 1610.45  21
  -3  -7   4 560.006 206.962   9
  -3  -7   4 363.546 201.801  21
  -3  -7   3 3687.22 557.043   9
  -3  -7   3 4403.84 651.509  21
  -3  -7   2 24080.8 1416.98  21
  -3  -7   2 23267.0 1420.56   9
  -3  -7   1 35780.3 1598.67  21
  -3  -7   1 32089.2 1350.82  20
  -3  -7   0 9780.75 734.549  21
  -3  -7   0 11202.1 809.827  20
  -3  -7  -1 1585.03 293.199  20
  -3  -7  -2 1119.63 226.997  20
  -3  -7  -3 7378.73 484.669  14
  -3  -7  -3 7690.91 492.906  20
  -3  -8   8 2892.02 285.192  21
  -3  -8   7 6386.38 542.983  21
  -3  -8   6 10909.2 782.517  21
  -3  -8   5 7853.99 687.335  21
  -3  -8   4 995.785 245.243  21
  -3  -8   3 3725.68 449.823  21
  -3  -8   2 6720.32 533.113  14
  -3  -8   2 7549.07 567.185  21
  -3  -8   1 6009.42 508.667  14
  -3  -8   0 2762.67 322.503  14
  -3  -8  -1 1693.43 205.887  14
   4 -11  -2-12.7386 18.7060   7
   4 -11  -1 1529.25 229.685   7
   4 -11  -1 2198.70 345.034  15
   4 -11   0 2387.59 333.190   7
   4 -11   0 2955.11 436.713  15
   4 -11   1 6614.20 592.553   7
   4 -11   1 7804.60 742.839  15
   4 -11   2 5831.47 578.545   7
   4 -11   2 6338.34 679.102  15
   4 -11   2 4513.15 474.350   9
   4 -11   3 5419.84 567.260   7
   4 -11   3 5969.83 662.791  15
   4 -11   4 1581.49 298.348   7
   4 -11   5 3833.66 442.348   7
   4 -11   5 55.9450 39.0827  21
   4 -11   6 211.002 80.6929  21
   4 -10  -4 87.5866 63.3452   7
   4 -10  -3 3235.15 418.669   7
   4 -10  -2 9665.19 813.569   7
   4 -10  -2 10560.2 959.773  15
   4 -10  -1 5706.06 685.326   7
   4 -10  -1 6025.50 781.472  15
   4 -10   0 53340.5 2195.76   7
   4 -10   0 55407.0 2451.98  15
   4 -10   1 57740.6 2354.31   7
   4 -10   2 57006.2 2367.08   7
   4 -10   3 64031.9 2496.27   7
   4 -10   4 10136.6 986.006   7
   4 -10   5 5955.71 723.746   7
   4 -10   5 3387.84 761.450  23
   4 -10   6 4482.34 598.360   7
   4 -10   6 3929.98 849.263  23
   4 -10   7 71.9847 141.810  23
   4 -10   7 46.2674 58.8631  19
   4 -10   8 42.3863 33.2017  19
   4  -9  -6 10150.5 612.262   7
   4  -9  -5 9866.46 763.591   7
   4  -9  -4 3083.12 487.581   7
   4  -9  -4 3016.72 464.607  20
   4  -9  -3 4254.42 667.609  15
   4  -9  -3 3915.05 599.367   7
   4  -9  -3 3912.51 593.797  20
   4  -9  -2 7310.55 923.545  15
   4  -9  -2 7412.88 893.041   7
   4  -9  -2 6918.72 858.880  20
   4  -9  -1 12698.5 1198.78   7
   4  -9  -1 12588.4 1242.27  15
   4  -9  -1 12860.8 1238.00  20
   4  -9  -1 14759.5 2307.24  22
   4  -9   0 15605.1 1347.93   7
   4  -9   0 15976.5 2521.98  22
   4  -9   0 15522.6 1418.15  20
   4  -9   1 14212.1 1294.56   7
   4  -9   1 16040.9 2499.65  22
   4  -9   2 24492.7 1701.79   7
   4  -9   3 12560.3 1700.41  23
   4  -9   3 20099.1 1533.01   7
   4  -9   4 8377.92 930.050  17
   4  -9   4 8083.83 962.571   7
   4  -9   4 6940.70 1369.64  23
   4  -9   5 6333.62 787.389  17
   4  -9   5 6592.75 871.774   7
   4  -9   5 6039.32 1360.92  23
   4  -9   6 2912.61 577.780   7
   4  -9   6 2914.38 534.007  17
   4  -9   6 2890.77 938.493  23
   4  -9   7 5353.70 657.261  17
   4  -9   7 6345.27 1272.74  23
   4  -9   7 5043.14 601.229  19
   4  -9   8 12180.7 858.872  17
   4  -9   8 13507.6 1627.67  23
   4  -9   8 11792.2 829.408  19
   4  -9   9 12421.1 1284.60  23
   4  -9   9 11841.5 681.290  19
   4  -9   9 12485.1 695.718  17
   4  -8  -8 1374.99 191.314   7
   4  -8  -7 524.511 164.723   7
   4  -8  -6 273.660 166.333   7
   4  -8  -5 7508.88 824.621   7
   4  -8  -5 5897.57 632.999  20
   4  -8  -4 547.044 232.020  15
   4  -8  -4 442.602 190.881   7
   4  -8  -4 605.650 391.813  22
   4  -8  -4 477.953 210.731  20
   4  -8  -3 33623.4 1954.23  15
   4  -8  -3 36232.6 2034.42   7
   4  -8  -3 33007.7 1858.59  20
   4  -8  -3 36185.1 3305.88  22
   4  -8  -2 55096.9 2540.33  15
   4  -8  -2 57094.7 2675.40  14
   4  -8  -2 58162.0 2608.23   7
   4  -8  -2 55159.8 2508.02  20
   4  -8  -2 58651.7 4535.43  22
   4  -8  -1 33793.5 3229.61   3
   4  -8  -1 42136.7 2338.91  14
   4  -8  -1 42090.7 2233.88   7
   4  -8  -1 45474.6 4100.39  22
   4  -8  -1 42298.2 2285.77  20
   4  -8   0 61233.5 2681.98   7
   4  -8   0 51761.7 4082.59   3
   4  -8   0 61597.6 4894.77  22
   4  -8   0 62421.0 2796.94  20
   4  -8   1 17597.3 1425.14   7
   4  -8   1 14415.7 2162.58   3
   4  -8   1 17862.2 1510.26  20
   4  -8   1 18381.2 2612.39  22
   4  -8   2 50313.8 2231.33  17
   4  -8   2 54345.0 2477.98   7
   4  -8   2 47810.7 3944.05   3
   4  -8   2 57200.2 4516.79  22
   4  -8   3 37482.7 1948.97  17
   4  -8   3 38064.1 2082.75   7
   4  -8   3 38517.7 3512.51  22
   4  -8   3 31415.8 3184.82   3
  -4   8  -3 41162.3 4811.81   4
   4  -8   4 58965.9 2485.16  17
   4  -8   4 60627.3 2629.96   7
   4  -8   5 25583.6 1665.19  17
   4  -8   5 26144.3 1727.40   7
   4  -8   6 96.2971 155.966  17
   4  -8   6 221.780 197.892   7
   4  -8   6 432.174 560.295  23
   4  -8   7 4045.83 681.747   7
   4  -8   7 4832.63 692.322  17
   4  -8   7 5054.15 1292.87  23
   4  -8   8 402.032 215.164  17
   4  -8   8 552.012 416.034  23
   4  -8   9 410.205 168.881  17
   4  -8   9 210.052 218.804  23
   4  -8   9 280.026 171.437  19
   4  -8  10 929.149 176.820  17
   4  -8  10 1062.12 195.900  19
   4  -7  -9 4789.47 401.533   7
   4  -7  -8 5367.63 559.170   7
   4  -7  -7 10793.4 926.893   7
   4  -7  -6 19494.8 1375.53   7
   4  -7  -5 21337.7 1496.67   7
   4  -7  -4 41141.8 2029.84  15
   4  -7  -4 48655.8 2294.81   7
   4  -7  -4 42958.6 3354.07  22
   4  -7  -4 41634.1 1898.36  20
   4  -7  -3 13908.5 1181.66  15
   4  -7  -3 15974.1 1338.50  14
   4  -7  -3 16423.7 1330.91   7
   4  -7  -3 14751.2 1182.03  20
   4  -7  -3 16211.6 2185.48  22
   4  -7  -2 10544.0 1673.08   3
   4  -7  -2 11314.1 1142.15  14
   4  -7  -2 12402.6 1139.79   7
   4  -7  -2 11774.7 1965.53  22
   4  -7  -2 10600.8 1051.19  20
   4  -7  -1 18735.6 1465.06  14
   4  -7  -1 20391.1 2391.39   3
   4  -7  -1 20596.8 1433.64   7
   4  -7  -1 21845.6 2689.93  22
   4  -7  -1 17643.4 1377.70  20
   4  -7   0 3147.83 981.926  22
   4  -7   0 2137.05 781.756   3
   4  -7   0 2958.98 541.402   7
   4  -7   0 2527.02 541.896  20
   4  -7   1 1816.89 425.984   7
   4  -7   1 2235.39 857.123  22
   4  -7   1 1861.33 465.313  20
   4  -7   1 1365.27 646.266   3
   4  -7   2 9371.33 882.886  17
   4  -7   2 10187.4 974.562   7
   4  -7   2 10697.8 1745.83   3
   4  -7   2 9526.23 1715.23  22
   4  -7   3 8974.50 1610.22   3
   4  -7   3 8763.72 913.252   7
  -4   7  -3 12005.1 2358.44   4
   4  -7   3 7596.40 1409.41  22
   4  -7   3 8208.57 849.599  17
   4  -7   4 7070.78 833.395  17
  -4   7  -4 5288.80 1599.46   4
   4  -7   4 7509.63 866.422   7
   4  -7   4 5926.09 1354.82   3
   4  -7   5 45325.7 2197.86   7
  -4   7  -5 33918.0 3889.14   4
   4  -7   5 38980.3 3519.09   3
   4  -7   6 27976.1 1791.76   7
   4  -7   7 18729.5 1454.57   7
   4  -7   7 23316.0 2878.29  23
   4  -7   8 12348.1 1937.85  23
   4  -7   9 9572.79 877.581  17
   4  -7   9 9492.42 1417.68  23
   4  -7  10 7479.26 616.628  17
   4  -7  10 5967.78 820.075  23
   4  -7  10 7516.60 597.448  19
   4  -6 -10 673.897 158.094   7
   4  -6  -9 1760.63 319.707   7
   4  -6  -8 4741.18 631.010   7
   4  -6  -7 3013.06 555.115   7
   4  -6  -6 4292.95 678.694   7
  -4   6   5 18975.6 2589.00   5
   4  -6  -5 21161.4 1486.81   7
  -4   6   4 25150.4 2872.49   5
   4  -6  -4 31126.0 1735.39   7
  -4   6   3 27617.7 2840.14   5
   4  -6  -3 33155.9 2611.32   3
   4  -6  -2 16722.6 1911.12   3
  -4   6   2 17321.8 2109.69   5
   4  -6  -1 111778. 4997.97   3
  -4   6   1 109821. 4881.57   5
   4  -6   0 76196.4 4095.69   3
  -4   6   0 72588.4 3745.42   5
   4  -6   1 116826. 5060.20   3
   4  -6   2 66646.3 3888.58   3
  -4   6  -3 22622.0 2825.82   4
   4  -6   4 24384.4 1434.91   7
  -4   6  -4 39980.6 3836.73   4
   4  -6   5 18632.2 1321.16   7
  -4   6  -5 17708.8 2194.66  24
  -4   6  -5 19766.6 2684.39   4
   4  -6   6 14126.8 1232.77   7
  -4   6  -6 10424.2 1735.05  24
  -4   6  -7 242.126 332.700  24
  -4   6  -8 3678.03 972.630  24
   4  -6   8 4768.71 1154.17  23
   4  -6   9 3926.16 891.766  23
   4  -6  10 71.9356 110.914  23
   4  -6  11 243.756 93.6028  17
   4  -5 -11 3446.68 329.325   7
   4  -5 -10 6394.15 622.702   7
  -4   5   6 27294.2 3157.73   5
  -4   5   5 20578.6 2618.55   5
  -4   5   4 22751.5 2547.94   5
  -4   5   3 21451.1 2302.39   5
   4  -5  -3 16489.2 1609.48   3
   4  -5  -2 23105.9 1936.52   3
  -4   5   2 23401.6 2267.89   5
   4  -5  -1 27481.6 2128.98   3
  -4   5   1 28296.9 2326.39   5
   4  -5   0 38607.2 2507.18   3
  -4   5   0 36955.5 2565.59   5
   4  -5   1 15686.2 1642.76   3
  -4   5  -1 17257.9 1682.78   5
  -4   5  -2 20757.1 1881.74   5
  -4   5  -3 20316.0 2308.11   4
  -4   5  -4 46673.6 3602.03   4
   4  -5   4 44641.5 3334.77   2
   4  -5   5 25122.4 2706.66   2
  -4   5  -5 24618.6 2638.20  24
  -4   5  -5 24978.1 2647.25   4
   4  -5   6 30259.6 1705.41   7
  -4   5  -6 30947.6 3097.42  24
   4  -5   6 38093.4 3504.96   2
  -4   5  -7 28057.3 3000.07  24
  -4   5  -8 20453.7 2501.94  24
   4  -5   8 25310.4 2526.62  23
  -4   5  -9 7926.04 1391.29  24
   4  -5   9 5678.21 1005.09  23
   4  -4 -12 521.953 104.104   7
  -4   4  11 865.057 184.204   8
  -4   4  10 330.575 170.316   8
  -4   4   9 347.077 192.343   8
  -4   4   8 986.672 298.451   8
  -4   4   7 526.450 444.150   5
  -4   4   7 391.056 196.903   8
  -4   4   6 7614.02 1537.43   5
  -4   4   5 4865.51 1178.08   5
  -4   4   4 57041.8 3689.34   5
  -4   4   3 72586.3 3842.77   5
   4  -4  -3 58075.2 2536.70   3
  -4   4   2 175610. 5649.41   5
   4  -4  -2 175313. 4455.01   3
   4  -4  -1 138890. 3939.10   3
  -4   4   1 117954. 4392.80   5
   4  -4   0 56589.0 2626.14   3
  -4   4   0 72754.3 3418.65   5
  -4   4  -1 225715. 5985.49   5
   4  -4   2 79979.2 3601.20   2
  -4   4  -2 85321.8 3849.18   5
   4  -4   3 56160.0 3351.09   2
  -4   4  -3 50910.1 3153.74   4
   4  -4   4 10796.2 1638.88   2
  -4   4  -4 6577.53 1155.47   4
   4  -4   5 6009.64 1336.02   2
  -4   4  -6 258.111 120.069  16
   4  -4   6 529.565 437.265   2
  -4   4  -6 393.611 437.382  24
   4  -4   7 9557.41 1882.02   2
  -4   4  -7 9122.26 1772.26  24
  -4   4  -8 568.765 454.496  24
  -4   4  -9 2850.03 888.367  24
   4  -4  11 265.067 88.0149   8
  -4   3  12 1823.91 237.659   8
  -4   3  11 12206.1 864.078   8
  -4   3  10 25612.8 1457.58   8
  -4   3   9 26479.1 1590.54   8
  -4   3   8 41794.9 3798.23   5
  -4   3   8 38245.7 1890.07   8
  -4   3   7 26157.6 2913.91   5
  -4   3   7 18379.8 1235.90   8
  -4   3   6 50743.7 3745.38   5
  -4   3   5 30476.1 2715.42   5
  -4   3   4 2677.58 740.005   5
  -4   3   3 193064. 5772.99   5
  -4   3   2 12838.8 1446.75   5
   4  -3  -2 11150.9 857.572   3
   4  -3  -1 21601.9 1257.25   3
  -4   3   1 24766.9 1923.91   5
  -4   3   0 26930.0 2028.40   5
   4  -3   1 80847.6 3139.50   2
  -4   3  -1 85772.0 3650.51   5
   4  -3   2 152777. 4816.10   2
  -4   3  -2 161798. 5335.63   5
   4  -3   3 6904.26 1183.43   2
   4  -3   4 54988.7 3616.11   2
   4  -3   5 48675.0 3797.77   2
  -4   3  -5 24625.5 2835.65   1
   4  -3   6 25520.3 2981.47   2
  -4   3  -6 24707.3 2875.81  24
  -4   3  -6 21403.0 2803.83   1
   4  -3   7 43370.1 4033.65   2
   4  -3   7 33191.0 1587.87  11
  -4   3  -8 24626.1 2938.58  24
   4  -3   8 18094.1 1175.95  11
   4  -3  11 1000.66 183.793   8
  -4   2  12 3348.96 395.256   8
  -4   2  11 2751.06 450.889   8
  -4   2  10 52.9808 93.1318   8
  -4   2   9 443.969 233.092   8
  -4   2   8 3127.25 1016.58   5
  -4   2   8 3552.99 584.769   8
  -4   2   7 2212.58 779.710   5
  -4   2   7 1405.28 351.743   8
  -4   2   6 10490.8 1594.70   5
  -4   2   5 3058.32 801.042   5
  -4   2   4 1600.05 540.730   5
  -4   2   3 57453.7 3013.67   5
  -4   2   2 226278. 5731.35   5
  -4   2   1 508363. 8479.27   5
   4  -2   0 216152. 4147.24   2
  -4   2   0 234827. 5952.38   5
  -4   2  -1 43439.7 2330.71   1
   4  -2   1 44776.3 2240.96   2
  -4   2  -2 2546.75 680.136   1
  -4   2  -3 6092.51 1195.22   1
  -4   2  -4 1976.95 750.327   1
  -4   2  -4 2337.61 673.739   6
  -4   2  -5 1464.18 708.272   1
  -4   2  -6 3409.75 1057.81  24
  -4   2  -6 3597.10 1187.54   1
  -4   2  -7 1398.49 727.168  24
   4  -2   7 1075.18 302.628  11
  -4   2  -8 41.4057 385.711  24
   4  -2   8 117.096 152.084  11
   4  -2   9 193.218 136.389  11
   4  -2  11 285.364 90.7254   8
  -4   1  13 1898.48 214.928   8
  -4   1  12 4702.71 499.688   8
  -4   1  11 12723.3 747.884  12
  -4   1  11 19814.6 1233.60   8
  -4   1  10 24347.7 1522.65   8
  -4   1   9 49438.6 2212.69   8
  -4   1   8 22187.1 2490.29   5
  -4   1   8 22219.4 1415.23   8
  -4   1   7 30135.2 2764.70   5
  -4   1   6 30005.7 2564.72   5
  -4   1   5 4318.27 904.567   5
  -4   1   4 101947. 4095.87   5
  -4   1   3 102706. 3908.43   5
  -4   1   2 27417.9 1952.28   5
  -4   1   1 16927.4 1552.45   5
  -4   1   0 2443.90 598.253   5
  -4   1  -1 168656. 4719.85   1
  -4   1  -1 207852. 5932.46   5
  -4   1  -2 5674.11 1081.20   1
  -4   1  -2 5854.98 1173.43   6
  -4   1  -3 34273.3 2970.86   1
  -4   1  -3 34497.5 2785.67   6
  -4   1  -4 50114.5 3970.92   1
  -4   1  -4 48310.9 3198.53   6
  -4   1  -5 26801.0 1546.78  16
  -4   1  -5 26556.5 2727.33  24
  -4   1  -5 26445.5 3077.50   1
  -4   1  -6 36676.9 3442.67  24
  -4   1  -6 32529.8 3511.68   1
  -4   1  -7 29979.8 3156.36  24
   4  -1   8 18456.8 1240.21  11
  -4   1  -8 16898.7 1131.91  20
   4  -1   9 9254.50 754.314  11
  -4   0  13 203.354 74.8778   8
  -4   0  12 1050.86 184.668  12
  -4   0  12 1616.83 301.114   8
  -4   0  11 1485.64 286.574  12
  -4   0  11 1680.13 364.539   8
  -4   0  10 399.782 217.074   8
  -4   0   9 6711.60 811.891   8
  -4   0   8 113.890 147.010   8
  -4   0   7 5799.04 1127.98   5
  -4   0   6 5347.06 1034.80   5
   4   0  -6 8284.96 1740.03   4
  -4   0   5 65367.6 3393.90   5
   4   0  -5 72277.1 4731.29   4
   4   0  -4 86342.2 4717.87   4
  -4   0   4 80498.9 3306.40   6
  -4   0   4 91253.6 3713.24   5
  -4   0   3 212565. 5985.75   6
  -4   0   3 213648. 5424.39   5
  -4   0   2 86356.0 4060.72   6
  -4   0   2 79207.8 3269.07   5
  -4   0   1 101084. 4592.13   6
  -4   0   1 96319.5 3619.19   5
  -4   0   0 188875. 6415.17   6
  -4   0   0 170545. 5105.27   5
  -4   0  -1 55432.9 3511.62   6
  -4   0  -2 39780.4 2926.44   1
  -4   0  -2 47574.6 3261.06   6
  -4   0  -3 7807.60 1453.90   1
  -4   0  -3 7679.29 1306.44   6
  -4   0  -4 7795.74 801.130  16
  -4   0  -4 7611.95 1285.58   6
  -4   0  -4 8968.83 1707.20   1
  -4   0  -5 1293.62 599.451  24
  -4   0  -5 1100.40 619.573   1
  -4   0  -6 2175.12 785.699  24
  -4   0  -7 86.4889 108.804  20
   4   0   8 383.067 206.788  11
  -4   0  -8 112.022 115.067  20
   4   0   9 279.453 155.867  11
  -4  -1  13 2809.10 237.155   8
  -4  -1  12 5959.68 463.387  12
  -4  -1  12 7009.04 579.562   8
  -4  -1  11 8152.80 695.907  12
  -4  -1  11 8744.09 786.428   8
  -4  -1  10 21005.5 1271.65  12
  -4  -1  10 21620.5 1359.68   8
  -4  -1   9 23665.9 1381.17  12
  -4  -1   9 23826.3 1449.02   8
   4   1  -8 27796.2 3648.84   4
  -4  -1   8 25236.6 1384.29  12
  -4  -1   8 24253.9 1419.28   8
   4   1  -7 24105.9 3274.95   4
  -4  -1   7 20892.7 1180.10  12
  -4  -1   7 20521.9 1215.98   8
   4   1  -6 23129.0 2996.34   4
   4   1  -5 16048.8 2293.32   4
   4   1  -4 23495.3 2519.43   4
  -4  -1   4 20854.4 1671.63   6
  -4  -1   4 21538.4 1662.84   5
   4   1  -3 19364.2 2028.71   4
  -4  -1   3 21115.1 1881.55   6
  -4  -1   3 19125.4 1511.64   5
  -4  -1   2 34343.9 2552.88   6
  -4  -1   2 32281.0 1983.31   5
  -4  -1   1 19486.8 2001.35   6
  -4  -1   0 17347.1 1943.00   6
  -4  -1  -1 31235.1 2672.56   6
  -4  -1  -2 33454.4 2818.53   6
  -4  -1  -3 18103.2 2051.51   6
  -4  -1  -4 23949.4 1292.48  13
  -4  -1  -4 28576.8 2546.12   6
  -4  -1  -4 26682.3 1657.34  21
  -4  -1  -6 36364.0 1898.13  20
  -4  -1  -7 10073.4 889.729  20
   4   1   8 7923.88 709.148  11
  -4  -1  -8 4157.40 453.162  20
   4   1   9 3029.16 327.665  11
   4   1   9 1826.66 217.802   8
  -4  -2  12 55.9721 60.2607   8
   4   2 -12-23.9689 42.7245  18
  -4  -2  11 4314.69 503.123   8
  -4  -2  11 4961.25 549.619  12
  -4  -2  10 6936.32 743.340  12
  -4  -2  10 5550.13 642.534   8
  -4  -2   9 317.019 195.770  12
  -4  -2   9 227.205 138.689   8
  -4  -2   8 12106.6 951.271   8
   4   2  -8 13808.5 2599.99   4
  -4  -2   8 14314.3 1108.63  12
  -4  -2   7 23151.8 1241.44   8
   4   2  -7 28329.4 3555.94   4
  -4  -2   7 30139.6 1525.91  12
   4   2  -6 29155.8 3427.57   4
  -4  -2   6 32673.6 1479.04  12
   4   2  -5 17077.4 2412.15   4
   4   2  -4 51907.4 3875.36   4
  -4  -2   4 37654.7 2418.51   6
  -4  -2   3 83900.6 3952.20   6
  -4  -2   2 52495.7 3295.20   6
  -4  -2   1 120287. 5181.68   6
  -4  -2   0 15576.6 1939.10   6
  -4  -2  -1 25620.4 2536.25   6
  -4  -2  -2 21921.5 1335.28  13
  -4  -2  -2 22781.7 1499.31  21
  -4  -2  -2 21747.0 2365.40   6
  -4  -2  -3 13867.4 1059.36  13
  -4  -2  -3 14342.3 1905.90   6
  -4  -2  -3 13921.8 1179.30  21
  -4  -2  -3 15092.8 1295.11  20
  -4  -2  -4 8232.88 789.234  13
  -4  -2  -4 8418.01 890.872  21
  -4  -2  -4 9648.97 1054.34  20
  -4  -2  -5 1178.00 279.259  13
  -4  -2  -5 1881.41 454.984  20
  -4  -2  -6 3637.60 570.676  20
  -4  -2  -7 1837.35 341.484  20
   4   2   8 430.223 156.524  11
  -4  -2  -8 182.203 77.3002  20
  -4  -3  12 5535.45 425.649  12
  -4  -3  11 7756.64 670.197  12
  -4  -3  10 14644.6 1069.61  12
  -4  -3   9 19742.0 1331.52  12
  -4  -3   8 19939.2 1359.18  12
   4   3  -7 26864.8 3426.04   4
  -4  -3   7 30113.3 1524.45  21
  -4  -3   6 6773.12 748.183  12
  -4  -3   6 5356.53 668.328  21
   4   3  -6 5901.03 1531.17   4
  -4  -3   5 13063.5 971.199  12
  -4  -3   5 11697.1 1010.42  21
  -4  -3   4 14052.5 983.089  12
  -4  -3   4 14087.8 1116.90  21
  -4  -3   3 1854.25 342.861  12
  -4  -3   3 2072.30 437.217  21
  -4  -3   3 1766.04 611.962   6
  -4  -3   2 1769.58 404.343  21
  -4  -3   2 1439.20 590.828   6
  -4  -3   1 5348.59 676.322  13
  -4  -3   1 5110.20 1154.61   6
  -4  -3   1 5507.11 724.076  21
  -4  -3   0 5289.57 1220.50   6
  -4  -3   0 5515.64 730.463  21
  -4  -3   0 4901.11 668.082  13
  -4  -3   0 4101.65 575.443  20
  -4  -3   0 3957.22 584.189   9
  -4  -3  -1 12620.1 1070.47  13
  -4  -3  -1 12966.6 1948.06   6
  -4  -3  -1 12265.4 1100.28  21
  -4  -3  -1 11566.3 1049.32  20
  -4  -3  -2 50884.0 2138.74  13
  -4  -3  -2 46825.4 2149.34  21
  -4  -3  -2 52284.8 2300.57  20
  -4  -3  -3 26927.5 1531.07  13
  -4  -3  -3 23637.8 1488.14  21
  -4  -3  -3 28523.6 1751.40  20
  -4  -3  -4 17957.5 1171.32  13
  -4  -3  -4 18862.7 1381.85  20
  -4  -3  -5 10712.6 962.320  20
  -4  -3  -6 6404.37 642.010  20
  -4  -3  -7 5429.31 453.752  20
  -4  -4  12 1240.93 169.097  12
   4   4 -12 741.171 145.219  18
  -4  -4  11 780.370 202.390  12
  -4  -4  10 31.4302 101.851  12
  -4  -4   9 3955.97 583.613  12
  -4  -4   8 2137.64 446.256  12
  -4  -4   8 1285.84 314.906  21
  -4  -4   7 19913.8 1359.84  12
  -4  -4   7 16364.1 1212.99  21
  -4  -4   6 59950.1 2314.36  12
  -4  -4   6 54161.3 2328.41  21
  -4  -4   5 38893.8 1818.93  12
  -4  -4   5 38799.0 2018.39  21
  -4  -4   4 52461.6 2085.20  12
  -4  -4   4 56742.3 2489.76  21
  -4  -4   3 15752.4 1107.69  13
  -4  -4   3 13829.0 1855.86   6
  -4  -4   3 19175.7 1452.99  21
  -4  -4   2 35047.4 3097.78   6
  -4  -4   2 37430.7 1806.38  13
  -4  -4   2 40130.0 2108.27  21
  -4  -4   1 29197.8 1662.09  13
  -4  -4   1 23701.2 1453.07   9
  -4  -4   1 32103.4 1836.92  21
  -4  -4   1 23101.2 1314.82  20
  -4  -4   1 26861.7 2797.45   6
  -4  -4   0 45941.5 2107.58  13
  -4  -4   0 42183.2 2087.54  21
  -4  -4  -1 42677.3 2036.07  13
  -4  -4  -1 37925.3 1925.92  21
  -4  -4  -1 39349.2 1935.71  20
  -4  -4  -2 1136.97 332.518  13
  -4  -4  -2 813.975 271.002  21
  -4  -4  -2 1117.87 324.773  20
  -4  -4  -3 5487.73 716.051  20
  -4  -4  -3 3699.22 516.915  21
  -4  -4  -4 367.210 163.322  20
  -4  -4  -5 173.588 119.710  20
  -4  -4  -6 596.129 153.741  20
  -4  -5  11 10347.8 569.484  12
  -4  -5  10 13119.1 822.689  12
  -4  -5   9 7015.24 691.453  12
  -4  -5   9 4169.04 448.219  21
  -4  -5   8 2297.49 428.031  12
  -4  -5   8 1710.93 351.761  21
  -4  -5   7 5370.73 686.562  12
  -4  -5   7 4454.41 638.199  21
  -4  -5   6 5190.28 684.085  12
  -4  -5   6 4909.82 723.268  21
  -4  -5   5 12279.9 1179.28  21
  -4  -5   4 15974.5 1375.76  21
  -4  -5   3 10326.3 920.429  13
  -4  -5   3 11996.4 1200.95  21
  -4  -5   2 10730.7 953.784   9
  -4  -5   2 13023.8 1078.93  13
  -4  -5   2 14824.4 1268.38  21
  -4  -5   1 13475.6 1133.04  13
  -4  -5   1 12446.6 1137.86  21
  -4  -5   1 10737.0 994.039   9
  -4  -5   1 9373.12 819.970  20
  -4  -5   0 8142.37 878.285  13
  -4  -5   0 7268.73 838.325  21
  -4  -5   0 6659.21 731.909  20
  -4  -5  -1 3079.00 505.825  21
  -4  -5  -1 3466.37 541.846  20
  -4  -5  -2 3074.41 439.024  21
  -4  -5  -2 3699.44 540.052  20
  -4  -5  -3 9200.78 774.902  20
  -4  -5  -4 14146.0 832.407  20
  -4  -5  -5 7636.13 474.092  20
   4   6 -10 105.580 57.8671  18
  -4  -6   9 100.844 65.3285  21
  -4  -6   8 6202.07 601.172  21
  -4  -6   7 8280.15 815.949  21
  -4  -6   6 9916.61 966.707  21
  -4  -6   5 55526.7 2385.46  21
  -4  -6   4 50393.4 2273.44  21
  -4  -6   3 35755.1 1567.42   9
  -4  -6   3 54103.5 2316.38  21
  -4  -6   2 61244.3 2370.47  21
  -4  -6   1 6320.85 719.191  21
  -4  -6   0 5498.24 610.634  21
  -4  -6   0 4978.94 532.101  20
  -4  -6  -1 547.790 181.174  21
  -4  -6  -1 1447.59 280.845  20
  -4  -6  -2 739.944 188.946  20
  -4  -6  -3 32.4003 42.6558  20
  -4  -7   8 590.217 140.863  21
  -4  -7   7 2608.59 360.394  21
  -4  -7   6 3601.39 468.954  21
  -4  -7   5 7080.47 694.643  21
  -4  -7   4 6777.03 688.232  21
  -4  -7   3 5736.20 612.049  21
  -4  -7   2 731.559 214.268  21
  -4  -7   1 1641.67 260.314  21
  -4  -7  -1 4861.17 382.268  14
   5 -12   2 3952.45 315.710  15
   5 -11  -3 4599.52 332.055   7
   5 -11  -2 3633.84 368.383   7
   5 -11  -1 1702.21 293.487   7
   5 -11  -1 1429.84 274.635  15
   5 -11   0 3572.48 457.688   7
   5 -11   0 3494.72 460.037  15
   5 -11   1 14574.1 957.914   7
   5 -11   1 13727.0 960.635  15
   5 -11   2 13632.0 940.506   7
   5 -11   2 13178.2 955.644  15
   5 -11   3 3493.87 476.635   7
   5 -11   4 1130.10 262.247   7
   5 -11   5 2025.80 325.167   7
   5 -10  -5 2697.35 293.011   7
   5 -10  -4 612.811 182.082   7
   5 -10  -3 1511.36 300.026  15
   5 -10  -3 2061.49 366.542   7
   5 -10  -2 10574.3 922.466   7
   5 -10  -2 9798.11 865.524  15
   5 -10  -1 8487.34 871.588   7
   5 -10  -1 7633.42 820.807  15
   5 -10   0 12209.0 1091.09   7
   5 -10   0 11388.6 1061.43  15
   5 -10   1 7751.14 897.241   7
   5 -10   2 6685.78 829.266   7
   5 -10   3 13987.1 1169.76   7
   5 -10   4 14372.4 1161.98   7
   5 -10   4 9800.31 1345.06  23
   5 -10   5 8868.67 870.524   7
   5 -10   5 6798.88 1126.49  23
   5 -10   6 1366.43 323.249   7
   5 -10   6 1012.17 428.666  23
   5 -10   7 1082.00 402.164  23
   5 -10   7 26.6121 36.7794  19
   5 -10   8 1750.61 391.389  23
   5  -9  -7 2663.25 276.433   7
   5  -9  -6 3697.17 436.892   7
   5  -9  -5 3543.90 497.698   7
   5  -9  -4 6221.95 739.480   7
   5  -9  -3 14662.3 1135.81  15
   5  -9  -3 17511.9 1338.37   7
   5  -9  -3 15550.0 2091.56  22
   5  -9  -2 36716.5 1918.12  15
   5  -9  -2 43813.2 2227.87   7
   5  -9  -2 43867.9 3818.06  22
   5  -9  -1 33147.2 1984.80   7
   5  -9  -1 29593.4 1805.86  15
   5  -9  -1 31278.2 3391.41  22
   5  -9   0 3070.81 602.230   7
   5  -9   0 3803.69 1232.92  22
   5  -9   1 559.386 273.561   7
   5  -9   1 626.619 518.905  22
   5  -9   2 6187.61 851.669   7
   5  -9   2 5986.11 1466.73  22
   5  -9   3 33937.0 1968.05   7
   5  -9   3 27154.3 2862.42  22
   5  -9   3 29813.9 1702.60  17
   5  -9   4 27486.3 1626.25  17
   5  -9   4 28244.2 1753.98   7
   5  -9   5 7995.15 873.341  17
   5  -9   5 8025.12 914.238   7
   5  -9   5 8538.88 1640.79  23
   5  -9   6 3992.31 587.755  17
   5  -9   6 4036.97 628.291   7
   5  -9   6 4137.52 1112.11  23
   5  -9   7 4257.87 551.910  17
   5  -9   7 4381.98 1005.99  23
   5  -9   8 4009.51 459.364  17
   5  -9   8 4019.96 832.327  23
   5  -9   8 3718.19 431.417  19
   5  -9   9 2041.55 423.650  23
   5  -9   9 1962.66 235.054  19
   5  -9   9 2229.35 256.215  17
   5  -8  -8 1220.15 216.230   7
   5  -8  -7 1536.08 313.037   7
   5  -8  -6 2501.28 441.766   7
   5  -8  -5 22248.7 1472.30   7
   5  -8  -5 17135.1 1853.62  22
   5  -8  -4 42354.8 2141.76   7
   5  -8  -4 38477.8 3215.24  22
   5  -8  -3 13874.4 1133.04  15
   5  -8  -3 16945.2 1399.83   7
   5  -8  -3 16625.5 2336.25  22
   5  -8  -3 14607.7 1199.08  20
   5  -8  -2 2904.30 544.071  15
   5  -8  -2 4017.23 694.094   7
   5  -8  -2 3979.63 1213.91  22
   5  -8  -2 3382.63 613.552  20
   5  -8  -1 946.364 341.680   7
   5  -8  -1 947.169 662.330  22
   5  -8   0 8242.42 977.896   7
   5  -8   0 5021.48 1206.65   3
   5  -8   0 6737.23 1632.24  22
   5  -8   1 9789.17 1048.87   7
   5  -8   1 6818.93 1487.84   3
   5  -8   1 10050.1 1972.07  22
   5  -8   2 1958.95 428.274  17
  -5   8  -2 3420.31 1370.52   4
   5  -8   2 1910.01 446.926   7
   5  -8   2 2311.35 891.438  22
   5  -8   2 1137.38 590.040   3
   5  -8   3 2351.86 482.785  17
   5  -8   3 2511.69 527.305   7
   5  -8   3 1865.15 702.079  22
   5  -8   4 16942.1 1312.08  17
   5  -8   4 16542.9 1343.75   7
   5  -8   5 40542.9 2046.25  17
   5  -8   5 38338.6 2002.92   7
   5  -8   6 32770.0 1781.03  17
   5  -8   6 29769.5 1746.99   7
   5  -8   7 3139.59 534.704  17
   5  -8   7 3933.82 1122.81  23
   5  -8   8 786.773 239.810  17
   5  -8   8 594.893 419.024  23
   5  -8   9 1005.34 226.837  17
   5  -8   9 698.909 302.341  23
   5  -8   9 985.079 221.827  19
   5  -7  -9 423.963 135.120   7
   5  -7  -8 584.521 215.476   7
   5  -7  -7 1886.76 408.734   7
   5  -7  -6 14943.4 1221.96   7
   5  -7  -5 35166.0 1949.40   7
   5  -7  -5 30215.2 2716.54  22
   5  -7  -4 40298.7 2112.57   7
   5  -7  -3 18314.8 1408.28   7
   5  -7  -3 15569.0 1197.25  20
   5  -7  -2 8948.98 967.531   7
   5  -7  -2 8187.56 910.269  20
   5  -7  -1 6440.92 811.526   7
   5  -7  -1 4213.87 1050.35   3
   5  -7   0 2178.48 478.448   7
   5  -7   0 1563.76 639.125   3
   5  -7   0 1388.59 318.204  17
   5  -7   1 2151.09 414.125  17
   5  -7   1 2465.09 478.422   7
   5  -7   1 2603.77 775.184   3
   5  -7   2 8259.71 819.070  17
   5  -7   2 9102.85 922.139   7
   5  -7   2 7515.75 1419.67   3
   5  -7   3 9390.73 912.932  17
   5  -7   3 9416.78 937.068   7
  -5   7  -3 10793.6 2132.79   4
   5  -7   3 9584.75 1604.38  22
   5  -7   3 8697.85 1564.42   3
   5  -7   4 28765.3 1660.41  17
   5  -7   4 28957.3 1668.94   7
  -5   7  -4 25695.2 2851.09  24
   5  -7   4 26720.2 2727.57   3
  -5   7  -4 21389.4 2892.67   4
   5  -7   5 34739.3 1861.87   7
  -5   7  -5 32085.2 3132.77  24
   5  -7   6 10385.3 1039.35   7
  -5   7  -6 8641.56 1594.07  24
  -5   7  -7 2633.29 818.018  24
   5  -7   7 4361.52 1224.19  23
  -5   7  -8 589.926 339.847  24
   5  -7   8 241.099 337.820  23
   5  -7   9 30.0087 124.968  17
   5  -7   9 18.9493 152.574  23
   5  -7  10 1121.64 203.922  17
   5  -7  10 1158.56 183.885  19
   5  -6 -10 292.449 113.485   7
   5  -6  -9 1198.58 280.873   7
   5  -6  -8 312.521 179.950   7
   5  -6  -7 4610.80 681.480   7
   5  -6  -6 20095.0 1455.27   7
  -5   6   5 4102.95 1239.87   5
   5  -6  -5 7028.39 852.327   7
   5  -6  -4 20031.2 1397.04   7
   5  -6  -4 17225.1 1197.73  10
   5  -6  -3 53507.5 2202.72   7
   5  -6  -3 51458.8 2123.60  10
  -5   6   3 58599.4 4290.70   5
  -5   6   2 45988.1 3587.19   5
   5  -6  -1 21756.6 2094.25   3
  -5   6   1 28802.8 2716.17   5
  -5   6   0 1054.02 543.930   5
   5  -6   0 2911.79 772.196   3
  -5   6  -1 26610.1 2450.64   5
   5  -6   1 35291.8 2777.45   3
   5  -6   2 55779.3 3576.61   3
  -5   6  -2 46078.1 3157.06   5
   5  -6   3 47230.0 1898.96   7
  -5   6  -3 55438.5 4158.10   4
   5  -6   4 11519.1 974.573   7
   5  -6   5 10295.7 961.741   7
  -5   6  -5 16417.6 2362.10  24
   5  -6   6 14621.8 1168.75   7
  -5   6  -6 19887.8 2584.87  24
  -5   6  -7 2797.92 948.198  24
  -5   6  -8-767.896 455.070  24
   5  -6   8-85.4054 208.031  23
   5  -6   9 561.731 277.585  23
   5  -6  10 1198.78 241.821  17
   5  -6  10 955.658 171.677  19
   5  -5 -11 445.009 129.011   7
   5  -5 -10 4259.17 514.872   7
  -5   5   9 5819.64 602.034   8
  -5   5   8 8080.11 789.890   8
  -5   5   7 18785.7 1240.60   8
  -5   5   6 21499.2 2795.63   5
  -5   5   5 22457.1 2748.35   5
   5  -5  -5 15622.8 1051.69  10
  -5   5   4 24730.1 2748.87   5
  -5   5   3 7181.75 1418.70   5
  -5   5   2 11020.6 1648.52   5
   5  -5  -1 5118.23 880.480   3
  -5   5   1 7021.71 1254.57   5
   5  -5   0 4330.21 825.451   3
  -5   5   0 4894.68 1038.72   5
   5  -5   1 8632.24 1242.10   3
  -5   5  -1 7232.74 1238.58   5
  -5   5  -2 7315.73 1276.23   5
  -5   5  -3 19745.9 2123.45   4
  -5   5  -4 14549.2 2126.45  24
   5  -5   4 18278.6 2179.40   2
   5  -5   5 21679.1 2523.77   2
  -5   5  -5 20319.9 1235.19  16
  -5   5  -6 23277.8 1312.44  16
  -5   5  -6 34911.5 3474.83  24
  -5   5  -7 4889.68 1289.80  24
  -5   5  -8 9579.57 1663.91  24
   5  -5   8 7882.74 1221.91  23
  -5   5  -9 4170.95 931.196  24
  -5   4  11 1655.47 261.517   8
  -5   4  10 10939.6 844.273   8
  -5   4   9 10360.4 922.786   8
  -5   4   8 5877.57 730.218   8
  -5   4   7 12526.8 2098.42   5
  -5   4   7 10600.0 969.442   8
  -5   4   6 34323.7 3356.90   5
  -5   4   6 23498.9 1371.12   8
  -5   4   5 46054.4 3696.66   5
  -5   4   4 23808.2 2527.83   5
  -5   4   3 23065.3 2353.47   5
  -5   4   2 29228.7 2535.26   5
  -5   4   1 68359.0 3762.73   5
   5  -4   0 45245.7 2389.67   3
  -5   4   0 62789.4 3618.41   5
  -5   4  -1 15960.4 1830.20   5
   5  -4   2 26881.2 2193.81   2
  -5   4  -2 20354.3 2112.99   5
   5  -4   3 33611.6 2704.23   2
   5  -4   4 46358.0 3526.87   2
  -5   4  -4 39762.5 3421.80  24
  -5   4  -5 13522.5 1075.08  16
  -5   4  -5 16715.9 2357.55  24
  -5   4  -6 704.062 256.162  16
  -5   4  -6 747.163 543.422  24
  -5   4  -7 14721.2 2257.64  24
  -5   4  -8 16124.6 2180.09  24
   5  -3 -12 7925.31 501.199   7
  -5   3  12 10119.2 548.347   8
  -5   3  11 3767.71 464.022   8
  -5   3  10 4590.14 607.525   8
  -5   3   9 5986.16 755.383   8
  -5   3   8 5235.74 704.075   8
  -5   3   7 18282.9 2456.82   5
  -5   3   7 16374.3 1188.66   8
  -5   3   6 10904.6 1789.06   5
  -5   3   6 8349.16 803.570   8
  -5   3   5 24142.7 2512.30   5
  -5   3   4 34509.7 2868.89   5
  -5   3   3 50386.7 3260.76   5
  -5   3   2 25086.2 2218.39   5
  -5   3   1 31776.3 2492.62   5
  -5   3   0 40594.1 2785.06   5
   5  -3   1 49489.7 2558.34   2
  -5   3  -1 58641.1 3481.37   5
   5  -3   2 27296.3 2164.93   2
   5  -3   3 24210.9 2280.58   2
  -5   3  -4 5641.24 1245.85   1
  -5   3  -4 6137.40 719.346  16
  -5   3  -4 6113.14 1338.03  24
   5  -3   4 4162.62 1023.45   2
  -5   3  -4 5410.28 1176.84   6
  -5   3  -5 9518.23 937.407  16
  -5   3  -5 8214.77 1598.68   1
   5  -3   5 12169.2 1958.88   2
  -5   3  -5 10609.6 1867.28  24
  -5   3  -6 7425.43 1613.90  24
  -5   3  -7 12557.6 2042.11  24
  -5   3  -8 6342.93 1342.60  24
  -5   2  12 9817.99 628.871   8
  -5   2  11 4040.49 530.745   8
  -5   2  10 9584.16 903.875   8
  -5   2   9 9978.71 985.631   8
  -5   2   8 5205.81 1280.81   5
  -5   2   8 6571.71 789.377   8
  -5   2   7 7655.45 1499.48   5
  -5   2   7 7198.96 785.257   8
   5  -2  -7 6349.97 689.119  18
  -5   2   6 26474.6 2675.04   5
  -5   2   5 24319.8 2422.57   5
  -5   2   4 43094.8 3065.01   5
  -5   2   3 35647.2 2633.90   5
  -5   2   2 26787.9 2242.40   5
  -5   2   1 31391.4 2426.09   5
  -5   2   0 42339.8 2854.75   5
   5  -2   1 46161.8 2422.87   2
  -5   2  -1 58554.1 3506.64   5
   5  -2   2 18031.7 1754.83   2
  -5   2  -3 24415.1 2648.98   6
  -5   2  -4 4933.12 665.902  16
  -5   2  -4 3385.75 997.061   1
  -5   2  -4 4396.42 1109.43  24
  -5   2  -4 5111.39 1118.43   6
  -5   2  -5 15966.6 1258.82  16
  -5   2  -5 16426.4 2287.18  24
  -5   2  -6 3032.33 1022.40  24
   5  -2   7 2661.92 443.871  11
  -5   2  -7 1735.71 684.552  24
   5  -2   8 3778.18 468.054  11
  -5   1  12 958.733 211.844   8
  -5   1  11 10685.3 852.394   8
  -5   1  10 11368.7 988.099   8
  -5   1   9 10895.2 1020.43   8
   5  -1  -9 6602.12 735.746  18
  -5   1   8 2646.81 850.539   5
  -5   1   8 4136.89 619.577   8
  -5   1   7 22469.2 2465.32   5
  -5   1   7 21406.2 1334.51   8
  -5   1   6 53234.0 3660.69   5
  -5   1   5 18699.0 2038.58   5
  -5   1   4 14610.0 1727.93   6
  -5   1   4 16028.1 1796.46   5
  -5   1   3 26008.4 2500.27   6
  -5   1   3 28886.3 2356.33   5
  -5   1   2 64851.9 4150.39   6
  -5   1   2 65683.3 3480.03   5
  -5   1   1 56562.9 3983.92   6
  -5   1   1 58688.6 3294.04   5
  -5   1   0 21902.7 2489.88   6
  -5   1   0 20258.7 1997.04   5
  -5   1  -1 28446.0 2884.14   6
  -5   1  -2 29979.7 2901.33   6
  -5   1  -3 33324.0 1658.99  16
  -5   1  -3 34466.6 2997.27   6
  -5   1  -4 30948.8 1705.36  16
  -5   1  -4 23516.5 2369.99   6
  -5   1  -4 27114.7 2672.21  24
  -5   1  -5 2957.37 913.157  24
  -5   1  -6 10418.6 1743.79  24
   5  -1   7 14662.2 1034.53  11
   5  -1   8 8547.42 680.849  11
  -5   1  -8 6109.24 582.481  20
  -5   0  12 2129.73 303.671   8
  -5   0  11 5523.13 601.501   8
  -5   0  10 5380.91 516.490  12
  -5   0  10 7990.09 811.981   8
  -5   0   9 12426.5 849.461  12
  -5   0   9 17751.7 1270.51   8
  -5   0   8 38975.1 1881.48   8
  -5   0   7 16182.4 1149.81   8
  -5   0   6 16155.4 1074.69   8
  -5   0   6 18008.8 1955.03   5
  -5   0   5 10583.8 1450.17   5
  -5   0   4 5415.63 1011.13   6
  -5   0   4 5103.04 976.273   5
  -5   0   3 8587.76 1389.10   6
  -5   0   3 7336.57 1135.46   5
  -5   0   2 4733.01 890.140   5
  -5   0   2 5017.67 1120.29   6
  -5   0   1 12526.7 1826.82   6
  -5   0   1 9636.80 1316.30   5
  -5   0   0 5054.70 1182.42   6
  -5   0  -1 14198.8 1972.10   6
  -5   0  -2 21621.4 2388.40   6
  -5   0  -2 21989.1 1621.95  21
  -5   0  -3 8295.77 832.408  16
  -5   0  -3 7633.10 1401.81   6
  -5   0  -3 10136.9 1139.35  21
  -5   0  -4 17631.2 1128.12  13
  -5   0  -4 16735.9 1928.20  24
  -5   0  -4 15778.3 1910.86   6
  -5   0  -5 6774.53 1253.77  24
  -5   0  -7 6757.35 706.836  20
  -5   0  -8 2114.47 298.628  20
   5   0   8 2531.89 338.186  11
  -5  -1  12 451.774 136.268   8
  -5  -1  11 428.483 133.902  12
  -5  -1  11 367.680 150.843   8
  -5  -1  10 182.991 113.507  12
  -5  -1  10 112.391 109.629   8
  -5  -1   9 8092.51 725.500  12
  -5  -1   9 9228.93 872.367   8
  -5  -1   8 20067.5 1157.41  12
  -5  -1   8 22340.3 1362.49   8
  -5  -1   7 2947.84 437.741  12
  -5  -1   7 3688.19 542.897   8
  -5  -1   6 19744.5 1065.84  12
  -5  -1   6 22213.2 1257.65   8
  -5  -1   4 23805.1 2076.09   6
  -5  -1   3 9477.17 1448.13   6
  -5  -1   2 12891.1 1790.97   6
  -5  -1   1 46442.3 3525.27   6
  -5  -1   0 74435.9 4548.52   6
  -5  -1  -1 60912.1 4151.84   6
  -5  -1  -1 52367.0 2433.95  21
  -5  -1  -2 5900.15 643.930  16
  -5  -1  -2 8419.28 1003.72  21
  -5  -1  -2 7776.56 1447.61   6
  -5  -1  -3 16237.8 1164.83  13
  -5  -1  -3 13556.8 1863.15   6
  -5  -1  -3 18122.5 1454.34  21
  -5  -1  -4 10968.5 894.302  13
  -5  -1  -5 1891.66 466.865  20
  -5  -1  -6 764.094 265.544  20
   5   1   7 133.309 133.602  11
  -5  -1  -7 576.229 181.165  20
   5   1   8 2333.13 254.760  11
  -5  -1  -8 900.082 141.262  20
   5   2 -12 7.61526 28.5403  18
  -5  -2  11 971.807 198.397  12
  -5  -2  11 1.25788 55.0944   8
  -5  -2  10 1230.40 264.193  12
  -5  -2  10 1164.06 269.391   8
  -5  -2   9 8288.67 760.188  12
  -5  -2   9 7537.06 724.762   8
  -5  -2   8 19211.7 1197.63  12
  -5  -2   8 17517.2 1127.93   8
  -5  -2   7 32882.3 1557.99  12
  -5  -2   6 16564.7 1073.62  12
  -5  -2   5 5735.55 609.149  12
  -5  -2   5 5573.07 691.572  21
  -5  -2   4 3636.54 475.905  12
  -5  -2   4 4237.66 624.897  21
  -5  -2   3 1218.37 340.784  21
  -5  -2   3 731.758 448.590   6
  -5  -2   2 1613.79 407.365  21
  -5  -2   2 928.844 493.610   6
  -5  -2   1 8128.78 1494.73   6
  -5  -2   1 8340.88 932.681  21
  -5  -2   0 8583.44 904.292  13
  -5  -2   0 8566.33 1568.84   6
  -5  -2   0 8452.37 957.550  21
  -5  -2   0 6430.82 767.380  20
  -5  -2  -1 20611.3 1399.33  13
  -5  -2  -1 20639.1 2438.55   6
  -5  -2  -1 22233.3 1585.25  21
  -5  -2  -1 18723.3 1350.19  20
  -5  -2  -2 37079.9 1833.22  13
  -5  -2  -2 37024.3 2039.81  21
  -5  -2  -2 35665.5 1947.51  20
  -5  -2  -3 15841.5 1150.13  13
  -5  -2  -3 15752.5 1269.93  21
  -5  -2  -3 15815.8 1301.00  20
  -5  -2  -4 5795.10 634.168  13
  -5  -2  -4 5899.49 756.428  20
  -5  -2  -5 70.6132 86.6269  20
  -5  -2  -6 301.841 148.805  20
   5   2   7 1521.24 229.331  11
  -5  -2  -7 1393.75 210.291  20
  -5  -3  11 1645.61 242.782  12
   5   3 -11 1915.46 326.580  18
  -5  -3  10 2308.60 352.894  12
  -5  -3   9 8637.13 765.398  12
  -5  -3   8 40360.4 1762.64  12
  -5  -3   7 26311.3 1452.24  12
  -5  -3   7 19712.6 1229.54  21
  -5  -3   6 7735.79 781.817  12
  -5  -3   6 7104.39 797.762  21
  -5  -3   5 1609.84 347.107  12
  -5  -3   5 1792.05 421.871  21
  -5  -3   4 4568.39 568.584  13
  -5  -3   4 6095.50 803.796  21
  -5  -3   3 5273.43 663.550  13
  -5  -3   3 6436.51 839.939  21
  -5  -3   3 4852.88 1076.96   6
  -5  -3   2 4794.90 668.765  13
  -5  -3   2 5112.92 750.300  21
  -5  -3   2 3428.47 953.647   6
  -5  -3   1 2586.42 502.692  13
  -5  -3   1 2328.20 515.371  21
  -5  -3   1 2093.84 792.608   6
  -5  -3   0 5826.13 756.892  13
  -5  -3   0 4922.24 652.965  20
  -5  -3   0 6129.35 843.625  21
  -5  -3  -1 34528.6 1811.36  13
  -5  -3  -1 32800.4 1875.01  21
  -5  -3  -1 30064.0 1671.36  20
  -5  -3  -2 41061.5 1894.47  13
  -5  -3  -2 35604.9 1848.67  21
  -5  -3  -2 39544.5 1925.69  20
  -5  -3  -3 10795.7 893.597  13
  -5  -3  -3 9346.62 852.380  21
  -5  -3  -3 10863.3 969.337  20
  -5  -3  -4 1316.49 320.999  20
  -5  -3  -5 210.228 127.378  20
  -5  -3  -6 1839.55 238.323  20
   5   4 -11 2487.49 305.731  18
  -5  -4  10 2950.09 360.261  12
  -5  -4   9 4197.57 496.205  12
  -5  -4   8 6862.74 697.400  12
  -5  -4   8 4392.58 494.525  21
  -5  -4   7 16282.8 1131.21  12
  -5  -4   7 13791.9 1033.23  21
  -5  -4   6 34912.1 1691.18  12
  -5  -4   6 32082.2 1729.84  21
  -5  -4   5 19727.1 1443.67  21
  -5  -4   4 576.844 220.048  13
  -5  -4   4 1002.87 347.554  21
  -5  -4   3 604.561 220.911  13
  -5  -4   3 495.585 266.678  21
  -5  -4   2 8886.27 892.267  13
  -5  -4   2 9922.69 1054.85  21
  -5  -4   1 30042.3 1677.13  13
  -5  -4   1 30582.9 1811.19  21
  -5  -4   0 24865.8 1513.62  13
  -5  -4   0 23656.1 1531.41  21
  -5  -4  -1 5467.61 678.664  13
  -5  -4  -1 4191.96 570.899  20
  -5  -4  -1 4848.69 647.246  21
  -5  -4  -2 2777.59 436.596  21
  -5  -4  -2 3310.77 478.845  20
  -5  -4  -3 2843.25 420.967  20
  -5  -4  -4 2689.53 341.118  20
  -5  -4  -5 1719.96 206.054  20
   5   5 -10 3548.95 338.605  18
   5   5  -9 1156.61 248.380  18
  -5  -5   8 1060.30 221.524  21
   5   5  -8 1223.57 291.717  18
  -5  -5   7 6543.69 657.451  21
   5   5  -7 6194.53 650.118  18
  -5  -5   6 7045.40 747.540  21
   5   5  -6 4810.87 560.063  18
  -5  -5   5 10487.2 980.841  21
  -5  -5   4 7846.39 868.256  21
  -5  -5   3 7160.74 840.582  21
  -5  -5   2 13255.5 1114.69  21
  -5  -5   1 15311.5 1141.33  21
  -5  -5   0 7969.53 750.982  21
  -5  -5   0 4935.27 490.613  20
  -5  -5  -1 1425.99 285.429  21
  -5  -5  -1 1287.38 253.495  20
  -5  -5  -2 1226.13 224.286  20
  -5  -5  -3 1945.95 232.629  20
  -5  -6   8 3024.99 265.454  21
  -5  -6   7 2037.67 303.271  21
  -5  -6   6 1410.02 291.695  21
  -5  -6   5 6019.36 626.090  21
  -5  -6   4 14435.3 998.781  21
  -5  -6   3 9197.21 787.974  21
  -5  -6   2 2593.85 399.148  21
  -5  -6   1 1172.26 242.053  21
  -5  -6   0 1967.42 246.527  21
  -5  -7   5 3577.47 312.120  21
  -5  -7   4 5590.59 394.268  21
   6 -12   1 2069.24 209.600   7
   6 -12   2 2371.10 230.146   7
   6 -11  -3 3861.76 346.253   7
   6 -11  -2 900.519 194.268   7
   6 -11  -1 40.9762 43.2142  15
   6 -11  -1 659.526 191.591   7
   6 -11   0 458.495 151.365  15
   6 -11   0 642.776 205.105   7
   6 -11   1 589.292 181.281  15
   6 -11   1 708.167 202.996   7
   6 -11   2 56.6397 78.8219  15
   6 -11   2 190.536 147.171   7
   6 -11   3 118.236 82.5876   7
   6 -11   4 102.274 104.988   7
   6 -10  -5 1178.81 208.524   7
   6 -10  -4 339.690 141.318   7
   6 -10  -3 5321.06 597.173   7
   6 -10  -2 12190.3 979.531   7
   6 -10  -2 12365.6 1707.59  22
   6 -10  -1 10143.1 958.456   7
   6 -10  -1 7447.43 709.776  15
   6 -10  -1 10712.1 1727.59  22
   6 -10   0 27163.5 1587.05   7
   6 -10   0 22604.2 1335.62  15
   6 -10   0 27758.1 2843.24  22
   6 -10   1 39603.1 1924.09   7
   6 -10   1 41575.4 3449.77  22
   6 -10   2 15336.2 1189.08   7
   6 -10   3 6346.50 744.011   7
   6 -10   3 4434.22 894.871  23
   6 -10   4 5620.15 665.853   7
   6 -10   4 5267.56 1012.65  23
   6 -10   5 2125.07 388.143   7
   6 -10   5 1665.60 545.271  23
   6 -10   6 525.640 251.338  23
   6 -10   6 51.2653 43.9320  19
   6 -10   7 1990.59 457.247  23
   6  -9  -7 11039.7 599.748   7
   6  -9  -6 14699.8 880.620   7
   6  -9  -5 6162.72 666.639   7
   6  -9  -5 3764.89 740.666  22
   6  -9  -4 258.303 314.064  22
   6  -9  -4 18.7783 115.248   7
   6  -9  -3 2546.85 526.288   7
   6  -9  -3 1926.65 752.665  22
   6  -9  -2 10716.8 1078.64   7
   6  -9  -2 10708.0 1891.17  22
   6  -9  -1 9190.98 1012.47   7
   6  -9  -1 7074.30 782.971  15
   6  -9  -1 9233.47 1823.65  22
   6  -9   0 4923.16 745.228   7
   6  -9   0 4612.62 1312.94  22
   6  -9   1 2446.52 520.631   7
   6  -9   1 2222.18 918.678  22
   6  -9   2 8266.69 934.939   7
   6  -9   2 8401.79 1606.65  22
   6  -9   3 7707.49 872.587   7
   6  -9   3 6468.71 1272.51  22
   6  -9   3 7188.07 775.177  17
   6  -9   4 2119.56 426.583  17
   6  -9   4 2284.75 468.061   7
   6  -9   5 513.884 200.806  17
   6  -9   5 478.527 218.746   7
   6  -9   6 7924.99 719.127  17
   6  -9   6 9735.97 1532.93  23
   6  -9   7 17789.6 957.446  17
   6  -9   7 20099.4 1913.28  23
   6  -9   8 11852.9 629.998  17
   6  -9   8 11943.3 1130.65  23
   6  -9   8 11352.2 612.437  19
   6  -8  -8 905.703 192.431   7
   6  -8  -7 1960.29 346.859   7
   6  -8  -6 884.298 284.052   7
   6  -8  -5 1221.23 355.104   7
   6  -8  -5 1182.14 517.606  22
   6  -8  -4 5202.67 756.752   7
   6  -8  -4 4911.60 1212.79  22
   6  -8  -3 9208.40 1026.19   7
   6  -8  -3 8891.80 1746.30  22
   6  -8  -2 41141.5 2190.15   7
   6  -8  -1 55744.5 2538.15   7
   6  -8   0 22378.8 1576.07   7
   6  -8   1 33358.4 1885.46   7
   6  -8   1 32885.6 3533.97  22
   6  -8   2 37330.4 1784.36  17
   6  -8   2 43365.8 2099.38   7
   6  -8   2 41863.5 3738.99  22
   6  -8   3 9171.48 898.842  17
   6  -8   3 10008.7 993.361   7
   6  -8   3 8704.75 1526.20  22
   6  -8   4 1811.38 419.509  17
   6  -8   4 1727.23 417.852   7
  -6   8  -4 1430.68 712.469  24
   6  -8   5 1882.85 401.596  17
   6  -8   5 1908.57 427.233   7
  -6   8  -5 1425.30 644.139  24
   6  -8   6 834.517 280.703  17
  -6   8  -6 400.259 324.686  24
   6  -8   7 3312.61 474.907  17
  -6   8  -7 1883.78 576.408  24
   6  -8   7 3770.42 935.331  23
   6  -8   8 3136.14 396.057  17
   6  -8   8 2672.64 633.163  23
   6  -8   9 388.242 102.868  17
   6  -8   9 514.410 123.502  19
   6  -7  -9 12985.9 725.682   7
   6  -7  -8 21794.1 1169.05   7
   6  -7  -7 7683.00 790.509   7
   6  -7  -6 1293.46 367.873   7
   6  -7  -6 598.398 352.453  22
   6  -7  -5 15532.7 1272.10   7
   6  -7  -4 9878.86 1025.09   7
   6  -7  -3 1436.31 387.384   7
   6  -7  -2 3298.00 591.418  10
   6  -7  -2 3633.91 627.832   7
  -6   7   2 2299.53 860.327   5
   6  -7  -1 4818.40 738.257  10
   6  -7  -1 4887.64 700.595   7
  -6   7   0 154.913 135.924  16
   6  -7   0 218.011 162.743   7
   6  -7   1 6457.10 761.399   7
   6  -7   2 1780.47 370.602  17
  -6   7  -2 1197.00 650.943   4
   6  -7   2 2265.26 441.950   7
   6  -7   2 1119.35 514.481   3
   6  -7   3 679.922 249.469  17
   6  -7   3 595.282 226.811   7
   6  -7   4 17588.3 1248.61  17
   6  -7   4 16690.0 1186.98   7
  -6   7  -4 18815.7 2568.79  24
   6  -7   5 10672.0 945.987   7
  -6   7  -5 15874.0 2278.82  24
  -6   7  -6 1871.11 744.772  24
  -6   7  -7 11155.7 1613.85  24
   6  -7   7 10922.1 1612.57  23
   6  -7   8 14746.8 953.001  17
  -6   7  -8 12595.5 1412.45  24
   6  -7   8 13663.3 1432.85  23
   6  -7   9 7645.60 535.903  17
   6  -6 -10 1870.08 257.839   7
   6  -6  -9 181.637 120.311   7
   6  -6  -8 448.911 187.808   7
   6  -6  -7 10368.8 971.968   7
   6  -6  -6 5886.16 767.247   7
   6  -6  -5 493.102 223.899   7
   6  -6  -5 590.106 239.152  10
   6  -6  -4 10141.6 975.587  10
   6  -6  -4 10435.8 1010.11   7
  -6   6   4 10683.2 1972.78   5
   6  -6  -3 30195.6 1665.31   7
   6  -6  -3 30589.3 1751.35  10
   6  -6  -2 37226.6 1790.86   7
   6  -6  -2 38933.4 1979.23  10
   6  -6  -1 62272.8 2473.40  10
  -6   6   1 69265.6 4521.77   5
  -6   6   0 58135.6 2251.03  16
   6  -6   0 64884.1 2503.22  10
  -6   6   0 69229.3 4312.21   5
  -6   6  -1 28215.7 1544.11  16
  -6   6  -1 31175.8 2904.00   5
  -6   6  -2 16501.3 1180.22  16
   6  -6   2 20364.3 1278.07  10
   6  -6   2 19841.2 2073.85   3
  -6   6  -3 7855.87 799.479  16
  -6   6  -4 175.306 128.559  16
  -6   6  -4 334.748 360.393  24
  -6   6  -5 2171.39 411.817  16
  -6   6  -5 3038.96 1069.87  24
  -6   6  -6 10157.8 1844.31  24
  -6   6  -7 1760.32 692.089  24
  -6   6  -8 405.607 325.205  24
   6  -6   8 391.975 222.035  23
   6  -5 -11 2928.67 275.820   7
   6  -5 -10 9392.94 690.024   7
  -6   5  10 5465.92 466.178   8
   6  -5  -9 4744.13 587.616   7
  -6   5   9 3451.49 469.975   8
  -6   5   8 14241.0 1050.49   8
  -6   5   7 41690.6 1888.42   8
   6  -5  -6 10285.4 986.390   7
  -6   5   6 8118.24 848.930   8
   6  -5  -6 8519.13 807.193  10
  -6   5   5 2759.61 1012.77   5
   6  -5  -5 2564.63 474.662   7
   6  -5  -5 2250.49 439.355  10
  -6   5   5 2907.73 508.720   8
   6  -5  -4 2195.20 415.547   7
   6  -5  -4 2649.43 496.836  10
  -6   5   4 2734.63 484.049   8
   6  -5  -3 5419.73 703.726  10
  -6   5   3 8016.32 1541.17   5
  -6   5   2 698.961 456.120   5
  -6   5   1 6436.76 1323.52   5
  -6   5   0 914.591 495.578   5
  -6   5  -1 3467.88 982.044   5
  -6   5  -2 6428.05 732.701  16
  -6   5  -3 619.782 224.815  16
  -6   5  -4 1308.77 343.566  16
  -6   5  -4 1500.46 699.318  24
  -6   5  -5 43329.3 1943.44  16
  -6   5  -5 54878.1 4394.35  24
  -6   5  -6 46816.1 3943.50  24
  -6   5  -7 7252.16 1429.17  24
   6  -5   7 5601.29 1012.73  23
  -6   5  -8 9331.30 1410.88  24
   6  -4 -11 417.919 136.222   7
  -6   4  11 421.569 127.404   8
  -6   4  10 2108.21 364.766   8
  -6   4   9 7862.66 784.526   8
  -6   4   8 584.346 240.494   8
  -6   4   7 5771.61 723.940   8
   6  -4  -6 9067.00 850.890  10
  -6   4   6 8626.56 875.464   8
  -6   4   6 9062.29 1777.25   5
   6  -4  -5 15050.3 1142.86  10
  -6   4   5 15571.4 1130.05   8
   6  -4  -5 11750.4 916.771  18
   6  -4  -4 20120.0 1330.28  10
  -6   4   4 29201.6 2928.51   5
  -6   4   3 41068.2 3322.94   5
  -6   4   2 52822.9 3728.58   5
  -6   4   1 38431.3 3122.02   5
  -6   4   0 35947.2 2962.87   5
  -6   4  -1 36979.8 3092.61   5
  -6   4  -2 13347.2 1050.91  16
  -6   4  -3 4142.67 607.849  16
  -6   4  -3 4464.66 1204.56  24
   6  -4   3 3368.72 847.459   2
  -6   4  -4 4103.12 616.254  16
  -6   4  -4 4588.29 1236.62  24
   6  -4   4 2519.89 776.304   2
  -6   4  -4 1998.01 756.236   6
  -6   4  -5 3104.91 540.809  16
  -6   4  -5 3213.74 1066.83  24
  -6   4  -6 1203.57 647.336  24
  -6   4  -7 9099.51 1569.01  24
  -6   4  -8 1895.07 632.937  24
  -6   3  12 3027.34 267.217   8
  -6   3  11 5378.88 518.296   8
  -6   3  10 19382.2 1165.01   8
  -6   3   9 22813.2 1403.06   8
  -6   3   8 964.599 326.466   8
  -6   3   7 3345.06 1027.93   5
  -6   3   7 3839.83 595.104   8
   6  -3  -7 3398.17 512.917  18
   6  -3  -6 42357.8 1898.20  10
  -6   3   6 44122.1 1954.36   8
   6  -3  -6 35957.9 1725.39  18
  -6   3   6 50490.4 4002.19   5
   6  -3  -5 21654.7 1401.30  10
  -6   3   5 21527.6 1317.37   8
   6  -3  -5 19026.5 1269.05  18
  -6   3   4 2146.34 780.164   5
  -6   3   3 11947.8 1752.07   5
  -6   3   2 6669.49 1299.03   5
  -6   3   1 7055.48 1300.24   5
  -6   3   0 9351.03 1506.04   5
  -6   3  -1 540.359 309.581   5
  -6   3  -2 21750.9 1352.96  16
  -6   3  -3 56122.1 2273.20  16
  -6   3  -3 55634.6 3998.79  24
  -6   3  -4 11484.9 1064.83  16
  -6   3  -4 10900.4 1838.99  24
  -6   3  -4 6847.00 1353.90   6
  -6   3  -5 1966.00 442.613  16
  -6   3  -5 2126.99 833.034  24
  -6   3  -6 23362.7 2653.37  24
  -6   3  -7 22155.7 2320.30  24
  -6   2  12 171.653 86.4813   8
  -6   2  11 1110.24 260.973   8
  -6   2  10 7577.15 750.810   8
  -6   2   9 2590.83 488.205   8
   6  -2  -9 1228.65 292.820  18
  -6   2   8 5879.17 741.978   8
   6  -2  -8 5487.59 680.452  18
  -6   2   7 3529.91 1056.38   5
   6  -2  -7 4127.57 585.467  10
  -6   2   7 4998.16 677.709   8
   6  -2  -7 4367.33 636.069  18
  -6   2   6 11005.5 968.581   8
   6  -2  -6 9640.72 950.344  10
  -6   2   6 10780.7 1770.77   5
   6  -2  -6 9252.61 952.624  18
   6  -2  -5 20623.3 1413.63  10
  -6   2   5 18859.5 1217.87   8
  -6   2   5 23846.0 2546.86   5
   6  -2  -5 20810.9 1432.87  18
  -6   2   4 34359.0 3059.29   6
  -6   2   4 40882.0 3233.12   5
  -6   2   3 44089.1 3293.41   5
  -6   2   2 35734.5 2891.77   5
  -6   2   1 40816.3 3105.47   5
  -6   2   0 31855.3 3465.91   6
  -6   2   0 31399.9 2766.93   5
  -6   2  -1 19668.8 2671.28   6
  -6   2  -2 12406.0 1035.06  16
  -6   2  -2 15442.4 1514.27  21
  -6   2  -2 16253.6 2352.97   6
  -6   2  -3 6862.78 802.398  16
  -6   2  -3 5710.72 1246.12  24
  -6   2  -3 7259.41 1462.08   6
  -6   2  -4 2647.58 521.769  16
  -6   2  -4 2086.65 757.545  24
  -6   2  -5 4291.26 1127.24  24
  -6   2  -6 4827.42 1111.18  24
  -6   2  -7 1960.39 597.225  24
  -6   2  -8 99.6958 71.1426  20
  -6   1  12 3330.71 335.300   8
  -6   1  11 8394.50 686.144   8
  -6   1  10 6920.56 714.896   8
   6  -1 -10 5548.39 577.730  18
  -6   1   9 33391.5 1703.10   8
   6  -1  -9 25030.8 1457.99  18
  -6   1   8 47520.9 2099.02   8
   6  -1  -8 40133.6 2023.09  18
   6  -1  -7 1173.43 318.880  10
  -6   1   7 1066.65 310.780   8
   6  -1  -7 1431.91 398.077  18
  -6   1   6 3066.43 910.805   5
  -6   1   6 3830.23 579.607   8
   6  -1  -6 4653.46 734.474  18
  -6   1   5 3853.60 967.469   5
  -6   1   5 4007.71 562.305   8
   6  -1  -5 5729.27 801.217  18
  -6   1   4 3281.08 891.101   5
  -6   1   4 3397.61 935.480   6
  -6   1   4 2678.09 449.421   8
   6  -1  -4 3763.08 641.810  18
  -6   1   3 2498.20 762.083   5
  -6   1   3 2718.93 863.515   6
  -6   1   2 6996.30 1503.21   6
  -6   1   2 5633.39 1108.80   5
  -6   1   1 366.812 297.211   5
  -6   1   1 239.621 187.158   6
  -6   1   0 6990.59 928.722  21
  -6   1   0 6782.13 1516.54   6
  -6   1  -1 6858.70 730.959  16
  -6   1  -1 9487.31 1130.09  21
  -6   1  -1 7645.63 1567.80   6
  -6   1  -2 2464.07 461.226  16
  -6   1  -2 3349.69 711.747  21
  -6   1  -2 3003.95 970.303   6
  -6   1  -3 9707.70 951.989  16
  -6   1  -3 8329.67 1520.72   6
  -6   1  -3 6962.04 1289.74  24
  -6   1  -4 51459.1 2201.50  16
  -6   1  -4 41144.7 3115.10  24
  -6   1  -5 20572.8 2148.92  24
   6  -1   6 4225.61 492.178  11
  -6   1  -7 7157.34 645.467  20
  -6   1  -8 1617.32 201.645  20
  -6   0  12 2494.70 266.450   8
  -6   0  11 965.492 226.007   8
   6   0 -11 405.466 130.003  18
  -6   0  10 1249.62 318.898   8
   6   0 -10 938.902 272.712  18
  -6   0   9 6698.42 750.473   8
   6   0  -9 5161.48 728.502  18
   6   0  -8 3603.40 554.143  10
  -6   0   8 6838.25 781.780   8
  -6   0   7 853.083 294.571   8
  -6   0   6 10395.8 950.815   8
  -6   0   5 21701.9 1339.16   8
   6   0  -5 31259.5 1992.42  18
  -6   0   4 26992.1 1459.75   8
   6   0  -4 41729.2 2220.26  18
  -6   0   3 55468.3 3774.01   6
  -6   0   3 44359.1 2007.90  21
  -6   0   3 42408.9 1776.55   8
  -6   0   3 49433.8 3140.24   5
   6   0  -3 52238.8 2354.60  18
  -6   0   2 63471.5 2556.35  21
  -6   0   2 58803.5 2017.54   8
  -6   0   2 57349.0 3394.91   5
   6   0  -2 56902.1 2303.92  18
  -6   0   1 35430.1 3315.30   6
  -6   0   1 34906.6 2006.68  21
  -6   0   0 28633.0 2989.29   6
  -6   0   0 32117.7 2001.97  21
  -6   0  -1 7471.63 744.770  16
  -6   0  -1 9282.01 1693.81   6
  -6   0  -1 10128.9 1172.77  21
  -6   0  -2 1179.96 305.603  16
  -6   0  -2 1819.99 518.038  21
  -6   0  -2 1055.77 553.267   6
  -6   0  -3 1255.02 323.424  13
  -6   0  -3 1192.89 408.255  21
  -6   0  -4 7820.39 717.199  13
  -6   0  -5 745.998 285.228  20
  -6   0  -6 691.090 232.890  20
   6   0   7 30.6246 36.9092  11
  -6   0  -7 1726.75 257.969  20
  -6  -1  11 10849.9 653.723   8
   6   1 -11 11239.6 709.173  18
  -6  -1  10 9899.98 767.095   8
   6   1 -10 8985.87 821.134  18
  -6  -1   9 459.975 164.218  12
  -6  -1   9 322.242 163.859   8
  -6  -1   8 3278.67 418.252  12
  -6  -1   8 3555.85 543.474   8
  -6  -1   7 10952.4 774.840  12
  -6  -1   7 12704.8 1024.17   8
  -6  -1   6 168.544 130.768  12
  -6  -1   6 82.2125 74.9768   8
  -6  -1   5 2840.86 394.926  12
  -6  -1   5 3333.86 504.816   8
  -6  -1   4 4260.82 624.939  21
  -6  -1   4 4278.15 558.778   8
   6   1  -4 4775.29 775.267  18
  -6  -1   3 828.834 301.758  21
  -6  -1   3 393.440 313.834   6
  -6  -1   3 725.066 215.915   8
   6   1  -3 925.559 316.026  18
  -6  -1   2 5696.60 792.436  21
  -6  -1   2 4369.64 1110.17   6
   6   1  -2 3781.54 574.753  18
  -6  -1   1 5590.93 795.616  21
  -6  -1   1 5395.70 1249.07   6
  -6  -1   0 1775.66 470.529  21
  -6  -1   0 1531.89 673.531   6
  -6  -1  -1 5838.63 612.769  16
  -6  -1  -1 9911.36 1123.91  21
  -6  -1  -2 21617.1 1405.06  13
  -6  -1  -2 22655.2 1651.83  21
  -6  -1  -2 20109.2 1455.90  20
  -6  -1  -3 3965.79 552.295  13
  -6  -1  -3 4008.19 662.779  21
  -6  -1  -3 4275.89 661.527  20
  -6  -1  -4 4947.64 530.669  13
  -6  -1  -4 5984.60 737.751  20
  -6  -1  -5 17390.5 1076.85  20
   6   1   6 7596.28 533.191  11
  -6  -1  -6 9404.81 639.927  20
  -6  -1  -7 2244.03 196.868  20
   6   2 -11 1422.30 245.428  18
  -6  -2  10 1093.04 188.760  12
   6   2 -10 1710.24 343.917  18
  -6  -2   9 649.215 176.969  12
   6   2  -9 1097.37 336.127  18
  -6  -2   8 2042.51 336.516  12
  -6  -2   7 4266.27 508.447  12
  -6  -2   6 9439.51 777.948  12
  -6  -2   6 7865.46 771.092  21
  -6  -2   5 37245.9 1819.30  21
   6   2  -5 39646.2 2278.13  18
  -6  -2   4 33434.8 1624.13  13
  -6  -2   4 38396.4 1960.07  21
   6   2  -4 34706.7 1998.63  18
  -6  -2   3 14238.7 1140.06  13
  -6  -2   3 15300.5 1288.74  21
   6   2  -3 12043.1 1059.78  18
  -6  -2   2 30536.1 1730.29  13
  -6  -2   2 31936.4 1900.70  21
  -6  -2   1 29585.5 1753.66  13
  -6  -2   1 29732.5 1884.92  21
  -6  -2   0 4298.39 664.143  13
  -6  -2   0 4900.09 768.303  21
  -6  -2   0 3444.90 522.629  20
  -6  -2  -1 1858.66 427.749  13
  -6  -2  -1 1987.62 470.223  21
  -6  -2  -1 1653.48 388.164  20
  -6  -2  -2 1029.63 300.800  13
  -6  -2  -2 1031.65 338.778  21
  -6  -2  -2 1058.72 307.400  20
  -6  -2  -3 1579.27 329.960  13
  -6  -2  -3 1479.76 354.409  20
  -6  -2  -4 3687.08 484.519  20
  -6  -2  -5 1362.93 242.899  20
  -6  -2  -6 339.698 86.0447  20
   6   3 -11 9367.08 510.901  18
   6   3 -10 12756.6 816.945  18
   6   3  -9 5877.20 669.148  18
   6   3  -8 683.667 288.361  18
  -6  -3   7 595.116 196.188  21
   6   3  -7 336.510 229.257  18
  -6  -3   6 5522.50 649.649  21
   6   3  -6 5954.15 805.926  18
  -6  -3   5 6698.58 781.752  21
   6   3  -5 5935.29 783.518  18
  -6  -3   4 3636.06 497.110  13
  -6  -3   4 4851.10 696.517  21
  -6  -3   3 637.363 256.204  13
  -6  -3   3 719.820 285.997  21
  -6  -3   2 6384.61 751.165  13
  -6  -3   2 6623.17 856.656  21
  -6  -3   1 7758.53 836.937  13
  -6  -3   1 7911.01 909.693  21
  -6  -3   0 3618.51 552.383  13
  -6  -3   0 3413.80 586.794  21
  -6  -3   0 2775.08 417.681  20
  -6  -3  -1 1086.86 299.193  13
  -6  -3  -1 863.783 303.377  21
  -6  -3  -1 611.844 194.025  20
  -6  -3  -2 7766.70 695.225  13
  -6  -3  -2 6606.53 667.181  21
  -6  -3  -2 6115.75 604.228  20
  -6  -3  -3 14525.8 848.933  20
  -6  -3  -4 8517.90 537.181  20
   6   4 -10 1493.79 204.280  18
   6   4  -9 750.270 198.749  18
   6   4  -8 1880.79 335.238  18
  -6  -4   7 8397.49 648.028  21
   6   4  -7 6640.30 661.655  18
  -6  -4   6 9427.09 795.752  21
   6   4  -6 5563.78 595.812  18
  -6  -4   5 13921.8 1047.14  21
  -6  -4   4 26325.4 1192.89  13
  -6  -4   4 36659.4 1785.75  21
  -6  -4   3 22431.0 1198.94  13
  -6  -4   3 25617.1 1532.40  21
  -6  -4   2 6433.00 672.951  13
  -6  -4   2 6956.68 793.413  21
  -6  -4   1 4622.14 562.977  13
  -6  -4   1 4856.84 638.335  21
  -6  -4   0 2325.62 393.456  13
  -6  -4   0 2340.29 406.771  21
  -6  -4  -1 32.8778 81.0005  21
  -6  -4  -1 4.25161 42.6632  20
  -6  -4  -2 1898.38 239.773  20
  -6  -5   7 353.543 122.483  21
  -6  -5   6 718.526 196.765  21
  -6  -5   5 807.401 217.049  21
  -6  -5   4 970.433 252.983  21
  -6  -5   3 44.8860 101.032  21
  -6  -5   2-2.04857 70.2786  21
  -6  -5   1 646.633 178.247  21
  -6  -5   0 3653.56 340.711  21
  -6  -6   4 1660.63 208.696  21
   7 -11  -3 4346.10 346.599   7
   7 -11  -2 2341.86 293.900   7
   7 -11  -1 697.559 177.988   7
   7 -11   0 3438.22 406.822   7
   7 -11   1 2320.56 340.544   7
   7 -11   2 81.8689 49.7222  15
   7 -11   2 849.844 205.753   7
   7 -11   3 1370.96 240.415   7
   7 -11   3-39.0744 32.9212  15
   7 -11   4 2253.47 267.285   7
   7 -10  -5 4966.86 408.057   7
   7 -10  -4 3595.68 415.717   7
   7 -10  -3 10523.4 792.090   7
   7 -10  -3 10069.8 1331.86  22
   7 -10  -2 5475.44 610.437   7
   7 -10  -2 5043.35 1042.89  22
   7 -10  -1 12270.3 964.518   7
   7 -10  -1 13162.4 1792.94  22
   7 -10   0 17195.2 1146.93   7
   7 -10   0 17088.5 2069.81  22
   7 -10   1 14817.9 1059.38   7
   7 -10   1 14304.3 1830.57  22
   7 -10   2 11086.6 882.814   7
   7 -10   2 10368.2 1409.19  22
   7 -10   3 8951.13 759.676   7
   7 -10   4 8533.13 677.830   7
   7 -10   4 9278.98 1249.78  23
   7 -10   5 3809.48 730.035  23
   7 -10   6 4129.31 652.773  23
   7  -9  -7 1035.11 169.783   7
   7  -9  -6 2835.30 360.532   7
   7  -9  -5 4548.51 533.005   7
   7  -9  -5 3129.49 687.704  22
   7  -9  -4 8070.03 782.128   7
   7  -9  -4 7714.08 1282.58  22
  -7   9   3 5499.57 668.014  16
   7  -9  -3 8330.82 848.914   7
   7  -9  -3 9317.97 1599.21  22
   7  -9  -2 6210.30 761.333   7
   7  -9  -2 6536.99 1461.87  22
   7  -9  -1 12279.8 1084.15   7
   7  -9  -1 12712.2 2033.72  22
   7  -9   0 10365.5 980.185   7
   7  -9   0 10914.0 1892.75  22
   7  -9   1 16698.8 1217.48   7
   7  -9   1 18404.6 2377.10  22
   7  -9   2 5631.56 680.708   7
   7  -9   2 6036.01 1239.30  22
   7  -9   3 5147.36 623.452   7
  -7   9  -3 7320.39 1397.07  24
   7  -9   4 6067.21 592.680  17
   7  -9   4 6069.99 638.074   7
  -7   9  -4 7195.59 1294.71  24
   7  -9   5 2141.00 337.522  17
  -7   9  -5 2366.49 657.791  24
   7  -9   6 1590.06 255.703  17
   7  -9   6 2308.61 643.013  23
   7  -9   7 1702.49 432.242  23
   7  -8  -8 3149.74 317.820   7
   7  -8  -7 190.217 126.143   7
   7  -8  -6 10028.8 831.082   7
   7  -8  -6 7608.02 1059.20  22
   7  -8  -5 10741.5 945.153   7
   7  -8  -5 9852.47 1504.71  22
   7  -8  -4 9792.42 960.589   7
   7  -8  -3 26247.4 1617.88   7
  -7   8   2 14194.2 1241.89  16
   7  -8  -2 14918.1 1232.82   7
  -7   8   1 17308.9 1338.85  16
   7  -8  -1 15628.0 1245.60   7
  -7   8   0 7709.71 858.785  16
   7  -8   0 11789.7 1047.61   7
   7  -8   1 21694.4 1381.72   7
   7  -8   2 13197.4 1042.22   7
   7  -8   2 14654.1 2053.33  22
   7  -8   3 13541.9 951.391  17
   7  -8   3 13972.0 1026.58   7
   7  -8   4 8002.67 726.877  17
   7  -8   4 7078.29 693.910   7
  -7   8  -4 7958.11 1547.40  24
   7  -8   5 13888.4 929.677  17
  -7   8  -5 9932.51 1596.98  24
   7  -8   6 4570.56 498.552  17
  -7   8  -6 2791.60 755.861  24
   7  -8   7 555.453 154.716  17
   7  -8   7 705.516 338.683  23
  -7   8  -7 918.478 354.175  24
   7  -7  -9 2157.69 257.329   7
   7  -7  -8 6190.51 562.041   7
   7  -7  -7 12353.6 912.210   7
   7  -7  -6 15633.9 1130.86   7
   7  -7  -5 18513.2 1303.03   7
   7  -7  -4 6911.35 820.821   7
   7  -7  -4 6920.44 820.560  10
   7  -7  -3 23247.4 1504.13   7
   7  -7  -3 24295.0 1630.87  10
   7  -7  -2 12420.8 1082.09   7
   7  -7  -2 13509.5 1241.02  10
  -7   7   1 3916.20 650.425  16
   7  -7  -1 3511.41 559.107   7
   7  -7  -1 3779.66 653.324  10
  -7   7   0 2366.91 499.682  16
   7  -7   0 2537.60 467.791   7
   7  -7   0 2638.04 540.122  10
  -7   7  -1 12578.7 1107.53  16
  -7   7  -2 20768.5 1364.00  16
   7  -7   3 2871.78 437.492  17
  -7   7  -3 4042.87 569.194  16
   7  -7   4 10844.8 870.336  17
  -7   7  -4 13111.9 961.150  16
   7  -7   5 7378.41 709.691  17
  -7   7  -5 11790.7 1868.31  24
   7  -7   6 5588.06 585.855  17
  -7   7  -6 6697.40 1279.91  24
   7  -7   7 7110.00 585.858  17
  -7   7  -7 7805.15 1160.03  24
   7  -7   7 7413.73 1036.12  23
   7  -7   8 3804.70 327.762  17
   7  -6 -10 896.192 141.816   7
   7  -6  -9 2310.00 321.671   7
   7  -6  -8 11028.8 819.971   7
   7  -6  -7 5768.22 659.306   7
   7  -6  -6 15263.9 1137.30   7
   7  -6  -6 14964.5 1081.44  10
   7  -6  -5 9967.06 939.914   7
   7  -6  -5 10648.5 996.362  10
   7  -6  -4 23016.0 1417.87   7
   7  -6  -4 24210.3 1597.09  10
   7  -6  -3 7736.88 804.392   7
   7  -6  -3 8843.43 991.162  10
   7  -6  -2 39994.2 2102.36  10
  -7   6   2 30292.2 3165.88   5
  -7   6   1 34530.7 1888.10  16
   7  -6  -1 37081.6 1998.94  10
  -7   6   1 31571.8 3090.75   5
  -7   6   0 42335.5 2064.11  16
   7  -6   0 35564.2 1903.39  10
  -7   6   0 37815.8 3373.62   5
  -7   6  -1 9060.99 935.418  16
   7  -6   1 10106.8 974.147  10
  -7   6  -1 7689.70 1491.38   5
  -7   6  -2 28640.3 1641.02  16
  -7   6  -3 8308.48 859.646  16
  -7   6  -3 9661.65 1832.88  24
  -7   6  -4 7892.83 810.139  16
  -7   6  -4 8983.29 1736.26  24
  -7   6  -5 8210.57 773.153  16
  -7   6  -5 10626.4 1791.32  24
  -7   6  -6 9068.26 1541.45  24
  -7   6  -7 5055.23 993.200  24
   7  -6   7 4480.54 750.607  23
   7  -6   8 464.830 127.908  17
  -7   6  -8 1344.58 396.990  24
   7  -5 -10 724.359 153.842   7
  -7   5  10 561.447 140.943   8
   7  -5  -9 4786.48 490.209   7
  -7   5   9 3037.40 416.676   8
   7  -5  -8 2440.44 407.720   7
  -7   5   8 1877.24 370.333   8
   7  -5  -7 4799.01 600.047   7
   7  -5  -7 4938.19 579.067  10
  -7   5   7 6621.07 760.650   8
   7  -5  -6 29453.8 1514.71   7
   7  -5  -6 33067.6 1692.47  10
  -7   5   6 32168.9 1770.92   8
   7  -5  -5 32624.4 1786.12  10
  -7   5   5 27489.5 1640.67   8
  -7   5   4 24455.3 1551.83   8
  -7   5   4 26472.3 3002.96   5
  -7   5   3 5248.42 1295.21   5
  -7   5   3 4084.52 624.384   8
   7  -5  -2 13095.0 1200.69  10
  -7   5   2 15798.2 1193.88   8
  -7   5   2 15434.6 2216.69   5
  -7   5   1 23666.0 1530.73  16
   7  -5  -1 22176.9 1521.30  10
  -7   5   1 22560.3 1412.01   8
  -7   5   1 25027.0 2698.89   5
  -7   5   0 8906.37 932.702  16
   7  -5   0 8647.58 925.537  10
  -7   5   0 9422.84 1658.76   5
  -7   5  -1 24854.3 1555.86  16
  -7   5  -1 25084.6 2702.32   5
  -7   5  -2 35476.3 1839.76  16
  -7   5  -3 31768.1 1726.30  16
  -7   5  -3 33122.1 3311.63  24
  -7   5  -4 24347.1 1487.94  16
  -7   5  -4 27581.0 2991.83  24
  -7   5  -5 3725.19 549.315  16
  -7   5  -5 4093.42 1122.86  24
  -7   5  -6 1295.85 579.601  24
  -7   5  -7 889.611 458.163  24
  -7   4  11 115.688 63.2481   8
   7  -4 -10 836.758 173.121   7
  -7   4  10 1124.96 243.762   8
   7  -4  -9 1676.52 300.836   7
  -7   4   9 1486.70 347.190   8
   7  -4  -8 7613.15 688.464   7
  -7   4   8 12139.1 1016.90   8
   7  -4  -7 21926.8 1306.31  10
  -7   4   7 26994.8 1607.09   8
   7  -4  -6 12450.6 1082.57  10
  -7   4   6 13377.4 1156.94   8
   7  -4  -5 43889.9 2123.84  10
  -7   4   5 35170.5 1861.91   8
  -7   4   5 38914.1 3570.31   5
   7  -4  -5 36602.3 1810.43  18
   7  -4  -4 64619.7 2618.97  10
  -7   4   4 62620.2 4457.58   5
   7  -4  -4 57694.3 2367.97  18
   7  -4  -3 8184.96 925.037  10
  -7   4   3 10147.0 977.131   8
   7  -4  -3 7876.40 901.756  18
  -7   4   2 23797.0 1509.14  16
   7  -4  -2 18847.7 1416.40  10
  -7   4   2 23779.0 1471.77   8
  -7   4   2 25403.0 2735.52   5
   7  -4  -2 19988.6 1440.54  18
  -7   4   1 27467.9 1606.55  16
   7  -4  -1 30169.6 1746.80  10
  -7   4   1 26395.1 1523.07   8
  -7   4   1 27974.8 2820.68   5
  -7   4   0 14929.8 1181.37  16
   7  -4   0 17295.2 1277.75  10
  -7   4   0 16166.2 2171.36   5
  -7   4  -1 50456.7 2190.78  16
   7  -4   1 34043.6 1698.10  10
  -7   4  -2 39894.5 1947.27  16
  -7   4  -2 25614.1 3127.18   6
  -7   4  -3 15629.0 1224.71  16
  -7   4  -3 15120.4 2163.31  24
  -7   4  -4 26044.9 1574.78  16
  -7   4  -4 27532.0 2930.62  24
  -7   4  -5 6038.85 710.689  16
  -7   4  -5 5976.38 1287.34  24
  -7   4  -6 8779.09 1428.94  24
  -7   4  -7 2412.32 652.255  24
  -7   4  -8 93.2241 55.7822  20
  -7   3  11 538.215 140.341   8
  -7   3  10 3388.71 452.380   8
  -7   3   9 2524.81 451.675   8
  -7   3   8 23938.6 1467.97   8
   7  -3  -8 19713.6 1157.23  18
   7  -3  -7 26837.9 1520.55  10
  -7   3   7 25042.8 1568.43   8
   7  -3  -7 23223.8 1411.27  18
   7  -3  -6 16355.0 1280.66  10
  -7   3   6 13865.8 1180.87   8
   7  -3  -6 14882.0 1206.94  18
   7  -3  -5 57511.7 2519.67  10
  -7   3   5 55512.3 2325.54   8
  -7   3   5 57514.2 4210.95   5
   7  -3  -5 52101.1 2333.78  18
   7  -3  -4 32513.3 1924.67  10
  -7   3   4 32845.4 1778.32   8
   7  -3  -4 32705.7 1872.85  18
  -7   3   3 14950.3 1177.76  16
   7  -3  -3 18061.8 1449.83  10
  -7   3   3 13496.9 1116.73   8
  -7   3   3 16505.4 2216.47   5
   7  -3  -3 20415.6 1488.81  18
  -7   3   2 18525.3 1299.11  16
   7  -3  -2 17346.2 1377.81  10
  -7   3   2 18181.0 1264.10   8
  -7   3   2 19876.3 2335.94   5
   7  -3  -2 19759.3 1459.30  18
  -7   3   1 39391.6 1882.76  16
  -7   3   1 39387.2 1856.64   8
  -7   3   1 42022.6 3446.54   5
   7  -3  -1 33068.8 1842.62  18
  -7   3   0 17592.4 1271.43  16
   7  -3   0 15392.7 1224.17  10
  -7   3   0 19103.9 2887.97   6
  -7   3   0 19271.5 2337.49   5
  -7   3  -1 69455.4 2542.95  16
  -7   3  -1 57363.1 4795.26   6
  -7   3  -2 27278.9 1619.53  16
  -7   3  -2 23622.9 2541.86  24
  -7   3  -2 22283.0 2816.86   6
  -7   3  -3 19577.1 1383.48  16
  -7   3  -3 16168.9 2127.78  24
  -7   3  -4 21609.5 1426.36  16
  -7   3  -4 21010.1 2397.48  24
  -7   3  -5 3165.01 875.888  24
  -7   3  -6 3449.55 828.551  24
  -7   2  11 1295.89 240.022   8
  -7   2  10 2063.49 369.255   8
  -7   2   9 3124.95 500.579   8
   7  -2  -9 1385.87 309.587  18
   7  -2  -8 5154.44 607.025  10
  -7   2   8 5140.19 690.704   8
   7  -2  -8 5536.66 691.531  18
   7  -2  -7 34757.0 1838.30  10
  -7   2   7 33126.4 1785.57   8
   7  -2  -7 33703.7 1852.07  18
   7  -2  -6 29136.2 1804.46  10
  -7   2   6 29625.4 1721.58   8
   7  -2  -6 28529.0 1796.61  18
   7  -2  -5 25143.4 1730.59  10
  -7   2   5 31288.0 1752.47   8
  -7   2   5 32568.0 3062.60   5
   7  -2  -5 28098.9 1822.41  18
  -7   2   4 8399.76 854.090  16
   7  -2  -4 5812.25 833.515  10
  -7   2   4 7727.23 864.509   8
  -7   2   4 7891.49 1495.63   5
   7  -2  -4 6280.86 866.204  18
  -7   2   3 13099.8 1053.97  16
   7  -2  -3 13164.8 1270.21  10
  -7   2   3 11973.9 1973.22   6
  -7   2   3 12464.4 1054.13   8
  -7   2   3 14044.4 1915.49   5
   7  -2  -3 16447.9 1376.88  18
  -7   2   2 18101.3 1240.65  16
   7  -2  -2 16295.1 1384.58  10
  -7   2   2 13902.3 1198.05  21
  -7   2   2 18134.5 2570.66   6
  -7   2   2 21015.1 1333.92   8
  -7   2   2 18797.8 2257.69   5
   7  -2  -2 17840.2 1398.55  18
  -7   2   1 7874.21 824.958  16
   7  -2  -1 6338.39 843.454  10
  -7   2   1 7607.01 961.467  21
  -7   2   1 8916.76 1857.23   6
  -7   2   1 8346.19 843.984   8
  -7   2   1 7967.05 1440.68   5
   7  -2  -1 7161.20 850.192  18
  -7   2   0 17834.0 1251.66  16
   7  -2   0 19438.0 1394.03  10
  -7   2   0 19874.7 1645.31  21
  -7   2   0 17426.4 2579.82   6
  -7   2  -1 32564.4 1718.49  16
  -7   2  -1 35985.3 2302.32  21
  -7   2  -1 30806.1 3328.21   6
  -7   2  -2 31944.4 1730.31  16
  -7   2  -2 25583.3 2439.61  24
  -7   2  -3 24804.3 1527.43  16
  -7   2  -3 19101.4 2123.67  24
  -7   2  -4 4829.88 635.081  16
  -7   2  -4 3842.59 929.745  24
  -7   2  -5 1095.51 452.117  24
  -7   2  -7 896.695 181.837  20
  -7   1  11 152.239 97.0395   8
  -7   1  10 13664.4 906.680   8
   7  -1 -10 13636.5 820.748  18
  -7   1   9 7627.93 766.400   8
   7  -1  -9 6981.97 731.114  18
   7  -1  -8 7216.00 754.738  10
   7  -1  -8 8214.54 898.611  18
   7  -1  -7 11203.4 1071.81  10
  -7   1   7 11917.7 1072.89   8
   7  -1  -7 11964.3 1171.73  18
   7  -1  -6 17031.0 1419.65  10
   7  -1  -6 18322.2 1508.58  18
  -7   1   5 19438.0 1372.12   8
   7  -1  -5 28922.6 1935.76  18
  -7   1   4 11295.8 1014.35   8
   7  -1  -4 11957.0 1227.87  18
  -7   1   3 38339.0 1692.42  16
  -7   1   3 42976.9 3589.49   6
  -7   1   3 47836.6 2014.31   8
  -7   1   3 41771.9 3188.44   5
   7  -1  -3 46257.7 2348.03  18
  -7   1   3 39329.5 1942.93  21
  -7   1   2 32640.7 1559.55  16
  -7   1   2 35878.2 2008.34  21
  -7   1   2 33065.5 3317.28   6
  -7   1   2 37566.4 1780.18   8
  -7   1   2 31486.3 2747.74   5
  -7   1   1 9763.87 868.872  16
  -7   1   1 11786.0 1223.92  21
  -7   1   1 9391.94 1804.76   6
   7  -1  -1 12613.3 1082.87  18
  -7   1   0 27963.0 1496.07  16
  -7   1   0 35166.4 2191.11  21
  -7   1   0 28411.5 3088.44   6
  -7   1  -1 18912.1 1256.98  16
  -7   1  -1 23962.5 1834.19  21
  -7   1  -2 14324.7 1096.90  16
  -7   1  -3 10700.3 929.460  16
  -7   1  -4 4531.32 485.656  13
  -7   1  -5 9125.06 814.879  20
  -7   1  -6 110.456 72.9337  20
  -7   1  -7 752.227 123.326  20
  -7   0  11 2021.51 246.206   8
   7   0 -11 2359.94 241.454  18
  -7   0  10 5759.86 547.771   8
   7   0 -10 5819.57 561.553  18
  -7   0   9 8422.15 769.865   8
   7   0  -9 8126.97 802.605  18
   7   0  -8 10026.9 900.313  10
   7   0  -8 11540.6 1087.91  18
   7   0  -7 8108.48 916.897  10
   7   0  -7 9685.85 1090.42  18
  -7   0   6 8778.02 884.914   8
   7   0  -6 9582.74 1113.27  18
  -7   0   5 19071.1 1279.75   8
   7   0  -5 23772.9 1764.72  18
  -7   0   4 5666.76 709.134  21
  -7   0   4 6849.20 755.479   8
   7   0  -4 7233.64 963.884  18
  -7   0   3 3012.33 545.797  21
  -7   0   3 3219.49 515.175   8
   7   0  -3 3915.92 657.663  18
  -7   0   2 4394.61 717.026  21
   7   0  -2 4625.48 669.102  18
  -7   0   1 19495.4 1555.21  21
  -7   0   0 11331.7 875.855  16
  -7   0   0 16317.7 1455.66  21
  -7   0  -1 2497.19 421.898  16
  -7   0  -1 2962.80 605.803  21
  -7   0  -2 13536.3 1057.87  13
  -7   0  -2 14326.7 1286.73  21
  -7   0  -3 7832.79 712.711  13
  -7   0  -3 8068.33 848.780  20
  -7   0  -4 5309.05 469.323  13
  -7   0  -4 6716.15 702.700  20
  -7   0  -5 6139.33 561.126  20
  -7   0  -6 3227.15 290.999  20
   7   1 -11 2075.24 220.762  18
  -7  -1  10 127.558 65.8852   8
   7   1 -10 587.887 191.809  18
  -7  -1   9 5944.91 537.993   8
   7   1  -9 10981.3 907.900  18
   7   1  -8 12225.0 957.412  10
   7   1  -8 14913.9 1194.15  18
  -7  -1   7 7776.05 725.144   8
   7   1  -7 9226.44 1020.65  18
  -7  -1   6 20032.5 1173.04   8
   7   1  -6 19561.6 1552.73  18
  -7  -1   5 8382.48 797.848  21
  -7  -1   5 9994.80 826.741   8
  -7  -1   4 11988.6 978.271  13
  -7  -1   4 11519.6 1022.41  21
  -7  -1   3 7288.21 864.416  21
   7   1  -3 5592.64 722.414  18
  -7  -1   2 26953.4 1734.64  21
  -7  -1   1 19415.4 1387.00  13
  -7  -1   1 18960.3 1480.51  21
  -7  -1   0 21611.0 1428.14  13
  -7  -1   0 21452.1 1556.44  21
  -7  -1  -1 7032.27 770.278  13
  -7  -1  -1 7320.29 880.863  21
  -7  -1  -1 5616.18 640.829  20
  -7  -1  -2 11220.6 870.439  13
  -7  -1  -2 10068.0 842.409  20
  -7  -1  -3 5660.41 525.545  13
  -7  -1  -3 6059.85 603.295  20
  -7  -1  -4 632.963 167.883  20
  -7  -1  -5 3171.67 290.315  20
   7   2 -10 1085.19 206.927  18
   7   2  -9 3238.13 442.507  18
   7   2  -8 3961.87 499.605  10
   7   2  -8 5658.83 662.744  18
   7   2  -7 5431.67 709.006  18
  -7  -2   6 2488.92 378.791  21
   7   2  -6 2163.42 464.896  18
  -7  -2   5 5899.54 660.554  21
   7   2  -5 5117.70 698.362  18
  -7  -2   4 7497.13 708.004  13
  -7  -2   4 7938.94 828.500  21
   7   2  -4 5989.40 685.908  18
  -7  -2   3 11976.3 964.322  13
  -7  -2   3 12489.4 1087.49  21
  -7  -2   2 10015.5 915.385  13
  -7  -2   2 9781.35 969.532  21
  -7  -2   1 5264.75 665.237  13
  -7  -2   1 5481.85 726.846  21
  -7  -2   0 9262.56 836.782  13
  -7  -2   0 8779.79 885.901  21
  -7  -2  -1 3404.18 466.613  13
  -7  -2  -1 3199.79 507.044  21
  -7  -2  -1 2359.74 349.964  20
  -7  -2  -2 635.181 182.345  13
  -7  -2  -2 357.578 128.541  20
  -7  -2  -3 222.135 96.9924  20
  -7  -2  -4 701.677 115.936  20
   7   3  -9 4236.88 382.064  18
   7   3  -8 3101.71 364.086  10
   7   3  -8 4176.00 448.954  18
   7   3  -7 9400.23 727.300  18
  -7  -3   6 2566.02 349.345  21
   7   3  -6 3712.63 461.872  18
  -7  -3   5 10572.2 809.953  21
  -7  -3   4 12328.1 760.013  13
  -7  -3   4 15951.4 1067.45  21
  -7  -3   3 13631.0 888.390  13
  -7  -3   3 15061.5 1074.59  21
  -7  -3   2 9990.90 787.082  13
  -7  -3   2 9943.58 875.287  21
  -7  -3   1 11651.2 828.741  13
  -7  -3   1 11921.8 909.843  21
  -7  -3   0 9823.16 719.575  13
  -7  -3   0 9334.31 750.541  21
   7   4  -7 648.675 160.329  10
  -7  -4   6 133.129 77.3463  21
  -7  -4   5 2853.91 349.935  21
  -7  -4   4 2769.64 369.963  21
  -7  -4   3 1520.84 285.270  21
  -7  -4   2 805.442 204.824  21
  -7  -4   1 2249.40 301.302  21
   8 -11  -2 456.077 101.723   7
   8 -11  -1 1740.18 210.437   7
   8 -11   0 281.064 91.6655   7
   8 -11   1 1865.14 216.290   7
   8 -10  -4 2635.23 284.445   7
   8 -10  -4 1643.31 404.745  22
   8 -10  -3 6007.63 492.964   7
   8 -10  -3 6761.75 986.858  22
   8 -10  -2 12766.1 775.069   7
   8 -10  -2 15175.7 1638.72  22
   8 -10  -1 13832.3 834.451   7
   8 -10  -1 15841.4 1748.87  22
   8 -10   0 14170.3 841.924   7
   8 -10   0 17003.7 1784.55  22
   8 -10   1 11961.0 741.359   7
  -8  10  -1 14297.1 1637.43  24
   8 -10   1 13398.8 1485.81  22
   8 -10   2 8037.50 562.460   7
  -8  10  -2 8642.89 1172.24  24
  -8  10  -3 2987.15 578.331  24
   8 -10   4 1804.69 462.471  23
   8 -10   5 857.603 259.325  23
  -8   9   6 765.280 171.003  16
   8  -9  -6 1065.04 173.732   7
  -8   9   5 14087.4 868.127  16
   8  -9  -5 13825.7 764.877   7
   8  -9  -5 14135.1 1355.63  22
  -8   9   4 10562.7 831.949  16
   8  -9  -4 10705.6 753.037   7
   8  -9  -4 12646.1 1537.10  22
  -8   9   3 648.412 229.545  16
   8  -9  -3 677.989 209.490   7
   8  -9  -3 742.175 415.494  22
  -8   9   2 4666.64 589.094  16
   8  -9  -2 6305.70 640.606   7
   8  -9  -2 7291.59 1398.12  22
  -8   9   1 4400.74 550.231  16
   8  -9  -1 5621.90 611.621   7
   8  -9   0 1170.13 280.701   7
   8  -9   0 1348.69 594.004  22
   8  -9   1 4882.71 523.225   7
   8  -9   1 5777.54 1149.31  22
  -8   9  -2 809.859 482.062  24
   8  -9   2 876.108 393.689  22
  -8   9  -3 6503.27 1239.45  24
  -8   9  -4 19064.5 1851.58  24
  -8   9  -5 3634.75 667.707  24
   8  -9   5 5924.12 953.193  23
   8  -9   6 1505.21 360.066  23
  -8   8   8 844.181 157.534  16
   8  -8  -7 2130.80 259.840   7
   8  -8  -6 724.091 192.357   7
   8  -8  -6 740.531 336.811  22
   8  -8  -5 8383.63 695.869   7
   8  -8  -5 9035.65 1372.12  22
  -8   8   4 13031.0 1107.98  16
   8  -8  -4 11149.6 863.257   7
  -8   8   3 20574.7 1434.13  16
   8  -8  -3 19691.4 1179.95   7
  -8   8   2 24763.0 1567.91  16
   8  -8  -2 21516.8 1237.00   7
  -8   8   1 9053.52 932.854  16
   8  -8  -1 6403.67 661.543   7
  -8   8   0 7232.51 811.143  16
  -8   8  -1 20344.8 1272.10  16
  -8   8  -2 10137.4 825.768  16
   8  -8   2 10670.5 1479.70  22
  -8   8  -3 5447.40 1221.19  24
  -8   8  -4 4883.08 1053.88  24
  -8   8  -5-72.8319 160.363  24
  -8   8  -6 2291.99 519.399  24
   8  -8   6 2855.01 581.010  23
  -8   7   9 4359.41 338.749  16
   8  -7  -8 12265.9 573.250   7
   8  -7  -7 17980.9 882.214   7
   8  -7  -7-147.049 139.396  22
   8  -7  -6 1326.17 269.827   7
   8  -7  -5 5979.33 624.111   7
   8  -7  -4 12880.2 941.633   7
   8  -7  -4 16447.2 1228.79  10
  -8   7   3 1237.15 392.027  16
   8  -7  -3 1514.09 394.890  10
  -8   7   2 5770.28 796.433  16
   8  -7  -2 5522.27 771.853  10
  -8   7   1 4054.55 658.396  16
   8  -7  -1 3890.76 655.914  10
  -8   7   0 4918.45 703.773  16
   8  -7   0 5281.56 726.777  10
  -8   7  -1 3016.89 533.826  16
  -8   7  -2 12975.2 1039.82  16
  -8   7  -3 7714.03 745.148  16
  -8   7  -3 9593.77 1699.03  24
  -8   7  -4 1789.22 325.284  16
  -8   7  -4 2351.27 740.252  24
  -8   7  -5 25799.2 2317.71  24
  -8   7  -6 23197.1 1855.68  24
   8  -7   6 23991.4 1692.32  23
  -8   7  -7 3068.96 489.273  24
  -8   6   8 193.266 96.5474   8
  -8   6   7 2304.09 366.992   8
   8  -6  -6 5236.90 633.604  10
  -8   6   6 5890.76 653.455   8
   8  -6  -5 6265.42 758.838  10
  -8   6   5 4294.13 595.854   8
   8  -6  -4 11440.1 1096.49  10
  -8   6   4 6262.10 733.119   8
  -8   6   3 6686.05 869.555  16
  -8   6   3 6037.89 726.840   8
  -8   6   2 59405.1 2541.76  16
   8  -6  -2 61368.2 2612.13  10
  -8   6   1 103532. 3304.49  16
   8  -6  -1 95760.8 3210.98  10
  -8   6   0 19961.2 1424.96  16
   8  -6   0 15355.7 1236.79  10
  -8   6  -1 5465.15 724.643  16
   8  -6   1 2404.95 453.823  10
  -8   6  -2 7529.70 824.786  16
  -8   6  -3 595.212 212.175  16
  -8   6  -3 556.773 487.729  24
  -8   6  -4 3547.55 497.256  16
  -8   6  -4 4497.15 1126.08  24
  -8   6  -5 932.422 464.216  24
  -8   6  -6 447.828 266.357  24
   8  -6   6 388.524 220.480  23
  -8   6  -7 12.3863 100.614  24
  -8   5   9 5500.07 487.133   8
  -8   5   8 3372.04 454.457   8
   8  -5  -7 4853.59 571.041  10
  -8   5   7 4339.99 585.004   8
   8  -5  -6 6700.62 760.461  10
  -8   5   6 6313.96 755.994   8
   8  -5  -5 7235.41 859.656  10
  -8   5   5 7993.11 881.232   8
   8  -5  -4 4771.72 733.001  10
  -8   5   4 4082.60 635.793   8
  -8   5   3 34735.8 1931.50  16
   8  -5  -3 35884.8 2000.69  10
  -8   5   3 32830.3 1788.51   8
  -8   5   2 5247.17 752.927  16
   8  -5  -2 5232.60 762.291  10
  -8   5   2 5228.81 707.932   8
  -8   5   1 10581.9 1051.80  16
   8  -5  -1 9049.44 997.766  10
  -8   5   0 38210.4 1961.04  16
   8  -5   0 32782.1 1789.55  10
  -8   5  -1 1709.05 405.934  16
   8  -5   1 648.497 261.332  10
  -8   5  -2 12095.7 1056.23  16
  -8   5  -2 10805.6 1782.13  24
  -8   5  -3 13535.2 1065.83  16
  -8   5  -3 14937.1 2025.27  24
  -8   5  -4 9398.25 833.267  16
  -8   5  -4 9919.41 1566.48  24
  -8   5  -5 5647.33 1065.49  24
  -8   5  -6 8245.09 1087.17  24
  -8   4  10 735.848 157.868   8
  -8   4   9 99.2353 79.5635   8
   8  -4  -8 243.839 129.433  10
  -8   4   8 277.365 136.720   8
   8  -4  -7 162.915 142.434  10
   8  -4  -7 92.3518 92.2282  18
  -8   4   7 198.380 172.411   8
   8  -4  -6 7184.78 827.336  10
  -8   4   6 6118.66 768.275   8
   8  -4  -6 6300.62 725.786  18
  -8   4   5 25704.4 1609.85  16
   8  -4  -5 27555.1 1722.80  10
  -8   4   5 23985.4 1553.39   8
   8  -4  -5 25017.8 1555.84  18
  -8   4   4 73918.4 2760.33  16
   8  -4  -4 76593.6 2974.16  10
  -8   4   4 76001.5 2761.49   8
   8  -4  -4 72960.9 2798.62  18
  -8   4   3 30845.0 1779.95  16
   8  -4  -3 30942.2 1895.34  10
  -8   4   3 30117.1 1723.37   8
  -8   4   2 1133.82 343.617  16
   8  -4  -2 998.523 337.346  10
  -8   4   2 1206.93 350.218   8
  -8   4   1 11142.0 1053.81  16
   8  -4  -1 10531.1 1072.31  10
  -8   4   0 68040.1 2593.30  16
   8  -4   0 61912.9 2443.59  10
  -8   4  -1 22925.3 1475.56  16
  -8   4  -1 21772.9 2418.20  24
  -8   4  -2 2664.53 494.593  16
  -8   4  -2 2303.19 757.002  24
  -8   4  -3 402.550 200.065  16
  -8   4  -3-26.6062 279.355  24
  -8   4  -4 1537.95 332.519  16
  -8   4  -4 1367.46 564.399  24
  -8   4  -5 295.650 212.932  24
  -8   4  -6 636.703 277.816  24
  -8   4  -7 85.6146 42.1971  20
  -8   3  10 7438.11 559.639   8
  -8   3   9 4461.24 523.138   8
   8  -3  -9 1.82476 38.1368  18
  -8   3   8 3467.94 452.903  16
   8  -3  -8 3897.90 480.173  10
  -8   3   8 4524.78 600.119   8
   8  -3  -8 3818.46 492.394  18
  -8   3   7 6030.14 671.366  16
   8  -3  -7 6444.51 735.736  10
  -8   3   7 6410.87 758.061   8
   8  -3  -7 5485.18 669.976  18
  -8   3   6 7142.02 781.576  16
   8  -3  -6 9559.42 990.715  10
  -8   3   6 7099.41 821.811   8
   8  -3  -6 8786.15 929.415  18
  -8   3   5 229.478 142.657  16
   8  -3  -5 353.120 212.460  10
  -8   3   5 297.825 176.514   8
   8  -3  -5 456.229 255.790  18
  -8   3   4 29315.1 1663.08  16
   8  -3  -4 29697.9 1879.96  10
  -8   3   4 31000.5 1738.59   8
   8  -3  -4 30120.2 1879.63  18
  -8   3   3 16921.8 1272.91  16
   8  -3  -3 16548.7 1420.19  10
  -8   3   3 17342.1 1279.83   8
   8  -3  -3 16560.6 1409.07  18
  -8   3   2 1290.38 347.494  16
   8  -3  -2 1878.78 492.017  10
  -8   3   2 1358.48 371.718   8
  -8   3   1 26957.0 1584.69  16
   8  -3  -1 28798.7 1783.32  10
  -8   3   0 8742.49 898.828  16
  -8   3   0 6910.41 1224.83  24
   8  -3   0 9364.66 941.497  10
  -8   3  -1 12322.2 1057.51  16
  -8   3  -1 10372.7 1531.52  24
  -8   3  -2 14106.0 1104.49  16
  -8   3  -2 11740.0 1610.00  24
  -8   3  -3 10633.8 916.672  16
  -8   3  -3 9030.03 1336.52  24
  -8   3  -4 3818.78 388.454  13
  -8   3  -4 4513.25 872.147  24
  -8   3  -5 5779.68 843.027  24
  -8   3  -6 4050.59 383.413  20
  -8   2  11 89.0826 46.2248   8
  -8   2  10 644.919 167.466   8
  -8   2   9 664.308 210.346   8
   8  -2  -9 653.121 182.297  18
   8  -2  -8 5336.39 576.608  10
  -8   2   8 4531.94 582.893   8
   8  -2  -8 5241.64 613.130  18
   8  -2  -7 4534.10 627.251  10
  -8   2   7 3487.29 548.919   8
   8  -2  -7 4756.84 665.411  18
  -8   2   6 7653.30 729.018  16
   8  -2  -6 7310.08 894.863  10
  -8   2   6 9573.11 943.939   8
   8  -2  -6 6933.69 873.037  18
  -8   2   5 8447.78 809.984  16
   8  -2  -5 6508.38 885.467  10
   8  -2  -5 7132.39 920.030  18
  -8   2   4 16337.4 1143.49  16
   8  -2  -4 13583.1 1304.08  10
  -8   2   4 17874.6 1291.52   8
   8  -2  -4 14423.1 1338.24  18
  -8   2   3 77582.3 2528.43  16
   8  -2  -3 83507.7 3259.07  10
  -8   2   3 84895.0 2762.59   8
   8  -2  -3 87578.2 3220.00  18
  -8   2   2 68551.7 2383.14  16
   8  -2  -2 71545.2 2954.44  10
  -8   2   2 59567.2 2439.06  21
   8  -2  -2 80684.6 2970.08  18
  -8   2   1 7347.89 780.814  16
   8  -2  -1 11720.1 1142.56  10
  -8   2   0 2144.68 423.975  16
   8  -2   0 3943.94 591.141  10
  -8   2  -1 2879.90 482.292  16
  -8   2  -2 3128.49 479.518  16
  -8   2  -3 2613.84 380.592  13
  -8   2  -4 311.507 102.948  13
  -8   2  -5 542.852 176.305  20
  -8   2  -6 234.757 74.5636  20
  -8   1  10 14339.8 703.926   8
   8  -1 -10 12579.7 615.953  18
  -8   1   9 18909.3 1001.26   8
   8  -1  -9 20509.1 1053.29  18
   8  -1  -8 2010.04 362.720  10
  -8   1   8 1854.72 351.247   8
   8  -1  -8 2248.67 420.794  18
   8  -1  -7 3832.18 586.288  10
  -8   1   7 4894.39 619.416   8
   8  -1  -7 4340.19 640.238  18
   8  -1  -6 12100.4 1129.73  10
  -8   1   6 15704.7 1138.97   8
   8  -1  -6 13174.6 1195.79  18
   8  -1  -5 2229.95 527.703  10
  -8   1   5 2278.32 447.539   8
   8  -1  -5 2225.40 508.015  18
   8  -1  -4 4083.91 735.602  10
  -8   1   4 4683.29 631.384   8
   8  -1  -4 5559.91 807.091  18
  -8   1   3 2205.12 441.523  21
   8  -1  -3 2800.09 598.563  10
   8  -1  -3 2961.29 572.998  18
  -8   1   2 3621.93 484.007  16
   8  -1  -2 3477.15 646.045  10
  -8   1   2 3708.57 626.345  21
  -8   1   1 2172.30 381.759  16
  -8   1   1 2982.42 592.799  21
   8  -1  -1 2290.22 521.397  10
  -8   1   0 9929.28 811.879  16
   8  -1   0 10999.1 964.241  10
  -8   1   0 11617.3 1141.56  21
  -8   1  -1 5441.56 587.986  16
  -8   1  -2 2115.42 378.393  13
  -8   1  -3 21319.6 975.445  13
  -8   1  -3 22608.3 1163.31  20
  -8   1  -4 12456.4 514.665  13
  -8   1  -4 21315.6 972.459  20
  -8   1  -5 3431.77 301.493  20
   8   0 -10 2277.49 255.587  18
  -8   0   9 333.660 120.548   8
   8   0  -9 770.109 202.566  18
   8   0  -8 4998.47 533.271  10
   8   0  -8 5622.39 638.879  18
   8   0  -7 12448.2 1014.78  10
  -8   0   7 13573.9 894.401   8
   8   0  -7 13857.3 1101.42  18
   8   0  -6 17007.4 1307.60  10
  -8   0   6 16285.5 1031.90   8
   8   0  -6 17915.2 1336.94  18
   8   0  -5 23315.4 1630.82  10
  -8   0   5 23926.2 1265.64   8
   8   0  -5 25786.7 1638.62  18
  -8   0   4 10502.4 853.042  21
   8   0  -4 16309.2 1273.41  18
  -8   0   3 3384.32 534.763  21
   8   0  -3 3312.32 543.139  18
   8   0  -2 14731.0 1302.35  10
  -8   0   2 15181.3 1191.40  21
   8   0  -1 19493.2 1349.62  10
  -8   0   1 19966.2 1374.42  21
  -8   0   0 5584.17 672.278  13
  -8   0   0 5259.14 710.091  21
  -8   0  -1 1786.33 352.448  13
  -8   0  -1 965.226 230.194  20
  -8   0  -2 328.544 147.815  13
  -8   0  -2 133.237 91.9834  20
  -8   0  -3 2326.15 267.294  13
  -8   0  -3 2205.01 290.789  20
  -8   0  -4 1235.00 169.540  20
   8   1  -9 1455.62 239.131  18
   8   1  -8 12470.2 756.438  10
   8   1  -8 15442.7 930.862  18
   8   1  -7 6268.16 660.922  10
   8   1  -7 6192.17 660.176  18
   8   1  -6 2126.12 446.271  10
   8   1  -6 1937.04 392.660  18
   8   1  -5 6679.02 720.527  18
  -8  -1   4 3009.61 413.219  13
  -8  -1   4 2818.06 426.032  21
   8   1  -4 2760.51 441.207  18
  -8  -1   3 2283.32 394.550  13
  -8  -1   3 1941.65 372.789  21
  -8  -1   2 3589.41 508.427  13
   8   1  -2 3610.00 596.094  10
  -8  -1   2 2730.91 466.961  21
  -8  -1   1 457.542 183.140  13
   8   1  -1 124.806 131.429  10
  -8  -1   1 459.158 205.188  21
  -8  -1   0 14062.4 917.344  13
  -8  -1   0 13403.4 964.954  21
  -8  -1  -1 25280.5 1089.47  13
  -8  -1  -2 2419.60 282.088  13
  -8  -1  -2-12.4382 18.0190  20
   8   2  -8 1934.34 225.899  10
   8   2  -8 2769.47 291.231  18
   8   2  -7 5051.72 494.393  10
   8   2  -7 4647.22 426.079  18
   8   2  -6 15116.4 985.712  10
   8   2  -6 10666.4 664.415  18
   8   2  -5 12026.0 957.968  10
  -8  -2   5 8887.49 581.131  21
  -8  -2   4 14.5316 36.1955  13
  -8  -2   4 12106.6 772.632  21
  -8  -2   3 11748.8 724.587  13
   8   2  -3 13055.7 988.159  10
  -8  -2   3 11204.7 787.577  21
  -8  -2   2 7509.39 599.705  13
   8   2  -2 5916.12 608.401  10
  -8  -2   2 7317.10 641.627  21
  -8  -2   1 5663.62 508.189  13
  -8  -2   1 5146.53 522.476  21
  -8  -2   0 3302.67 350.928  13
   8   3  -6 829.682 180.180  10
   8   3  -5 1746.54 275.836  10
   8   3  -4 212.942 112.557  10
  -8  -3   4 300.818 106.834  21
  -8  -3   3 2204.09 276.625  21
   8   3  -3 1094.67 196.280  10
   9 -10  -3 3147.66 545.202  22
   9 -10  -2 3526.31 638.622  22
   9 -10  -1 247.818 204.362  22
  -9  10   0 739.060 335.446  24
   9 -10   0 969.394 328.458  22
  -9  10  -1 4737.34 757.763  24
  -9  10  -2 3998.05 603.112  24
  -9   9   5 8947.49 534.894  16
   9  -9  -5 6861.07 780.202  22
  -9   9   4 8918.75 620.661  16
   9  -9  -4 10240.7 1186.91  22
  -9   9   3 4419.05 468.557  16
   9  -9  -3 6644.61 1067.38  22
  -9   9   2 533.855 170.959  16
   9  -9  -2 1712.22 575.407  22
  -9   9   1 257.211 117.946  16
   9  -9  -1 366.018 229.542  22
  -9   9   0 984.923 212.002  16
   9  -9   0 507.192 316.787  22
  -9   9  -1 7654.99 1259.57  24
   9  -9   1 3162.15 634.569  22
  -9   9  -2 9264.37 1283.27  24
  -9   9  -3 9555.84 1150.72  24
  -9   9  -4 9592.25 926.434  24
  -9   8   7 1714.98 221.702  16
  -9   8   6 5266.37 490.304  16
   9  -8  -6 2833.40 524.419  22
  -9   8   5 12758.0 869.517  16
   9  -8  -5 14241.7 1511.39  22
  -9   8   4 12488.0 932.449  16
  -9   8   3 3657.10 522.724  16
  -9   8   2 728.345 238.656  16
  -9   8   1 825.302 246.519  16
  -9   8   0 1020.09 264.085  16
  -9   8  -1 3884.32 488.650  16
  -9   8  -1 4725.70 1111.19  24
   9  -8   1 4573.14 869.608  22
  -9   8  -2 12899.0 783.764  16
  -9   8  -2 17511.5 1934.82  24
  -9   8  -3 9045.75 542.119  16
  -9   8  -3 15361.0 1653.27  24
  -9   8  -4 3790.55 708.162  24
  -9   8  -5 870.130 273.783  24
   9  -8   5 1189.04 293.715  23
  -9   7   8 6533.66 412.068  16
  -9   7   7 4708.83 465.289  16
   9  -7  -7-266.910 146.751  22
  -9   7   6 3976.92 499.735  16
  -9   7   5 10921.8 898.601  16
  -9   7   4 3351.56 529.618  16
   9  -7  -4 4692.50 598.079  10
  -9   7   3 5806.75 706.198  16
   9  -7  -3 5202.09 676.903  10
  -9   7   2 4104.18 604.020  16
   9  -7  -2 4598.47 632.520  10
  -9   7   1 5255.10 664.735  16
   9  -7  -1 4416.45 595.495  10
  -9   7   0 7687.44 785.915  16
  -9   7  -1 4082.43 539.450  16
  -9   7  -1 4305.85 1063.70  24
  -9   7  -2 16028.0 985.880  16
  -9   7  -2 16701.9 1937.38  24
  -9   7  -3 4935.55 492.144  16
  -9   7  -3 5890.43 1050.63  24
  -9   7  -4 1759.26 517.295  24
  -9   7  -5 5342.91 728.083  24
  -9   6   8 6989.28 503.712  16
  -9   6   7 6214.37 583.799  16
  -9   6   7 4789.45 428.372   8
   9  -6  -6 4622.30 542.068  10
  -9   6   6 5697.47 543.587   8
  -9   6   5 8151.05 815.838  16
  -9   6   5 6832.69 657.018   8
  -9   6   4 3528.21 559.187  16
   9  -6  -4 3293.86 546.415  10
  -9   6   3 11690.7 1041.67  16
   9  -6  -3 10763.1 1007.79  10
  -9   6   2 12608.8 1074.66  16
   9  -6  -2 11586.5 1044.46  10
  -9   6   1 15143.8 1163.09  16
   9  -6  -1 15352.3 1161.66  10
  -9   6   0 11804.0 991.330  16
   9  -6   0 9426.36 843.470  10
  -9   6  -1 2525.21 448.124  16
  -9   6  -1 1754.01 607.634  24
  -9   6  -2 4360.66 540.192  16
  -9   6  -2 4831.35 1022.51  24
  -9   6  -3 4566.88 504.169  16
  -9   6  -3 4455.28 921.196  24
  -9   6  -4 5480.80 891.574  24
  -9   6  -5 2389.47 489.769  24
  -9   5   9 924.828 133.598   8
  -9   5   8 570.235 153.074  16
  -9   5   8 689.029 170.073   8
  -9   5   7 7328.11 641.156  16
  -9   5   7 7250.28 628.171   8
  -9   5   6 4026.61 538.598  16
   9  -5  -6 5252.47 619.018  10
  -9   5   6 4481.56 545.504   8
  -9   5   5 8831.72 846.618  16
   9  -5  -5 8856.05 880.541  10
  -9   5   5 8796.10 811.192   8
  -9   5   4 11347.6 997.739  16
  -9   5   4 10530.9 916.207   8
  -9   5   3 5107.90 682.568  16
   9  -5  -3 5354.06 738.090  10
  -9   5   2 12447.5 1055.47  16
   9  -5  -2 12105.8 1089.20  10
  -9   5   1 6120.24 729.891  16
   9  -5  -1 6213.89 746.521  10
  -9   5   0 19450.0 1262.49  16
  -9   5   0 17078.3 2015.94  24
   9  -5   0 14715.3 1055.04  10
  -9   5  -1 9407.85 849.358  16
  -9   5  -1 8348.74 1366.72  24
  -9   5  -2 3838.66 507.057  16
  -9   5  -2 3642.68 833.074  24
  -9   5  -3 8640.96 690.549  16
  -9   5  -3 7900.00 1145.18  24
  -9   5  -4 746.834 302.600  24
  -9   5  -5 342.718 168.448  24
  -9   4   9 548.307 133.598   8
  -9   4   8-23.8982 52.5963  16
   9  -4  -8 2.25160 39.8515  10
  -9   4   7 10377.8 733.932  16
  -9   4   7 11912.5 848.679   8
  -9   4   6 3771.00 499.653  16
   9  -4  -6 4650.27 606.884  10
  -9   4   6 4321.24 559.184   8
  -9   4   5 10723.8 901.693  16
   9  -4  -5 11139.7 1000.01  10
  -9   4   5 11242.6 933.800   8
  -9   4   4 9445.11 879.753  16
   9  -4  -4 7944.13 887.421  10
  -9   4   4 9730.51 891.524   8
  -9   4   3 7219.65 781.065  16
   9  -4  -3 9013.87 952.467  10
  -9   4   2 10076.0 921.492  16
   9  -4  -2 9148.20 950.889  10
  -9   4   1 6697.64 745.253  16
  -9   4   1 5050.61 999.269  24
   9  -4  -1 7460.04 814.005  10
  -9   4   0 14884.4 1076.03  16
  -9   4   0 12361.5 1535.89  24
   9  -4   0 14739.9 1020.31  10
  -9   4  -1 7474.19 729.050  16
  -9   4  -1 6330.24 1066.55  24
  -9   4  -2 4492.43 533.959  16
  -9   4  -2 3368.40 725.317  24
  -9   4  -3 3059.21 397.433  16
  -9   4  -3 2459.96 556.366  24
  -9   4  -4 15.1773 56.7713  24
  -9   4  -5 266.523 80.4346  20
  -9   3   9 5980.01 445.648   8
   9  -3  -8 5812.07 475.259  10
  -9   3   8 6856.58 573.916   8
   9  -3  -7 6391.94 627.349  10
  -9   3   7 5253.86 564.647   8
  -9   3   6 3398.13 425.765  16
   9  -3  -6 6825.68 743.571  10
  -9   3   6 4445.82 560.771   8
   9  -3  -6 6561.56 725.344  18
  -9   3   5 2318.98 392.584  16
   9  -3  -5 2778.18 516.445  10
  -9   3   5 2939.55 480.583   8
  -9   3   4 10303.4 852.281  16
   9  -3  -4 11736.8 1094.54  10
  -9   3   4 11174.4 944.937   8
  -9   3   3 9968.49 855.161  16
   9  -3  -3 12008.5 1106.44  10
  -9   3   2 15767.3 1075.02  16
   9  -3  -2 16255.4 1255.45  10
  -9   3   1 11659.9 916.969  16
   9  -3  -1 11406.9 985.917  10
  -9   3   0 3832.99 518.194  16
   9  -3   0 2728.83 415.939  10
  -9   3  -1 9190.75 756.486  16
  -9   3  -2 4780.83 510.923  16
  -9   3  -3 3652.13 333.437  13
  -9   3  -4 2061.56 250.924  20
  -9   2   9 6516.27 436.288   8
   9  -2  -8 2495.44 309.534  10
  -9   2   8 2815.52 355.895   8
   9  -2  -8 2826.29 367.381  18
   9  -2  -7 6641.17 638.449  10
  -9   2   7 8738.45 689.265   8
   9  -2  -7 6758.12 658.647  18
   9  -2  -6 7586.49 770.957  10
   9  -2  -6 7513.41 771.681  18
   9  -2  -5 3866.21 588.812  10
  -9   2   5 3344.89 483.471   8
   9  -2  -5 4082.93 608.413  18
  -9   2   4 4508.73 477.564  16
   9  -2  -4 5695.20 754.026  10
  -9   2   3 2247.88 349.829  16
   9  -2  -3 2961.89 541.889  10
  -9   2   2 7119.71 632.381  16
   9  -2  -2 9199.53 920.774  10
  -9   2   1 3990.40 470.206  16
   9  -2  -1 3717.59 527.411  10
  -9   2   0 8873.29 687.664  16
  -9   2  -1 6538.97 556.733  16
  -9   2  -1 1.47080 35.1121  20
  -9   2  -2 1535.72 255.634  13
  -9   2  -2 897.059 189.555  20
  -9   2  -3 2104.13 206.844  13
  -9   2  -3 1952.08 235.806  20
   9  -1  -8 5357.28 419.060  10
   9  -1  -8 6377.48 523.046  18
   9  -1  -7 14317.2 878.208  10
   9  -1  -7 15132.2 937.373  18
   9  -1  -6 10712.5 868.305  10
   9  -1  -6 10269.3 848.396  18
   9  -1  -5 1315.13 340.492  10
   9  -1  -5 1420.08 330.550  18
   9  -1  -4 1032.17 304.444  10
   9  -1  -3 1227.60 344.233  10
   9  -1  -2 1544.51 357.786  10
  -9   1   1 9691.99 801.915  13
   9  -1  -1 6593.77 622.580  10
  -9   1   0 16846.6 977.539  13
  -9   1  -1 10009.0 658.481  13
  -9   1  -2 2105.27 241.735  13
   9   0  -8 7284.90 397.928  10
   9   0  -7 9442.85 630.805  10
   9   0  -7 9190.44 628.971  18
   9   0  -6 5134.34 540.137  10
   9   0  -6 4821.56 494.704  18
   9   0  -5 514.909 230.208  10
  -9   0   4 86.9679 55.1915  13
   9   0  -4 296.219 167.661  10
  -9   0   3 676.113 181.402  13
   9   0  -3 1744.37 354.405  10
  -9   0   2 5022.04 505.126  13
   9   0  -2 6122.26 590.900  10
  -9   0   1 7100.87 579.050  13
  -9   0   0 9286.71 599.044  13
  -9   0  -1 10326.1 519.969  13
   9   1  -7 2276.98 234.311  10
   9   1  -6 4104.39 397.077  10
   9   1  -5 2261.41 324.973  10
   9   1  -4 64.9895 85.3163  10
  -9  -1   3 2700.08 268.990  13
   9   1  -3 2839.68 338.652  10
  -9  -1   2 4910.71 375.639  13
  -9  -1   1 2963.50 278.937  13
  10  -9  -4 290.831 155.107  22
  10  -9  -3 559.139 249.015  22
 -10   9   2 829.307 135.344  16
  10  -9  -2 756.448 288.330  22
 -10   9   1 671.603 271.819  24
  10  -9  -1 375.299 175.867  22
 -10   9   0 517.810 223.300  24
 -10   9  -1 1520.19 387.409  24
 -10   8   5 4502.32 361.209  16
  10  -8  -5 1742.75 395.957  22
 -10   8   4 11005.4 644.625  16
  10  -8  -4 10428.1 1142.00  22
 -10   8   3 14782.9 798.100  16
 -10   8   2 9003.42 632.598  16
 -10   8   1 5911.21 502.550  16
  10  -8  -1 5061.34 839.636  22
 -10   8   0 10015.6 612.902  16
 -10   8   0 11365.5 1280.62  24
 -10   8  -1 6837.73 450.092  16
 -10   8  -1 8313.14 1020.15  24
 -10   8  -2 2098.66 458.477  24
 -10   7   6 243.991 94.7888  16
  10  -7  -6 121.559 92.1021  22
 -10   7   5 576.047 161.819  16
 -10   7   4 4919.49 496.216  16
 -10   7   3 972.723 234.990  16
 -10   7   2 381.012 153.828  16
 -10   7   1 265.665 128.541  16
 -10   7   1 177.016 195.679  24
 -10   7   0 1981.87 315.869  16
 -10   7   0 1688.92 533.467  24
 -10   7  -1 2104.00 291.658  16
 -10   7  -1 1972.87 512.795  24
 -10   7  -2 592.059 134.350  16
 -10   7  -2 527.666 231.551  24
 -10   7  -3 2098.69 388.940  24
 -10   6   7 1138.77 158.344  16
 -10   6   6 3148.62 336.231  16
 -10   6   5 7518.66 589.318  16
  10  -6  -5 5754.14 556.580  10
 -10   6   4 12815.9 824.503  16
  10  -6  -4 10943.4 796.412  10
 -10   6   3 18383.3 1020.76  16
  10  -6  -3 17439.1 1041.05  10
 -10   6   2 21590.7 1117.44  16
  10  -6  -2 19594.9 1086.79  10
 -10   6   1 13400.2 861.996  16
  10  -6  -1 13794.5 848.360  10
 -10   6   1 12649.6 1368.50  24
 -10   6   0 5547.07 530.893  16
 -10   6   0 5018.51 831.215  24
 -10   6  -1 2312.73 318.578  16
 -10   6  -1 1987.30 500.336  24
 -10   6  -2 672.594 156.869  16
 -10   6  -2 526.514 226.271  24
 -10   6  -3 107.400 86.9541  24
 -10   5   7 442.723 95.9585  16
 -10   5   6 760.513 163.787  16
  10  -5  -6 772.241 192.692  10
 -10   5   5 24.7579 75.6696  16
  10  -5  -5 11.5189 92.7331  10
 -10   5   4 76.8773 99.7975  16
  10  -5  -4 41.9980 97.5020  10
 -10   5   3 1528.68 299.517  16
  10  -5  -3 1682.12 334.049  10
 -10   5   2 2330.69 357.977  16
  10  -5  -2 2554.85 403.516  10
 -10   5   1 457.858 176.993  16
 -10   5   1 8.19175 186.370  24
  10  -5  -1 421.662 158.127  10
 -10   5   0 881.574 207.179  16
 -10   5   0-287.376 182.946  24
 -10   5  -1 2610.49 333.524  16
 -10   5  -1-201.079 139.610  24
 -10   5  -2 4744.96 394.233  16
 -10   5  -2 176.961 103.996  24
  10  -4  -7 2410.72 283.480  10
 -10   4   6-15.1150 26.8020  16
  10  -4  -6 6242.19 540.592  10
 -10   4   5 6656.57 500.670  16
  10  -4  -5 11281.8 801.033  10
 -10   4   4 12798.0 753.311  16
  10  -4  -4 17685.5 1054.96  10
 -10   4   3 17473.6 913.280  16
  10  -4  -3 19706.8 1123.85  10
 -10   4   2 15802.2 876.972  16
  10  -4  -2 14967.3 937.728  10
 -10   4   1 8807.57 642.599  16
  10  -4  -1 6652.52 552.153  10
 -10   4   0 4488.85 440.863  16
 -10   4  -1 1278.83 217.597  16
 -10   4  -2 174.907 64.0560  13
  10  -3  -7 63.7237 48.0949  10
  10  -3  -6 1495.39 259.924  10
  10  -3  -5 4804.16 510.026  10
 -10   3   4 22.9966 32.4460  16
  10  -3  -4 178.489 135.630  10
 -10   3   3 84.4041 59.2416  16
  10  -3  -3 728.528 220.824  10
 -10   3   2 117.153 87.8890  16
  10  -3  -2 62.3650 68.3861  10
 -10   3   1 4022.79 371.569  16
 -10   3   0 2179.87 255.837  16
 -10   3  -1 663.463 141.990  13
  10  -2  -7 3291.18 284.786  10
  10  -2  -6 11507.1 660.702  10
  10  -2  -5 16814.1 884.049  10
 -10   2   4 5523.36 398.114  13
  10  -2  -4 10431.6 726.394  10
 -10   2   3 5660.53 463.547  13
  10  -2  -3 6389.54 556.231  10
 -10   2   2 9457.14 613.241  13
  10  -2  -2 7100.81 508.140  10
 -10   2   1 8026.55 539.545  13
 -10   2   0 2500.66 265.283  13
  10  -1  -6 931.365 158.412  10
  10  -1  -5 563.634 143.040  10
  10  -1  -4 1103.77 203.495  10
 -10   1   3 801.396 132.118  13
  10  -1  -3 1218.24 194.447  10
 -10   1   2 21.3308 29.7370  13
 -10   1   1 841.894 133.912  13
 -11   7   2 6380.68 346.256  16
 -11   6   3 1075.91 144.674  16
 -11   6   2 2080.74 207.448  16
 -11   6   1 3367.96 251.695  16
   0   0   0    0.00    0.00   0
;
_shelx_hkl_checksum              91786
loop_
_space_group_symop_operation_xyz
'x, y, z'
loop_
_atom_site_label
_atom_site_type_symbol
_atom_site_fract_x
_atom_site_fract_y
_atom_site_fract_z
_atom_site_U_iso_or_equiv
_atom_site_adp_type
_atom_site_occupancy
_atom_site_site_symmetry_order
_atom_site_calc_flag
_atom_site_refinement_flags_posn
_atom_site_refinement_flags_adp
Ca1 Ca 0.61678(12) 0.29546(11) 0.64871(11) 0.0213(3) Uani 1 1 d . .
Cl1 Cl 0.6482(2) 0.81948(17) 0.71147(16) 0.0323(3) Uani 1 1 d . .
Cl2 Cl 1.08946(19) 0.77647(18) 0.58867(16) 0.0333(4) Uani 1 1 d . .
O1 O 0.6243(6) 0.1244(5) 0.8014(5) 0.0274(9) Uani 1 1 d . .
H1 H 0.6326 0.0529 0.7525 0.041 Uiso 1 1 d R U
C1 C 0.4925(9) 0.0618(8) 0.8698(7) 0.0289(13) Uani 1 1 d . .
H1A H 0.4206 -0.0596 0.8343 0.043 Uiso 1 1 calc R U
C2 C 0.3711(8) 0.1303(7) 0.8361(6) 0.0244(12) Uani 1 1 d . .
O2 O 0.3880(6) 0.2204(5) 0.7619(5) 0.0286(10) Uani 1 1 d . .
C3 C 0.5738(13) 0.0974(14) 1.0165(9) 0.055(2) Uani 1 1 d . .
H3A H 0.6458 0.0440 1.0321 0.082 Uiso 1 1 calc R U
H3B H 0.4783 0.0555 1.0599 0.082 Uiso 1 1 calc R U
H3C H 0.6503 0.2157 1.0527 0.082 Uiso 1 1 calc R U
O3 O 0.2451(6) 0.0856(6) 0.8999(5) 0.0322(10) Uani 1 1 d . .
C4 C 0.1108(11) 0.1354(10) 0.8679(9) 0.0387(17) Uani 1 1 d . .
H4A H 0.0049 0.0485 0.7971 0.046 Uiso 1 1 calc R U
H4B H 0.1607 0.2365 0.8364 0.046 Uiso 1 1 calc R U
C5 C 0.0591(15) 0.1643(15) 0.9887(11) 0.066(3) Uani 1 1 d . .
H5A H 0.0259 0.0689 1.0261 0.098 Uiso 1 1 calc R U
H5B H -0.0432 0.1824 0.9668 0.098 Uiso 1 1 calc R U
H5C H 0.1601 0.2610 1.0535 0.098 Uiso 1 1 calc R U
O4 O 0.7293(6) 0.5614(5) 0.7944(5) 0.0263(9) Uani 1 1 d . .
H4 H 0.6893 0.6233 0.7750 0.040 Uiso 1 1 d R U
C6 C 0.9129(8) 0.6653(7) 0.8617(6) 0.0232(11) Uani 1 1 d . .
H6A H 0.9583 0.7669 0.8288 0.028 Uiso 1 1 calc R U
C7 C 1.0110(8) 0.5766(6) 0.8284(6) 0.0198(11) Uani 1 1 d . .
O5 O 0.9334(6) 0.4402(5) 0.7558(5) 0.0318(10) Uani 1 1 d . .
C8 C 0.9412(13) 0.7123(16) 1.0098(9) 0.061(3) Uani 1 1 d . .
H8A H 0.8644 0.7571 1.0271 0.092 Uiso 1 1 calc R U
H8B H 1.0669 0.7948 1.0531 0.092 Uiso 1 1 calc R U
H8C H 0.9107 0.6153 1.0448 0.092 Uiso 1 1 calc R U
O6 O 1.1836(6) 0.6614(6) 0.8874(5) 0.0316(10) Uani 1 1 d . .
C9 C 1.2930(9) 0.5912(9) 0.8530(8) 0.0337(15) Uani 1 1 d . .
H9A H 1.3539 0.6433 0.7886 0.040 Uiso 1 1 calc R U
H9B H 1.2166 0.4723 0.8127 0.040 Uiso 1 1 calc R U
C10 C 1.4277(13) 0.6218(15) 0.9773(10) 0.061(3) Uani 1 1 d . .
H10A H 1.4988 0.7395 1.0184 0.091 Uiso 1 1 calc R U
H10B H 1.5068 0.5812 0.9568 0.091 Uiso 1 1 calc R U
H10C H 1.3661 0.5650 1.0384 0.091 Uiso 1 1 calc R U
O7 O 0.7226(6) 0.4688(5) 0.4974(5) 0.0272(9) Uani 1 1 d . .
H7 H 0.8321 0.5368 0.5142 0.041 Uiso 1 1 d R U
C11 C 0.6197(9) 0.5302(8) 0.4285(7) 0.0310(14) Uani 1 1 d . .
H11A H 0.6852 0.6522 0.4589 0.037 Uiso 1 1 calc R U
C12 C 0.4455(8) 0.4615(7) 0.4666(6) 0.0248(12) Uani 1 1 d . .
O8 O 0.4088(6) 0.3716(5) 0.5392(5) 0.0294(10) Uani 1 1 d . .
C13 C 0.5899(13) 0.4802(15) 0.2794(9) 0.055(2) Uani 1 1 d . .
H13A H 0.7056 0.5275 0.2598 0.082 Uiso 1 1 calc R U
H13B H 0.5161 0.5204 0.2333 0.082 Uiso 1 1 calc R U
H13C H 0.5287 0.3608 0.2495 0.082 Uiso 1 1 calc R U
O9 O 0.3371(6) 0.5090(6) 0.4049(5) 0.0325(10) Uani 1 1 d . .
C14 C 0.1683(10) 0.4605(9) 0.4400(8) 0.0364(16) Uani 1 1 d . .
H14A H 0.1774 0.5545 0.5001 0.044 Uiso 1 1 calc R U
H14B H 0.1426 0.3712 0.4856 0.044 Uiso 1 1 calc R U
C15 C 0.0223(11) 0.4044(14) 0.3156(10) 0.058(2) Uani 1 1 d . .
H15A H 0.0486 0.4938 0.2714 0.087 Uiso 1 1 calc R U
H15B H -0.0916 0.3714 0.3367 0.087 Uiso 1 1 calc R U
H15C H 0.0139 0.3110 0.2570 0.087 Uiso 1 1 calc R U
O10 O 0.3940(6) 0.0267(5) 0.5040(5) 0.0267(9) Uani 1 1 d . .
H10 H 0.2963 -0.0275 0.5206 0.040 Uiso 1 1 d R U
C16 C 0.4425(9) -0.0792(8) 0.4415(6) 0.0273(12) Uani 1 1 d . .
H16A H 0.4093 -0.1744 0.4823 0.033 Uiso 1 1 calc R U
C17 C 0.6450(8) 0.0145(7) 0.4680(6) 0.0236(12) Uani 1 1 d . .
O11 O 0.7385(6) 0.1520(5) 0.5384(5) 0.0302(10) Uani 1 1 d . .
C18 C 0.3472(11) -0.1428(12) 0.2928(9) 0.049(2) Uani 1 1 d . .
H18A H 0.2179 -0.2094 0.2790 0.074 Uiso 1 1 calc R U
H18B H 0.3910 -0.2097 0.2516 0.074 Uiso 1 1 calc R U
H18C H 0.3718 -0.0502 0.2529 0.074 Uiso 1 1 calc R U
O12 O 0.7048(6) -0.0713(5) 0.4080(5) 0.0308(10) Uani 1 1 d . .
C19 C 0.9006(9) 0.0014(9) 0.4384(9) 0.0373(16) Uani 1 1 d . .
H19A H 0.9451 -0.0390 0.5099 0.045 Uiso 1 1 calc R U
H19B H 0.9600 0.1221 0.4675 0.045 Uiso 1 1 calc R U
C20 C 0.9392(13) -0.0488(14) 0.3135(11) 0.057(2) Uani 1 1 d . .
H20A H 0.8856 -0.1680 0.2888 0.086 Uiso 1 1 calc R U
H20B H 1.0690 0.0025 0.3280 0.086 Uiso 1 1 calc R U
H20C H 0.8882 -0.0136 0.2423 0.086 Uiso 1 1 calc R U
loop_
_atom_site_aniso_label
_atom_site_aniso_U_11
_atom_site_aniso_U_22
_atom_site_aniso_U_33
_atom_site_aniso_U_23
_atom_site_aniso_U_13
_atom_site_aniso_U_12
Ca1 0.0200(5) 0.0155(5) 0.0304(6) 0.0082(4) 0.0086(4) 0.0092(4)
Cl1 0.0371(7) 0.0269(7) 0.0428(9) 0.0127(6) 0.0134(6) 0.0220(6)
Cl2 0.0254(6) 0.0280(7) 0.0449(9) 0.0130(6) 0.0133(6) 0.0098(6)
O1 0.031(2) 0.025(2) 0.034(2) 0.0104(18) 0.0139(19) 0.0182(18)
C1 0.032(3) 0.029(3) 0.038(4) 0.018(3) 0.021(3) 0.019(3)
C2 0.025(3) 0.013(2) 0.032(3) 0.003(2) 0.012(2) 0.006(2)
O2 0.027(2) 0.027(2) 0.044(3) 0.0161(19) 0.021(2) 0.0174(18)
C3 0.056(5) 0.084(7) 0.046(5) 0.033(5) 0.024(4) 0.044(5)
O3 0.033(2) 0.030(2) 0.051(3) 0.022(2) 0.029(2) 0.0202(19)
C4 0.040(4) 0.036(3) 0.057(5) 0.021(3) 0.027(4) 0.024(3)
C5 0.064(6) 0.081(7) 0.061(6) -0.004(5) 0.016(5) 0.049(6)
O4 0.028(2) 0.0204(19) 0.031(2) 0.0082(17) 0.0028(17) 0.0144(17)
C6 0.024(3) 0.017(3) 0.025(3) 0.000(2) 0.005(2) 0.009(2)
C7 0.023(3) 0.014(3) 0.022(3) 0.005(2) 0.008(2) 0.009(2)
O5 0.024(2) 0.022(2) 0.050(3) 0.009(2) 0.009(2) 0.0127(18)
C8 0.054(5) 0.113(9) 0.034(4) 0.002(5) 0.008(4) 0.061(6)
O6 0.023(2) 0.027(2) 0.045(3) 0.012(2) 0.0060(19) 0.0133(19)
C9 0.030(3) 0.035(4) 0.046(4) 0.014(3) 0.018(3) 0.020(3)
C10 0.054(5) 0.105(8) 0.046(5) 0.005(5) 0.002(4) 0.065(6)
O7 0.0209(19) 0.030(2) 0.036(3) 0.0156(19) 0.0094(17) 0.0142(17)
C11 0.029(3) 0.030(3) 0.045(4) 0.021(3) 0.016(3) 0.018(3)
C12 0.024(3) 0.023(3) 0.033(3) 0.007(2) 0.010(2) 0.016(2)
O8 0.026(2) 0.022(2) 0.043(3) 0.0156(19) 0.0097(19) 0.0134(18)
C13 0.058(5) 0.094(7) 0.037(5) 0.030(5) 0.021(4) 0.051(5)
O9 0.027(2) 0.031(2) 0.045(3) 0.017(2) 0.011(2) 0.0177(19)
C14 0.034(3) 0.030(3) 0.049(4) 0.014(3) 0.009(3) 0.019(3)
C15 0.028(4) 0.076(6) 0.055(6) 0.006(5) 0.003(3) 0.020(4)
O10 0.0227(18) 0.0164(19) 0.040(3) 0.0019(17) 0.0137(18) 0.0089(16)
C16 0.035(3) 0.019(3) 0.028(3) 0.006(2) 0.010(3) 0.014(2)
C17 0.031(3) 0.016(3) 0.031(3) 0.008(2) 0.014(2) 0.014(2)
O11 0.027(2) 0.019(2) 0.049(3) 0.0080(19) 0.018(2) 0.0119(17)
C18 0.039(4) 0.060(5) 0.041(4) 0.000(4) 0.005(3) 0.024(4)
O12 0.033(2) 0.023(2) 0.039(3) 0.0033(18) 0.017(2) 0.0147(18)
C19 0.031(3) 0.035(4) 0.056(5) 0.012(3) 0.021(3) 0.020(3)
C20 0.051(5) 0.076(6) 0.065(6) 0.021(5) 0.038(5) 0.039(5)
loop_
_atom_type_symbol
_atom_type_description
_atom_type_scat_dispersion_real
_atom_type_scat_dispersion_imag
_atom_type_scat_source
C C 0.0181 0.0091 'International Tables Vol C Tables 4.2.6.8 and 6.1.1.4'
H H 0.0000 0.0000 'International Tables Vol C Tables 4.2.6.8 and 6.1.1.4'
O O 0.0492 0.0322 'International Tables Vol C Tables 4.2.6.8 and 6.1.1.4'
Cl Cl 0.3639 0.7018 'International Tables Vol C Tables 4.2.6.8 and 6.1.1.4'
Ca Ca 0.3641 1.2855 'International Tables Vol C Tables 4.2.6.8 and 6.1.1.4'
loop_
_geom_angle_atom_site_label_1
_geom_angle_atom_site_label_2
_geom_angle_atom_site_label_3
_geom_angle
O11 Ca1 O5 73.80(17)
O11 Ca1 O2 134.70(15)
O5 Ca1 O2 124.85(19)
O11 Ca1 O8 125.04(19)
O5 Ca1 O8 134.33(16)
O2 Ca1 O8 74.41(16)
O11 Ca1 O4 137.16(16)
O5 Ca1 O4 65.11(16)
O2 Ca1 O4 81.63(16)
O8 Ca1 O4 80.09(16)
O11 Ca1 O10 65.32(16)
O5 Ca1 O10 137.26(15)
O2 Ca1 O10 80.11(16)
O8 Ca1 O10 82.10(17)
O4 Ca1 O10 157.31(15)
O11 Ca1 O7 81.24(16)
O5 Ca1 O7 80.15(17)
O2 Ca1 O7 137.80(15)
O8 Ca1 O7 65.06(15)
O4 Ca1 O7 80.42(17)
O10 Ca1 O7 104.57(17)
O11 Ca1 O1 80.70(16)
O5 Ca1 O1 81.09(16)
O2 Ca1 O1 64.93(15)
O8 Ca1 O1 137.87(15)
O4 Ca1 O1 103.60(17)
O10 Ca1 O1 80.62(17)
O7 Ca1 O1 156.92(14)
O11 Ca1 C17 18.59(16)
O5 Ca1 C17 91.70(17)
O2 Ca1 C17 119.64(16)
O8 Ca1 C17 115.15(18)
O4 Ca1 C17 155.75(16)
O10 Ca1 C17 46.76(15)
O7 Ca1 C17 89.03(16)
O1 Ca1 C17 78.19(16)
O11 Ca1 C12 114.82(17)
O5 Ca1 C12 119.53(16)
O2 Ca1 C12 92.19(16)
O8 Ca1 C12 18.39(15)
O4 Ca1 C12 77.72(16)
O10 Ca1 C12 89.60(17)
O7 Ca1 C12 46.71(14)
O1 Ca1 C12 156.26(15)
C17 Ca1 C12 110.50(17)
O11 Ca1 C2 119.71(15)
O5 Ca1 C2 114.45(18)
O2 Ca1 C2 18.65(16)
O8 Ca1 C2 92.50(17)
O4 Ca1 C2 89.05(16)
O10 Ca1 C2 77.76(16)
O7 Ca1 C2 156.44(15)
O1 Ca1 C2 46.32(15)
C17 Ca1 C2 108.02(15)
C12 Ca1 C2 110.56(16)
O11 Ca1 C7 91.61(17)
O5 Ca1 C7 18.38(15)
O2 Ca1 C7 114.66(17)
O8 Ca1 C7 119.66(16)
O4 Ca1 C7 46.75(15)
O10 Ca1 C7 155.61(14)
O7 Ca1 C7 78.02(16)
O1 Ca1 C7 88.24(16)
C17 Ca1 C7 109.81(16)
C12 Ca1 C7 108.20(16)
C2 Ca1 C7 109.74(17)
C1 O1 Ca1 122.0(4)
O1 C1 C2 106.8(5)
O1 C1 C3 112.3(6)
C2 C1 C3 113.5(6)
O2 C2 O3 123.7(6)
O2 C2 C1 123.9(5)
O3 C2 C1 112.4(5)
O3 C2 Ca1 162.9(4)
C1 C2 Ca1 84.7(3)
C2 O2 Ca1 122.1(4)
C2 O3 C4 117.4(5)
O3 C4 C5 108.0(7)
C6 O4 Ca1 122.3(3)
O4 C6 C7 107.7(5)
O4 C6 C8 110.9(6)
C7 C6 C8 111.7(6)
O5 C7 O6 125.2(5)
O5 C7 C6 121.9(5)
O6 C7 C6 113.0(5)
O6 C7 Ca1 163.8(4)
C6 C7 Ca1 83.2(3)
C7 O5 Ca1 122.9(4)
C7 O6 C9 117.1(5)
O6 C9 C10 107.6(6)
C11 O7 Ca1 122.3(3)
O7 C11 C12 106.2(5)
O7 C11 C13 110.4(6)
C12 C11 C13 112.5(6)
O8 C12 O9 124.8(5)
O8 C12 C11 124.1(5)
O9 C12 C11 111.1(5)
O9 C12 Ca1 164.1(4)
C11 C12 Ca1 84.8(3)
C12 O8 Ca1 122.2(4)
C12 O9 C14 116.8(5)
O9 C14 C15 108.1(7)
C16 O10 Ca1 122.1(4)
O10 C16 C17 107.3(5)
O10 C16 C18 111.9(6)
C17 C16 C18 111.4(6)
O11 C17 O12 124.8(6)
O11 C17 C16 122.7(5)
O12 C17 C16 112.5(5)
O12 C17 Ca1 163.9(4)
C16 C17 Ca1 83.5(3)
C17 O11 Ca1 122.2(4)
C17 O12 C19 116.8(5)
O12 C19 C20 106.8(7)
loop_
_geom_bond_atom_site_label_1
_geom_bond_atom_site_label_2
_geom_bond_distance
Ca1 O11 2.403(4)
Ca1 O5 2.405(5)
Ca1 O2 2.407(4)
Ca1 O8 2.416(5)
Ca1 O4 2.425(5)
Ca1 O10 2.442(5)
Ca1 O7 2.451(5)
Ca1 O1 2.455(5)
Ca1 C17 3.216(6)
Ca1 C12 3.220(6)
Ca1 C2 3.223(6)
Ca1 C7 3.229(6)
O1 C1 1.420(7)
C1 C2 1.497(8)
C1 C3 1.508(12)
C2 O2 1.217(8)
C2 O3 1.337(7)
O3 C4 1.460(8)
C4 C5 1.475(12)
O4 C6 1.414(7)
C6 C7 1.510(7)
C6 C8 1.519(10)
C7 O5 1.213(8)
C7 O6 1.312(8)
O6 C9 1.469(7)
C9 C10 1.490(12)
O7 C11 1.427(8)
C11 C12 1.519(8)
C11 C13 1.529(12)
C12 O8 1.201(8)
C12 O9 1.332(7)
O9 C14 1.472(8)
C14 C15 1.490(12)
O10 C16 1.401(7)
C16 C17 1.522(9)
C16 C18 1.533(11)
C17 O11 1.212(8)
C17 O12 1.316(7)
O12 C19 1.474(8)
C19 C20 1.503(11)
loop_
_geom_hbond_atom_site_label_D
_geom_hbond_atom_site_label_H
_geom_hbond_atom_site_label_A
_geom_hbond_distance_DH
_geom_hbond_distance_HA
_geom_hbond_distance_DA
_geom_hbond_angle_DHA
_geom_hbond_site_symmetry_A
O1 H1 Cl1 0.84 2.28 3.046(5) 152.3 1_545
C4 H4A Cl1 0.99 2.74 3.631(9) 150.4 1_445
O4 H4 Cl1 0.84 2.22 3.038(5) 165.6 .
C9 H9A Cl1 0.99 2.70 3.615(7) 153.0 1_655
O7 H7 Cl2 0.84 2.24 3.045(5) 159.4 .
C14 H14A Cl2 0.99 2.68 3.618(8) 157.9 1_455
O10 H10 Cl2 0.84 2.24 3.036(5) 158.1 1_445
C19 H19A Cl2 0.99 2.72 3.607(8) 149.3 1_545
loop_
_geom_torsion_atom_site_label_1
_geom_torsion_atom_site_label_2
_geom_torsion_atom_site_label_3
_geom_torsion_atom_site_label_4
_geom_torsion
Ca1 O1 C1 C2 -3.8(7)
Ca1 O1 C1 C3 -128.9(6)
O1 C1 C2 O2 0.9(9)
C3 C1 C2 O2 125.2(8)
O1 C1 C2 O3 -177.1(5)
C3 C1 C2 O3 -52.8(8)
O1 C1 C2 Ca1 2.5(5)
C3 C1 C2 Ca1 126.8(6)
O3 C2 O2 Ca1 -179.7(5)
C1 C2 O2 Ca1 2.5(8)
O2 C2 O3 C4 6.2(10)
C1 C2 O3 C4 -175.7(6)
Ca1 C2 O3 C4 5.5(18)
C2 O3 C4 C5 -147.2(7)
Ca1 O4 C6 C7 -2.0(6)
Ca1 O4 C6 C8 -124.5(6)
O4 C6 C7 O5 -0.1(8)
C8 C6 C7 O5 121.9(8)
O4 C6 C7 O6 -179.1(5)
C8 C6 C7 O6 -57.1(8)
O4 C6 C7 Ca1 1.3(4)
C8 C6 C7 Ca1 123.3(6)
O6 C7 O5 Ca1 -178.9(4)
C6 C7 O5 Ca1 2.2(8)
O5 C7 O6 C9 5.8(9)
C6 C7 O6 C9 -175.2(5)
Ca1 C7 O6 C9 3.3(17)
C7 O6 C9 C10 -139.5(7)
Ca1 O7 C11 C12 -1.8(7)
Ca1 O7 C11 C13 -124.0(6)
O7 C11 C12 O8 -1.1(9)
C13 C11 C12 O8 119.8(8)
O7 C11 C12 O9 -178.7(5)
C13 C11 C12 O9 -57.8(8)
O7 C11 C12 Ca1 1.2(5)
C13 C11 C12 Ca1 122.1(6)
O9 C12 O8 Ca1 -179.2(5)
C11 C12 O8 Ca1 3.6(9)
O8 C12 O9 C14 6.6(10)
C11 C12 O9 C14 -175.9(6)
Ca1 C12 O9 C14 4.7(19)
C12 O9 C14 C15 -137.1(7)
Ca1 O10 C16 C17 -7.1(6)
Ca1 O10 C16 C18 -129.5(5)
O10 C16 C17 O11 4.1(8)
C18 C16 C17 O11 126.8(7)
O10 C16 C17 O12 -176.9(5)
C18 C16 C17 O12 -54.1(8)
O10 C16 C17 Ca1 4.6(4)
C18 C16 C17 Ca1 127.3(5)
O12 C17 O11 Ca1 -178.2(5)
C16 C17 O11 Ca1 0.8(8)
O11 C17 O12 C19 5.3(10)
C16 C17 O12 C19 -173.7(5)
Ca1 C17 O12 C19 1.1(19)
C17 O12 C19 C20 -145.3(7)
