#------------------------------------------------------------------------------
#$Date: 2016-02-13 21:28:24 +0200 (Sat, 13 Feb 2016) $
#$Revision: 176429 $
#$URL: svn://www.crystallography.net/cod/cif/4/51/33/4513317.cif $
#------------------------------------------------------------------------------
#
# This file is available in the Crystallography Open Database (COD),
# http://www.crystallography.net/
#
# All data on this site have been placed in the public domain by the
# contributors.
#
data_4513317
loop_
_publ_author_name
'Lusi, Matteo'
'Vitorica-Yrezabal, Inigo J.'
'Zaworotko, Michael J.'
_publ_section_title
;
 Expanding the Scope of Molecular Mixed Crystals Enabled by Three
 Component Solid Solutions
;
_journal_issue                   8
_journal_name_full               'Crystal Growth &amp; Design'
_journal_page_first              4098
_journal_paper_doi               10.1021/acs.cgd.5b00685
_journal_volume                  15
_journal_year                    2015
_chemical_formula_sum            'C12.1 H8.1 N1.9'
_chemical_formula_weight         180.11
_chemical_name_systematic
;
 ?
;
_space_group_crystal_system      monoclinic
_space_group_IT_number           14
_space_group_name_Hall           '-P 2yn'
_space_group_name_H-M_alt        'P 1 21/n 1'
_symmetry_space_group_name_Hall  '-P 2yn'
_symmetry_space_group_name_H-M   'P 1 21/n 1'
_atom_sites_solution_hydrogens   geom
_audit_creation_method           SHELXL-2014
_cell_angle_alpha                90
_cell_angle_beta                 103.047(2)
_cell_angle_gamma                90
_cell_formula_units_Z            2
_cell_length_a                   7.0768(5)
_cell_length_b                   4.9901(4)
_cell_length_c                   12.6004(10)
_cell_measurement_temperature    100(2)
_cell_volume                     433.48(6)
_computing_structure_refinement  'SHELXL-2014 (Sheldrick, 2014)'
_diffrn_ambient_temperature      100(2)
_diffrn_measured_fraction_theta_full 1.000
_diffrn_measured_fraction_theta_max 0.998
_diffrn_radiation_type           MoK\a
_diffrn_radiation_wavelength     0.71073
_diffrn_reflns_av_R_equivalents  0.0556
_diffrn_reflns_av_unetI/netI     0.0403
_diffrn_reflns_Laue_measured_fraction_full 1.000
_diffrn_reflns_Laue_measured_fraction_max 0.998
_diffrn_reflns_limit_h_max       11
_diffrn_reflns_limit_h_min       -11
_diffrn_reflns_limit_k_max       8
_diffrn_reflns_limit_k_min       -8
_diffrn_reflns_limit_l_max       20
_diffrn_reflns_limit_l_min       -20
_diffrn_reflns_number            14585
_diffrn_reflns_point_group_measured_fraction_full 1.000
_diffrn_reflns_point_group_measured_fraction_max 0.998
_diffrn_reflns_theta_full        25.242
_diffrn_reflns_theta_max         36.348
_diffrn_reflns_theta_min         3.045
_exptl_absorpt_coefficient_mu    0.084
_exptl_absorpt_correction_T_max  0.75
_exptl_absorpt_correction_T_min  0.69
_exptl_absorpt_correction_type   multi-scan
_exptl_absorpt_process_details   sadabs
_exptl_crystal_colour            yellow
_exptl_crystal_density_diffrn    1.380
_exptl_crystal_description       needle
_exptl_crystal_F_000             188
_refine_diff_density_max         0.504
_refine_diff_density_min         -0.276
_refine_diff_density_rms         0.072
_refine_ls_extinction_method     none
_refine_ls_goodness_of_fit_ref   1.033
_refine_ls_hydrogen_treatment    constr
_refine_ls_matrix_type           full
_refine_ls_number_parameters     65
_refine_ls_number_reflns         2106
_refine_ls_number_restraints     0
_refine_ls_restrained_S_all      1.033
_refine_ls_R_factor_all          0.0928
_refine_ls_R_factor_gt           0.0568
_refine_ls_shift/su_max          0.000
_refine_ls_shift/su_mean         0.000
_refine_ls_structure_factor_coef Fsqd
_refine_ls_weighting_details
'w=1/[\s^2^(Fo^2^)+(0.0740P)^2^+0.1762P] where P=(Fo^2^+2Fc^2^)/3'
_refine_ls_weighting_scheme      calc
_refine_ls_wR_factor_gt          0.1377
_refine_ls_wR_factor_ref         0.1561
_reflns_Friedel_coverage         0.000
_reflns_number_gt                1456
_reflns_number_total             2106
_reflns_threshold_expression     'I > 2\s(I)'
_cod_data_source_file            cg5b00685_si_009.cif
_cod_data_source_block           D:\#8
_cod_depositor_comments
'Adding full bibliography for 4513301--4513322.cif.'
_cod_original_formula_sum        'C12.10 H8.10 N1.90'
_cod_database_code               4513317
#BEGIN Tags that were not found in dictionaries:
_shelx_space_group_comment
;
The symmetry employed for this shelxl refinement is uniquely defined
by the following loop, which should always be used as a source of
symmetry information in preference to the above space-group names.
They are only intended as comments.
;
_shelxl_version_number           2014-3
_shelx_res_file
;
REM  ml040b_0m in P2(1)/n
REM R1 =  0.0805 for    1456 Fo > 4sig(Fo)  and  0.1154 for all    2106 data
REM     65 parameters refined using      0 restraints
REM Highest difference peak  1.007,  deepest hole -0.323,  1-sigma level  0.132
TITL ml040b_0m in P2(1)/n
CELL 0.71073 7.0768 4.9901 12.6004 90.000 103.047 90.000
ZERR 2.0000 0.0005 0.0004 0.0010 0.000 0.002 0.000
LATT 1
SYMM 0.5-X, 0.5+Y, 0.5-Z
SFAC C H N
UNIT 24.19 16.19 3.81
MERG 2
FMAP 2
GRID
PLAN 5
TEMP -173
BOND
EXYZ N1 C1
EADP N1 C1
L.S. 20
ACTA
WGHT    0.074000    0.176200
FVAR       0.48424   0.95195
PART 1
N1    3    0.198464    0.060328    0.047845    21.00000    0.01113    0.01361 =
         0.01557    0.00002    0.00208   -0.00048
PART 2
C1    1    0.198464    0.060328    0.047845   -21.00000    0.01113    0.01361 =
         0.01557    0.00002    0.00208   -0.00048
AFIX  43
H1    2    0.330283    0.100539    0.079695   -21.00000   -1.20000
PART 0
AFIX   0
C2    1    0.148321   -0.131023   -0.028957    11.00000    0.01114    0.01207 =
         0.01428    0.00149    0.00248   -0.00062
C3    1    0.297121   -0.277722   -0.063259    11.00000    0.01130    0.01565 =
         0.01943    0.00067    0.00437   -0.00001
AFIX  43
H3    2    0.429631   -0.239999   -0.032148    11.00000   -1.20000
AFIX   0
C4    1    0.248839   -0.472377   -0.140847    11.00000    0.01581    0.01610 =
         0.02014   -0.00009    0.00743    0.00077
AFIX  43
H4    2    0.348510   -0.570436   -0.162885    11.00000   -1.20000
AFIX   0
C5    1    0.051739    0.191237    0.076937    11.00000    0.01169    0.01230 =
         0.01381    0.00118    0.00188   -0.00076
C6    1    0.095157    0.395616    0.157943    11.00000    0.01422    0.01676 =
         0.01674   -0.00263    0.00151   -0.00165
AFIX  43
H6    2    0.226399    0.438038    0.190261    11.00000   -1.20000
AFIX   0
C7    1   -0.050926    0.530369    0.189192    11.00000    0.01921    0.01645 =
         0.01687   -0.00278    0.00424   -0.00133
AFIX  43
H7    2   -0.020388    0.664567    0.243865    11.00000   -1.20000
AFIX   0
HKLF 4

REM  ml040b_0m in P2(1)/n
REM R1 =  0.0568 for    1456 Fo > 4sig(Fo)  and  0.0928 for all    2106 data
REM     65 parameters refined using      0 restraints

END

WGHT      0.0740      0.1768

REM Highest difference peak  0.504,  deepest hole -0.276,  1-sigma level  0.072
Q1    1   0.0873  0.2873  0.1209  11.00000  0.05    0.50
Q2    1   0.2752 -0.3804 -0.1007  11.00000  0.05    0.49
Q3    1   0.2263 -0.2029 -0.0468  11.00000  0.05    0.48
Q4    1  -0.0399  0.1417  0.0548  11.00000  0.05    0.45
Q5    1  -0.1456  0.4893  0.1596  11.00000  0.05    0.42
;
_shelx_res_checksum              11449
_shelx_hkl_file
;
   1   0   0   -0.17    0.06
   1   0   0   -0.03    0.04
   1   0   0   -0.08    0.04
  -1   0   0   -0.11    0.05
  -2   0   0   86.56    1.75
   2   0   0   86.40    1.60
   2   0   0   91.42    1.81
  -2   0   0   90.21    1.61
   2   0   0   85.71    1.88
  -2   0   0   86.95    1.76
   3   0   0   -0.10    0.14
   3   0   0   -0.02    0.12
   3   0   0    0.07    0.15
  -3   0   0    0.18    0.21
  -3   0   0    0.03    0.10
   3   0   0    0.00    0.16
  -4   0   0   15.94    0.43
   4   0   0   15.60    0.68
   5   0   0    0.15    0.20
   5   0   0    0.63    0.28
   5   0   0    0.49    0.29
  -6   0   0    7.68    0.90
   6   0   0   10.41    0.54
   6   0   0   10.63    0.91
   7   0   0   -0.16    0.42
   7   0   0    0.75    0.38
  -7   0   0   -0.66    0.48
  -8   0   0   16.83    1.12
   8   0   0   16.95    1.21
   8   0   0   16.97    1.09
  -8   0   0   17.12    1.22
  -9   0   0   -1.14    0.78
   9   0   0    0.41    0.74
  -9   0   0   -0.37    0.69
   9   0   0    1.46    0.69
  10   0   0    1.44    1.61
 -10   0   0    0.50    0.97
 -10   0   0    1.52    1.06
  10   0   0    1.20    0.87
 -11   0   0   -2.66    1.23
 -11   0   0    0.83    1.35
  11   0   0   -0.33    1.06
   0  -1   0   -0.10    0.08
   0  -1   0   -0.16    0.09
   0  -1   0   -0.05    0.09
   0   1   0   -0.05    0.09
   0   1   0    0.05    0.10
   0   1   0   -0.07    0.07
   0   1   0   -0.14    0.09
  -1  -1   0   18.37    0.50
   1  -1   0   18.47    0.50
   1  -1   0   18.34    0.51
   1  -1   0   18.49    0.53
  -1  -1   0   18.76    0.50
  -1  -1   0   18.73    0.58
   1   1   0   18.17    0.47
  -1   1   0   18.95    0.56
  -1   1   0   18.01    0.47
  -1   1   0   17.83    0.53
   1   1   0   18.22    0.54
   1   1   0   18.05    0.54
  -2  -1   0  123.26    2.36
  -2  -1   0  123.77    2.51
   2  -1   0  123.10    2.43
  -2  -1   0  119.87    2.37
   2  -1   0  122.63    2.42
   2   1   0  122.18    2.21
   2   1   0  117.02    2.43
  -2   1   0  117.44    2.53
  -2   1   0  123.59    2.26
   2   1   0  121.34    2.43
   2   1   0  121.05    2.47
  -2   1   0  126.31    2.50
   2   1   0  123.83    2.50
   3  -1   0  144.59    2.97
  -3  -1   0  150.20    3.12
   3  -1   0  156.13    3.02
   3  -1   0  150.32    2.99
  -3  -1   0  149.11    2.95
   3  -1   0  151.79    2.75
  -3  -1   0  146.96    2.96
   3   1   0  147.68    2.95
  -3   1   0  147.92    3.02
   3   1   0  148.53    3.10
  -3   1   0  148.03    2.92
   3   1   0  149.89    2.91
   3   1   0  152.57    3.09
   4  -1   0   11.86    0.62
   4  -1   0   12.06    0.41
  -4  -1   0   12.05    0.68
  -4  -1   0   11.85    0.59
   4  -1   0   12.14    0.68
   4  -1   0   12.29    0.62
  -4  -1   0   11.49    0.82
  -4   1   0   12.29    0.56
   4   1   0   12.43    0.61
   4   1   0   12.13    0.57
   4   1   0   12.44    0.66
   4   1   0   12.40    0.65
  -4   1   0   11.53    0.64
   5  -1   0   43.00    1.35
  -5  -1   0   44.23    1.49
   5  -1   0   46.49    1.02
   5  -1   0   43.99    1.34
  -5  -1   0   42.64    1.47
   5  -1   0   46.70    1.39
   5   1   0   46.39    1.48
   5   1   0   46.35    1.38
  -5   1   0   43.58    1.38
   5   1   0   44.71    1.24
  -5   1   0   44.61    1.19
   5   1   0   43.20    1.46
  -6  -1   0   55.31    2.12
  -6  -1   0   59.45    2.37
   6  -1   0   57.72    1.79
   6  -1   0   57.41    1.30
   6   1   0   57.96    1.56
   6   1   0   58.12    1.91
  -6   1   0   58.65    1.47
   6   1   0   59.13    1.85
   7  -1   0    1.66    0.50
  -7  -1   0    1.45    0.50
   7  -1   0    1.83    0.50
  -7  -1   0    0.98    0.38
   7   1   0    1.37    0.43
   7   1   0    1.10    0.49
   7   1   0    0.49    0.38
   8  -1   0   14.09    1.13
   8  -1   0   13.07    0.97
  -8  -1   0   12.11    1.18
  -8  -1   0   14.97    1.68
   8   1   0   12.22    1.17
   9  -1   0    0.11    0.69
   9  -1   0   -0.40    0.78
  -9  -1   0    0.55    1.09
  -9  -1   0    0.35    0.78
   9   1   0    0.14    0.72
  -9   1   0   -0.35    0.78
 -10  -1   0   -2.06    1.03
  10  -1   0   -0.97    1.20
 -10  -1   0   -0.47    0.89
  10  -1   0   -1.02    0.86
 -10   1   0    0.70    1.01
 -10   1   0   -0.90    1.07
 -11  -1   0    0.21    1.13
 -11  -1   0   -0.01    1.37
  11  -1   0    0.02    1.10
 -11   1   0   -0.25    1.35
  11   1   0    1.08    1.14
   0  -2   0   72.56    1.64
   0  -2   0   73.71    1.62
   0   2   0   73.75    1.60
   0   2   0   73.45    1.65
   0   2   0   73.16    1.62
   0   2   0   73.93    1.67
   1  -2   0    0.25    0.17
   1  -2   0    0.21    0.17
   1  -2   0   -0.19    0.16
  -1  -2   0   -0.12    0.19
  -1  -2   0    0.04    0.18
  -1  -2   0   -0.05    0.13
   1   2   0    0.03    0.18
  -1   2   0    0.16    0.21
   1   2   0   -0.09    0.17
  -1   2   0   -0.15    0.16
   1   2   0    0.09    0.17
  -1   2   0    0.25    0.17
  -1   2   0    0.07    0.17
   2  -2   0   26.84    0.83
   2  -2   0   27.69    0.88
  -2  -2   0   26.49    0.93
   2  -2   0   27.13    0.80
  -2  -2   0   26.60    0.81
  -2  -2   0   27.36    0.83
  -2   2   0   27.45    0.77
   2   2   0   26.05    0.77
  -2   2   0   26.87    0.89
  -2   2   0   26.40    0.88
   2   2   0   27.14    0.89
   2   2   0   26.65    0.88
   2   2   0   26.72    0.80
   3  -2   0   98.96    2.24
   3  -2   0   95.49    2.14
  -3  -2   0   98.20    2.13
  -3  -2   0   92.53    2.29
   3  -2   0   97.20    2.12
  -3  -2   0   95.19    2.15
   3   2   0   98.09    1.92
  -3   2   0   94.88    2.19
   3   2   0   95.93    2.26
  -3   2   0   95.24    2.21
  -3   2   0   94.30    1.98
   3   2   0   97.12    2.43
   3   2   0   96.14    2.20
  -4  -2   0    6.25    0.50
  -4  -2   0    7.23    0.68
  -4  -2   0    6.83    0.60
   4  -2   0    6.00    0.48
   4  -2   0    6.23    0.69
   4   2   0    5.67    0.57
  -4   2   0    5.93    0.61
   4   2   0    7.12    0.71
  -4   2   0    5.52    0.56
   5  -2   0   18.85    0.89
  -5  -2   0   18.58    0.91
   5  -2   0   18.48    0.90
   5   2   0   19.15    0.89
  -5   2   0   19.48    1.00
   5   2   0   18.14    1.16
  -5   2   0   19.58    0.89
   6  -2   0    5.53    0.82
  -6  -2   0    5.08    0.61
   6  -2   0    4.26    0.70
  -6  -2   0    4.82    0.90
   6   2   0    6.01    0.70
   6   2   0    4.78    0.65
  -6   2   0    5.21    0.75
  -6   2   0    5.76    0.90
   7  -2   0    7.05    0.74
  -7  -2   0    7.47    0.74
   7  -2   0    8.86    1.00
  -7  -2   0    5.65    1.06
  -7   2   0    6.40    1.05
   7   2   0    6.81    0.79
  -8  -2   0    2.31    0.72
   8  -2   0    2.78    0.70
  -8  -2   0    3.01    0.59
   8  -2   0    1.70    0.54
   8   2   0    1.75    0.68
   9  -2   0    3.28    0.96
   9  -2   0    3.11    0.78
  -9  -2   0    3.13    1.22
   9   2   0    3.48    0.84
 -10  -2   0   -1.04    1.16
  10  -2   0    2.76    0.94
 -10  -2   0   -0.05    0.90
  10   2   0    3.54    1.57
 -11  -2   0    2.29    1.56
  11  -2   0    1.02    1.23
 -11  -2   0    2.00    1.22
  11   2   0   -0.83    1.30
   0  -3   0    0.04    0.26
   0  -3   0   -0.11    0.19
   0   3   0   -0.12    0.23
   0   3   0   -0.25    0.21
   0   3   0   -0.21    0.25
   0   3   0    0.11    0.22
   1  -3   0   52.27    1.42
  -1  -3   0   51.89    1.43
  -1  -3   0   52.01    1.50
   1  -3   0   52.94    1.38
   1  -3   0   52.39    1.43
   1   3   0   47.77    1.64
  -1   3   0   52.56    1.49
  -1   3   0   52.82    1.44
  -1   3   0   53.37    1.39
  -1   3   0   53.65    1.64
   1   3   0   53.05    1.50
   1   3   0   52.88    1.60
  -2  -3   0    1.01    0.43
   2  -3   0    1.52    0.31
  -2  -3   0    1.39    0.27
   2  -3   0    1.67    0.31
   2  -3   0    1.93    0.30
  -2  -3   0    1.16    0.32
   2   3   0    1.19    0.33
  -2   3   0    1.63    0.33
  -2   3   0    1.08    0.27
   2   3   0    1.39    0.32
   2   3   0    1.15    0.26
   2   3   0    1.88    0.33
  -3  -3   0    0.88    0.40
   3  -3   0    0.51    0.29
  -3  -3   0    0.91    0.28
   3  -3   0    1.09    0.28
  -3  -3   0    0.46    0.50
   3  -3   0    0.88    0.30
   3   3   0    0.83    0.34
  -3   3   0    0.63    0.27
   3   3   0    0.70    0.27
  -3   3   0    0.73    0.34
   3   3   0    0.98    0.35
  -3   3   0    0.26    0.33
  -4  -3   0    4.17    0.65
  -4  -3   0    4.26    0.63
   4  -3   0    3.89    0.54
   4  -3   0    4.86    0.62
   4  -3   0    4.43    0.64
   4   3   0    4.81    0.44
  -4   3   0    3.62    0.48
  -4   3   0    4.81    0.50
   4   3   0    3.59    0.62
  -4   3   0    5.49    0.71
   4   3   0    5.13    0.68
   5  -3   0    0.41    0.39
  -5  -3   0    0.79    0.46
   5  -3   0    0.91    0.35
   5  -3   0    0.73    0.43
   5  -3   0    0.90    0.46
  -5   3   0    0.84    0.44
   5   3   0    0.51    0.45
  -5   3   0    0.23    0.81
  -5   3   0    0.16    0.36
   5   3   0    0.24    0.38
   6  -3   0   -0.28    0.39
   6  -3   0    0.48    0.57
  -6  -3   0    0.91    0.37
  -6  -3   0    1.19    0.52
  -6   3   0    0.92    0.60
   6   3   0   -0.46    0.43
   6   3   0    0.09    0.43
  -6   3   0    0.19    0.57
   7  -3   0    0.59    0.57
  -7  -3   0    0.69    0.46
   7  -3   0   -0.24    0.46
  -7  -3   0    0.86    0.64
  -7   3   0    1.12    0.73
   7   3   0   -0.70    0.49
  -7   3   0   -0.44    0.62
   7   3   0    0.04    0.56
  -8  -3   0    7.56    1.25
  -8  -3   0    5.23    1.03
   8  -3   0    6.81    1.06
   8  -3   0    6.22    1.11
   8   3   0    5.55    0.97
   8   3   0    6.26    1.00
   9  -3   0   11.05    1.83
  -9  -3   0   11.65    1.49
  -9  -3   0   13.44    1.83
   9   3   0   10.26    1.57
  10  -3   0    1.99    1.04
 -10  -3   0    1.42    1.36
 -10  -3   0    1.51    1.02
  10   3   0    0.59    1.09
   0  -4   0    2.72    0.40
   0  -4   0    2.02    0.42
   0  -4   0    3.85    0.61
   0   4   0    2.89    0.43
   0   4   0    2.31    0.47
   0   4   0    4.24    0.69
   0   4   0    2.63    0.48
  -1  -4   0    1.30    0.42
   1  -4   0    1.34    0.36
  -1  -4   0    1.62    0.38
   1  -4   0    1.02    0.35
   1  -4   0    1.65    0.40
  -1   4   0    2.49    0.47
   1   4   0    1.27    0.41
   1   4   0    1.14    0.54
   1   4   0    1.22    0.39
  -1   4   0    1.47    0.40
  -1   4   0    1.77    0.44
  -2  -4   0    4.32    0.56
   2  -4   0    5.26    0.68
   2  -4   0    6.31    0.62
   2  -4   0    5.89    0.65
   2   4   0    5.73    0.82
  -2   4   0    6.63    0.86
   2   4   0    4.68    0.82
  -2   4   0    4.72    0.73
  -2   4   0    5.07    0.67
   2   4   0    4.98    0.62
  -3  -4   0   52.51    1.64
   3  -4   0   52.56    1.70
  -3  -4   0   52.75    1.83
   3  -4   0   53.73    2.01
   3  -4   0   54.43    1.71
  -3   4   0   53.57    1.60
  -3   4   0   53.18    1.80
  -3   4   0   53.74    1.73
   3   4   0   53.70    1.75
   3   4   0   50.59    1.74
   3   4   0   51.05    1.52
   4  -4   0   46.35    1.83
   4  -4   0   45.62    1.81
  -4  -4   0   49.50    2.20
   4  -4   0   48.12    1.68
  -4  -4   0   48.20    1.56
  -4   4   0   46.01    1.44
   4   4   0   45.17    1.66
  -4   4   0   48.44    1.74
  -4   4   0   48.10    1.75
   4   4   0   45.34    1.87
   4   4   0   48.31    1.40
   5  -4   0    9.94    1.13
  -5  -4   0    9.84    0.82
  -5  -4   0   10.87    1.31
   5  -4   0    9.85    0.78
   5   4   0   10.66    0.89
  -5   4   0    9.63    0.97
  -5   4   0    8.78    1.15
   5   4   0    7.87    0.93
  -6  -4   0    3.18    0.53
  -6  -4   0    2.55    0.74
   6  -4   0    2.78    0.51
  -6   4   0    2.93    0.67
   6   4   0    2.86    0.69
   6   4   0    1.81    0.55
   7  -4   0    3.42    0.92
  -7  -4   0    3.10    0.96
   7  -4   0    4.70    0.66
  -7  -4   0    3.36    0.67
   7   4   0    2.46    0.67
  -7   4   0    4.57    1.21
   7   4   0    4.37    0.89
  -8  -4   0    2.72    0.76
  -8  -4   0    3.02    1.08
   8  -4   0    1.28    0.77
   8   4   0    3.59    1.05
   8   4   0    2.77    0.84
  -9  -4   0   -2.20    1.18
  -9  -4   0   -1.49    0.88
   9   4   0    1.37    1.03
 -10  -4   0    1.31    1.66
 -10  -4   0   -0.13    1.12
  10   4   0    0.44    1.82
   0  -5   0    0.69    0.49
   0  -5   0    0.10    0.42
   0  -5   0   -0.02    0.41
   0   5   0    0.04    0.43
   0   5   0   -0.56    0.45
   1  -5   0    4.67    0.76
  -1  -5   0    4.25    0.56
  -1  -5   0    4.16    0.64
   1  -5   0    3.93    0.61
   1  -5   0    4.22    1.16
  -1   5   0    4.31    0.62
  -1   5   0    3.01    0.65
   1   5   0    4.92    0.77
   1   5   0    3.91    0.57
  -1   5   0    5.21    0.76
   1   5   0    4.58    0.65
   2  -5   0   20.56    1.44
   2  -5   0   22.29    1.08
  -2  -5   0   23.28    1.22
   2  -5   0   20.46    1.54
  -2  -5   0   22.37    1.10
   2   5   0   23.08    1.16
  -2   5   0   21.11    1.16
  -2   5   0   18.60    1.33
   2   5   0   19.55    1.19
   2   5   0   22.00    1.09
  -3  -5   0    0.13    0.55
  -3  -5   0    1.00    0.44
   3  -5   0    1.07    0.56
   3  -5   0   -0.28    0.42
  -3   5   0    1.01    0.59
  -3   5   0    0.95    0.52
   3   5   0    0.83    0.51
   3   5   0    0.29    0.45
   3   5   0    0.67    0.50
   4  -5   0   12.46    1.17
   4  -5   0   11.07    0.95
  -4  -5   0   13.19    0.99
  -4  -5   0   11.95    1.15
   4   5   0   13.71    1.14
  -4   5   0   11.54    1.29
   4   5   0   11.42    1.30
   4   5   0   15.13    1.07
  -4   5   0   11.43    1.21
  -5  -5   0    1.96    0.75
   5  -5   0    1.78    0.71
   5  -5   0    1.13    0.52
  -5  -5   0    0.94    0.53
   5   5   0    0.43    0.69
   5   5   0    0.77    0.62
  -5   5   0   -0.11    0.66
  -6  -5   0    8.41    1.20
   6  -5   0    9.27    1.24
  -6   5   0    5.76    1.03
   6   5   0    8.73    1.25
  -7  -5   0   10.51    1.77
  -7  -5   0   11.12    1.42
   7   5   0   10.20    1.50
   7   5   0    8.74    1.45
  -8  -5   0   -1.68    1.16
  -8  -5   0    1.11    1.19
   8   5   0    1.00    0.98
   8   5   0   -1.27    1.03
  -9  -5   0   -0.70    1.11
  -9  -5   0    4.41    1.68
   9   5   0    1.60    1.43
   0  -6   0    0.15    0.60
   0  -6   0   -1.01    0.58
   0  -6   0    0.11    0.63
   0   6   0   -0.30    0.62
   0   6   0    0.77    0.59
   0   6   0   -0.46    0.58
   1  -6   0   51.85    2.01
   1  -6   0   51.91    1.85
  -1  -6   0   47.88    2.27
   1  -6   0   48.92    1.70
  -1  -6   0   49.05    1.88
  -1  -6   0   52.15    1.83
   1   6   0   52.12    2.15
  -1   6   0   47.67    2.21
   1   6   0   48.35    2.01
   1   6   0   52.18    2.09
  -1   6   0   49.41    2.05
   2  -6   0    3.96    0.63
  -2  -6   0    3.66    0.64
   2  -6   0    5.22    0.81
   2  -6   0    2.91    0.77
  -2  -6   0    2.82    1.04
  -2   6   0    4.20    0.81
   2   6   0    2.58    0.62
   2   6   0    3.53    0.76
   2   6   0    4.80    0.79
  -2   6   0    3.73    0.78
  -3  -6   0    2.60    0.63
   3  -6   0    2.01    0.57
   3  -6   0    2.36    0.80
  -3  -6   0    3.09    0.88
   3   6   0    1.66    0.60
   3   6   0    1.12    0.79
  -3   6   0    2.38    0.76
  -3   6   0    3.55    0.86
   3   6   0    2.34    0.78
   4  -6   0    0.68    0.88
   4  -6   0    1.75    1.10
  -4  -6   0    1.25    0.69
   4   6   0   -0.88    1.09
   4   6   0    1.72    1.08
  -5  -6   0   -0.76    0.75
  -5  -6   0   -0.26    0.96
   5   6   0   -0.02    0.81
  -5   6   0   -0.23    0.92
   5   6   0    2.65    0.98
  -6  -6   0   -2.02    1.06
  -6  -6   0   -0.37    0.80
   6   6   0    0.99    1.04
  -6   6   0    1.64    1.15
   6   6   0   -0.05    0.94
  -7  -6   0    0.84    0.96
  -7  -6   0   -0.93    1.35
   7   6   0    1.70    1.18
  -7   6   0    0.80    1.31
   0  -7   0   -1.69    1.46
   0  -7   0    1.22    0.79
   0  -7   0   -0.54    0.82
   0   7   0    0.68    1.02
   0   7   0   -0.57    0.97
   0   7   0    0.98    0.86
   1  -7   0    0.99    0.83
   1  -7   0    0.46    0.79
   1  -7   0    1.33    1.21
  -1  -7   0    0.42    1.17
  -1  -7   0   -0.11    0.96
  -1  -7   0   -0.47    1.29
   1   7   0    2.65    0.93
   1   7   0    0.54    0.92
  -1   7   0    0.83    1.06
  -1   7   0    2.34    1.39
   1   7   0    1.21    1.14
  -2  -7   0    2.04    1.14
  -2  -7   0   -0.02    0.86
   2  -7   0    0.58    1.36
   2  -7   0    0.99    1.03
  -2   7   0    0.46    0.95
   2   7   0    0.86    0.93
   2   7   0    1.05    1.46
   2   7   0    1.93    1.15
  -3  -7   0    0.30    1.08
  -3  -7   0   -1.37    0.81
   3   7   0   -1.26    1.04
  -3   7   0   -1.47    0.91
   3   7   0   -1.07    0.94
  -4  -7   0    0.14    1.47
  -4  -7   0   -0.13    0.86
  -4   7   0    0.79    1.09
   4   7   0    1.26    0.99
  -5  -7   0    5.29    1.12
  -5  -7   0    8.57    1.50
   5   7   0    7.06    1.26
  -5   7   0    7.52    1.41
   5   7   0    6.71    1.46
  -6  -7   0    4.12    1.19
  -6  -7   0    4.58    2.26
   6   7   0    4.71    1.43
  -6   7   0    8.08    1.68
   6   7   0    4.88    1.69
   0  -8   0   -0.48    1.60
   0   8   0    0.84    1.18
   0   8   0   -0.23    1.81
  -1  -8   0   -1.67    1.14
  -1  -8   0   -0.02    1.55
  -1  -8   0   -0.61    1.13
   1   8   0    3.60    2.30
  -1   8   0    0.14    1.26
   1   8   0   -0.56    1.20
  -1   8   0   -2.69    1.33
   1   8   0    0.66    1.58
  -2  -8   0   -0.72    1.11
  -2  -8   0    1.81    1.62
  -2  -8   0    1.79    1.25
   2   8   0    2.25    1.36
   2   8   0   -1.36    1.37
  -2   8   0    0.06    1.33
  -2   8   0    1.09    1.63
   2   8   0    1.73    1.74
  -3  -8   0   -0.48    1.34
  -3  -8   0   -1.26    1.21
  -3  -8   0    1.42    1.84
   3   8   0    2.02    1.92
   3   8   0   -1.12    1.73
  11   0  -1    0.64    1.37
 -11   0   1    0.17    1.25
 -11   0   1   -0.73    1.19
  11   0  -1   -2.05    1.04
  10   0  -1    0.45    0.83
 -10   0   1    2.15    1.07
  10   0  -1    1.13    1.10
 -10   0   1    0.84    0.92
  -9   0   1   33.96    1.73
   9   0  -1   36.73    1.74
   9   0  -1   37.99    1.93
  -9   0   1   35.17    1.89
  -8   0   1   -0.56    0.53
   8   0  -1    0.19    0.52
   8   0  -1   -0.01    0.49
   7   0  -1    1.50    0.51
  -7   0   1    0.45    0.46
   7   0  -1    0.73    0.40
   6   0  -1    0.02    0.25
   6   0  -1    0.21    0.43
   6   0  -1    0.15    0.38
   5   0  -1   13.35    0.74
   5   0  -1   14.52    0.71
   5   0  -1   14.46    0.80
   5   0  -1   13.69    0.53
  -4   0   1    0.12    0.25
   4   0  -1   -0.20    0.18
   4   0  -1    0.04    0.23
   4   0  -1   -0.11    0.19
   4   0  -1   -0.02    0.14
  -4   0   1   -0.08    0.20
  -4   0   1   -0.12    0.13
  -3   0   1    5.03    0.24
   3   0  -1    5.24    0.34
   3   0  -1    5.28    0.25
  -3   0   1    5.28    0.34
   3   0  -1    5.19    0.38
  -3   0   1    5.86    0.38
   3   0  -1    5.69    0.37
  -2   0   1    0.10    0.10
   2   0  -1    0.05    0.07
   2   0  -1   -0.09    0.11
  -2   0   1    0.04    0.08
  -2   0   1   -0.05    0.11
  -2   0   1   -0.07    0.08
   2   0  -1    0.14    0.15
   2   0  -1   -0.02    0.10
   1   0  -1  215.64    3.89
   1   0  -1  227.66    3.88
   1   0   1  661.39   11.84
   1   0   1  672.51   11.82
   1   0   1  684.89   11.86
  -1   0  -1  699.93   11.82
  -1   0  -1  673.57   11.77
   1   0   1  675.08   11.81
   2   0   1    0.13    0.11
   2   0   1   -0.02    0.12
   2   0   1    0.02    0.11
   2   0   1   -0.20    0.12
  -2   0  -1   -0.07    0.08
   3   0   1   92.18    2.00
  -3   0  -1   92.30    1.75
   3   0   1   92.34    2.04
   3   0   1   93.53    1.99
  -4   0  -1    0.17    0.15
   4   0   1   -0.07    0.21
   4   0   1    0.04    0.23
   4   0   1   -0.07    0.17
   4   0   1   -0.31    0.20
   5   0   1    3.69    0.53
   5   0   1    2.33    0.30
  -5   0  -1    2.83    0.30
  -5   0  -1    2.96    0.51
   5   0   1    2.31    0.39
  -6   0  -1   -0.07    0.42
   6   0   1    0.09    0.27
   6   0   1   -0.27    0.33
   6   0   1    0.48    0.42
  -7   0  -1   -0.18    0.45
  -7   0  -1    0.12    0.50
   7   0   1    0.56    0.48
   8   0   1   -0.04    0.55
   8   0   1   -1.07    0.55
  -8   0  -1    1.06    0.59
  -8   0  -1    0.07    0.54
   9   0   1    0.59    0.72
  -9   0  -1   -0.12    0.77
   9   0   1   -0.35    0.78
 -10   0  -1   -0.26    1.05
 -10   0  -1   -0.37    1.05
  10   0   1   -0.87    0.93
 -11   0  -1    6.36    1.40
  11  -1  -1   -0.88    1.56
  11  -1  -1   -1.76    1.06
 -11  -1   1    0.38    1.34
 -11  -1   1   -0.17    1.06
 -11   1   1   -2.74    1.42
 -11   1   1    1.03    1.25
  11   1  -1   -2.08    1.05
  10  -1  -1   -0.47    1.15
 -10  -1   1    0.93    1.16
 -10  -1   1    1.51    0.93
  10  -1  -1   -0.06    0.88
 -10   1   1    0.04    1.22
  10   1  -1   -0.64    0.85
  -9  -1   1    0.40    0.68
  -9  -1   1    0.36    0.80
   9  -1  -1   -1.08    0.61
   9  -1  -1    0.16    0.93
   9   1  -1    1.20    0.69
  -9   1   1    0.17    0.79
   9   1  -1   -1.04    0.75
  -8  -1   1    0.80    0.47
   8  -1  -1   -0.04    0.51
   8  -1  -1    0.63    0.48
  -8  -1   1    0.42    0.58
   8   1  -1    0.57    0.52
   8   1  -1    0.90    0.54
   7  -1  -1   -0.59    0.46
   7  -1  -1    0.14    0.39
  -7  -1   1    0.00    0.45
  -7  -1   1   -0.20    0.35
   7   1  -1   -0.23    0.41
   7   1  -1   -0.16    0.35
  -6  -1   1   90.45    2.41
   6  -1  -1   91.18    2.36
   6  -1  -1   93.66    2.49
  -6  -1   1   94.26    2.58
   6   1  -1   92.71    2.54
  -6   1   1   90.42    2.03
   6   1  -1   91.32    2.10
   6   1  -1   91.17    2.46
  -6   1   1   89.72    2.37
   5  -1  -1   53.51    1.57
  -5  -1   1   53.64    1.49
  -5  -1   1   53.38    1.53
  -5  -1   1   54.16    1.68
   5  -1  -1   55.83    1.49
   5  -1  -1   57.44    1.54
   5   1  -1   52.35    1.59
   5   1  -1   53.98    1.37
  -5   1   1   55.80    1.57
  -5   1   1   54.15    1.36
   5   1  -1   54.42    1.66
   4  -1  -1    0.72    0.22
  -4  -1   1    1.15    0.26
   4  -1  -1    0.63    0.23
  -4  -1   1    1.16    0.21
   4  -1  -1    0.71    0.25
  -4  -1   1    1.05    0.31
   4   1  -1    1.33    0.28
  -4   1   1    1.10    0.24
   4   1  -1    1.23    0.28
  -4   1   1    1.16    0.24
   4   1  -1    0.94    0.22
  -3  -1   1   52.86    1.39
  -3  -1   1   52.92    1.23
   3  -1  -1   53.59    1.26
  -3  -1   1   53.26    1.27
   3  -1  -1   55.34    1.29
   3  -1  -1   52.98    1.33
  -3   1   1   52.99    1.25
   3   1  -1   53.89    1.36
   3   1  -1   52.82    1.25
   3   1  -1   52.97    1.38
  -3   1   1   51.78    1.30
  -2  -1   1   14.39    0.46
  -2  -1   1   14.16    0.56
   2  -1  -1   14.19    0.53
   2  -1  -1   13.86    0.49
  -2  -1   1   13.84    0.44
  -2   1   1   14.21    0.35
   2   1  -1   13.67    0.56
   2   1  -1   14.55    0.37
   1  -1  -1  133.58    2.46
   1  -1  -1  129.12    2.35
  -1  -1   1  125.29    2.35
   1  -1  -1  127.24    2.47
  -1  -1   1  128.93    2.36
  -1  -1   1  128.47    2.48
   1   1  -1  128.59    2.47
  -1   1   1  126.74    2.37
  -1   1   1  127.03    2.47
   1   1  -1  129.10    2.48
   1   1  -1  130.16    2.40
  -1   1   1  129.25    2.46
   0  -1  -1   14.14    0.43
   0  -1  -1   14.39    0.47
   0  -1   1   14.51    0.41
   0  -1   1   14.14    0.40
   0  -1   1   14.28    0.40
   0   1   1   13.86    0.44
   0   1   1   13.97    0.44
   0   1  -1   14.32    0.44
   0   1  -1   13.93    0.44
   0   1   1   14.48    0.40
   0   1   1   14.06    0.43
   0   1  -1   14.58    0.54
  -1  -1  -1    1.02    0.17
  -1  -1  -1    0.92    0.18
   1  -1   1    0.77    0.14
  -1  -1  -1    0.88    0.15
   1  -1   1    1.01    0.15
   1  -1   1    0.88    0.15
  -1   1  -1    0.95    0.17
  -1   1  -1    0.82    0.14
   1   1   1    0.94    0.17
   1   1   1    0.89    0.13
   1   1   1    1.14    0.18
   1   1   1    0.80    0.15
   2  -1   1    9.12    0.35
   2  -1   1    8.76    0.42
   2  -1   1    9.06    0.38
  -2  -1  -1    9.04    0.42
  -2  -1  -1    9.20    0.46
  -2  -1  -1    9.10    0.53
   2   1   1    9.38    0.44
  -2   1  -1    9.18    0.45
   2   1   1    8.94    0.29
  -2   1  -1    9.08    0.36
  -2   1  -1    8.68    0.51
   2   1   1    8.94    0.40
   2   1   1    9.25    0.46
  -3  -1  -1   34.18    1.06
   3  -1   1   34.52    0.95
   3  -1   1   34.72    0.86
   3  -1   1   33.94    0.99
   3  -1   1   35.53    1.02
  -3  -1  -1   35.29    0.99
   3   1   1   33.83    1.03
  -3   1  -1   35.10    0.94
  -3   1  -1   34.58    1.03
   3   1   1   34.79    0.97
   4  -1   1   20.59    0.82
   4  -1   1   20.57    0.83
   4  -1   1   21.27    0.64
   4  -1   1   20.98    0.78
  -4  -1  -1   19.58    0.92
  -4  -1  -1   20.15    0.87
  -4   1  -1   20.47    0.84
   4   1   1   20.77    0.76
   4   1   1   20.60    0.85
   4   1   1   21.51    0.89
  -4   1  -1   20.21    0.73
   5  -1   1    3.54    0.59
   5  -1   1    2.31    0.35
  -5  -1  -1    1.91    0.36
  -5  -1  -1    2.00    0.43
   5  -1   1    2.88    0.43
   5   1   1    2.66    0.44
  -5   1  -1    2.24    0.35
   5   1   1    2.10    0.42
   6  -1   1    0.92    0.42
   6  -1   1    0.48    0.27
   6  -1   1    0.97    0.44
  -6  -1  -1    1.10    0.51
  -6  -1  -1   -0.07    0.45
   6   1   1    1.20    0.39
   6   1   1    0.53    0.68
  -6   1  -1    0.89    0.38
   6   1   1    0.78    0.33
   7  -1   1    0.14    0.38
  -7  -1  -1    1.01    0.46
  -7  -1  -1   -0.57    0.47
   7  -1   1    0.64    0.47
   7   1   1   -0.42    0.41
   7   1   1   -0.09    0.43
   8  -1   1   19.50    1.63
  -8  -1  -1   20.12    1.32
  -8  -1  -1   22.11    1.36
   8  -1   1   16.97    1.13
  -8   1  -1   18.87    1.23
   9  -1   1   -0.48    0.82
  -9  -1  -1    1.32    0.76
   9  -1   1    1.55    0.74
  -9  -1  -1    2.81    1.11
  -9   1  -1    1.29    0.76
  -9   1  -1    0.66    0.81
 -10  -1  -1   -2.35    1.12
  10  -1   1   -1.54    0.90
 -10  -1  -1   -0.29    0.95
  10   1   1    0.88    0.91
 -10   1  -1   -0.47    1.30
 -10   1  -1   -0.62    1.08
 -11  -1  -1   -0.79    1.47
 -11  -1  -1    1.17    1.20
  11  -1   1    1.17    1.15
  11   1   1   -1.89    1.15
 -11  -2   1   16.37    2.15
 -11  -2   1   10.16    1.71
  11   2  -1   10.81    1.46
  10  -2  -1    2.38    1.39
  10  -2  -1    1.07    0.93
 -10  -2   1    2.03    1.14
 -10  -2   1    3.39    0.88
 -10   2   1    0.76    1.14
  10   2  -1   -0.20    0.90
   9  -2  -1    2.06    0.90
   9  -2  -1    1.37    0.69
   9   2  -1    1.45    1.06
   8  -2  -1    0.81    0.61
   8  -2  -1    1.06    0.50
  -8  -2   1    1.19    0.52
   8   2  -1    0.85    0.59
  -7  -2   1    9.95    0.92
   7  -2  -1    7.69    0.76
   7  -2  -1    9.37    0.94
  -7  -2   1    8.95    0.85
  -7   2   1    9.63    1.06
   7   2  -1   11.12    1.40
  -7   2   1    9.73    0.97
   7   2  -1    8.76    0.86
  -6  -2   1    1.86    0.37
   6  -2  -1    1.61    0.46
  -6  -2   1    2.59    0.73
   6   2  -1    2.03    0.42
   6   2  -1    2.32    0.68
  -6   2   1    2.52    0.56
  -6   2   1    1.85    0.49
   5  -2  -1   -0.28    0.31
  -5  -2   1   -0.15    0.42
   5  -2  -1   -0.04    0.36
   5  -2  -1   -0.07    0.27
  -5   2   1    0.29    0.34
  -5   2   1    0.04    0.32
   5   2  -1    0.20    0.30
   4  -2  -1    0.20    0.22
   4  -2  -1    0.15    0.16
  -4  -2   1   -0.09    0.29
  -4  -2   1   -0.12    0.29
  -4  -2   1    0.51    0.21
   4  -2  -1    0.13    0.25
   4  -2  -1    0.59    0.28
   4   2  -1    0.66    0.27
  -4   2   1    0.28    0.31
   4   2  -1   -0.23    0.28
  -4   2   1    0.02    0.20
   4   2  -1    0.32    0.14
  -4   2   1    0.42    0.26
  -3  -2   1   91.23    1.96
  -3  -2   1   87.77    2.17
  -3  -2   1   88.45    1.96
   3  -2  -1   90.50    1.95
   3  -2  -1   90.28    2.11
   3   2  -1   92.41    1.83
  -3   2   1   89.12    2.09
  -3   2   1   89.59    1.81
   3   2  -1   89.98    2.14
   3   2  -1   90.02    2.11
  -3   2   1   89.60    2.09
   2  -2  -1   55.47    1.38
  -2  -2   1   53.50    1.26
  -2  -2   1   53.82    1.43
   2  -2  -1   55.30    1.26
  -2  -2   1   55.51    1.34
   2  -2  -1   53.66    1.37
  -2   2   1   50.57    1.33
   2   2  -1   55.05    1.41
  -2   2   1   54.61    1.40
  -2   2   1   52.96    1.38
   2   2  -1   53.71    1.39
   2   2  -1   54.21    1.26
   1  -2  -1    0.66    0.24
   1  -2  -1    0.58    0.20
  -1  -2   1    0.28    0.14
  -1  -2   1    0.83    0.21
  -1  -2   1    0.69    0.17
  -1   2   1    0.50    0.19
   1   2  -1    0.34    0.18
   1   2  -1    0.75    0.20
   1   2  -1    0.46    0.18
   1   2  -1    0.49    0.19
  -1   2   1    0.74    0.21
  -1   2   1    0.44    0.18
   0  -2  -1   -0.02    0.17
   0  -2   1   -0.09    0.19
   0  -2   1    0.33    0.17
   0  -2   1    0.09    0.14
   0  -2  -1    0.05    0.19
   0   2   1    0.02    0.16
   0   2  -1    0.25    0.18
   0   2   1    0.43    0.19
   0   2   1    0.03    0.15
   0   2  -1   -0.10    0.16
   0   2  -1    0.11    0.16
   0   2   1    0.13    0.17
   1  -2   1   20.40    0.68
   1  -2   1   19.73    0.67
   1  -2   1   20.72    0.68
  -1  -2  -1   20.06    0.69
   1   2   1   20.32    0.69
  -1   2  -1   20.26    0.88
   1   2   1   19.90    0.77
  -1   2  -1   20.93    0.69
  -1   2  -1   20.43    0.73
   1   2   1   20.62    0.68
  -2  -2  -1    2.00    0.32
   2  -2   1    2.12    0.33
   2  -2   1    2.10    0.31
   2  -2   1    1.69    0.26
  -2  -2  -1    1.42    0.27
   2   2   1    1.84    0.29
   2   2   1    1.65    0.26
  -2   2  -1    2.56    0.36
  -2   2  -1    2.87    0.40
   2   2   1    1.68    0.28
  -2   2  -1    2.22    0.31
   3  -2   1   19.90    0.74
   3  -2   1   20.40    1.10
  -3  -2  -1   19.32    0.85
   3  -2   1   20.07    0.90
  -3  -2  -1   19.29    0.88
  -3   2  -1   19.21    0.80
  -3   2  -1   19.55    0.82
   3   2   1   19.09    0.80
  -3   2  -1   20.15    0.68
   3   2   1   18.59    0.79
   3   2   1   20.66    0.61
   4  -2   1    2.78    0.44
  -4  -2  -1    2.15    0.39
   4  -2   1    3.03    0.43
  -4  -2  -1    2.10    0.42
   4  -2   1    2.76    0.33
   4  -2   1    2.74    0.40
   4   2   1    2.47    0.25
  -4   2  -1    2.40    0.37
   4   2   1    2.68    0.37
   4   2   1    2.88    0.40
  -4   2  -1    2.77    0.39
  -4   2  -1    1.86    0.50
   4   2   1    2.84    0.44
   5  -2   1   95.71    2.38
   5  -2   1   91.41    2.26
   5  -2   1   93.26    1.96
  -5  -2  -1   94.08    2.37
  -5  -2  -1   84.15    2.80
   5  -2   1   93.85    2.38
   5   2   1   96.40    2.39
  -5   2  -1   95.05    2.42
  -5   2  -1   93.35    2.28
   5   2   1   93.79    2.51
  -6  -2  -1   43.76    1.51
  -6  -2  -1   42.81    1.95
   6  -2   1   44.71    1.52
   6  -2   1   43.84    1.56
   6   2   1   43.38    1.53
  -6   2  -1   41.88    1.64
  -6   2  -1   44.50    1.48
   6   2   1   44.34    1.64
   7  -2   1    8.20    0.78
  -7  -2  -1    9.18    0.86
   7  -2   1    7.57    1.02
  -7  -2  -1    8.77    1.01
   7   2   1    7.44    0.83
   7   2   1    8.54    0.85
  -7   2  -1    7.89    1.07
   8  -2   1    6.32    0.92
  -8  -2  -1    6.27    0.89
   8  -2   1    8.49    1.27
  -8  -2  -1    5.83    0.77
   8   2   1    6.37    1.03
   8   2   1    5.77    0.72
  -9  -2  -1   15.46    2.34
   9  -2   1   21.27    2.69
   9  -2   1   22.61    1.89
   9   2   1   20.54    1.61
  -9   2  -1   23.74    1.75
 -10  -2  -1    6.19    1.24
  10  -2   1    2.74    1.00
 -10  -2  -1    4.47    1.02
  10   2   1    3.61    1.02
  11  -2   1   -1.67    1.28
 -11  -2  -1    1.07    1.72
  11   2   1   -1.18    2.18
 -10  -3   1   27.27    2.47
 -10  -3   1   22.91    1.88
  10   3  -1   27.12    2.14
  -9  -3   1   48.55    2.74
  -9  -3   1   50.74    2.13
   9  -3  -1   57.99    2.95
   9  -3  -1   49.75    2.08
   9   3  -1   48.16    2.28
   8  -3  -1    3.26    0.61
  -8  -3   1    2.75    0.96
  -8  -3   1    3.44    0.64
   8  -3  -1    1.41    1.01
  -8   3   1    3.18    0.74
   8   3  -1    2.33    0.77
   8   3  -1    3.34    0.62
  -7  -3   1    5.11    0.81
   7  -3  -1    3.61    0.68
  -7  -3   1    2.58    0.67
   7  -3  -1    3.68    0.52
   7   3  -1    2.61    0.51
  -7   3   1    4.35    0.78
  -7   3   1    3.67    0.62
   7   3  -1    2.75    0.59
   6  -3  -1    2.90    0.57
  -6  -3   1    2.62    0.56
  -6  -3   1    3.64    0.59
   6  -3  -1    2.97    0.57
   6   3  -1    3.41    0.53
   6   3  -1    3.25    0.54
  -6   3   1    2.51    0.76
  -6   3   1    2.53    0.66
   5  -3  -1    0.20    0.36
   5  -3  -1    0.27    0.43
   5  -3  -1    0.47    0.45
   5  -3  -1    0.62    0.26
  -5  -3   1   -0.14    0.29
  -5  -3   1    0.88    0.43
   5   3  -1    0.69    0.42
   5   3  -1    0.08    0.40
  -5   3   1    1.14    0.43
  -5   3   1    0.25    0.63
   4  -3  -1   -0.15    0.34
   4  -3  -1   -0.10    0.52
   4  -3  -1    0.10    0.29
   4   3  -1   -0.25    0.37
  -4   3   1    0.12    0.38
   4   3  -1   -0.16    0.23
  -4   3   1    0.05    0.28
  -3  -3   1    6.59    0.79
   3  -3  -1    4.82    0.56
   3  -3  -1    6.10    0.48
  -3  -3   1    6.11    0.54
   3  -3  -1    5.08    0.57
  -3  -3   1    5.86    0.64
  -3   3   1    6.40    0.49
   3   3  -1    4.85    0.58
  -3   3   1    6.03    0.62
   3   3  -1    5.49    0.45
  -3   3   1    6.01    0.64
   3   3  -1    6.09    0.64
   2  -3  -1    0.41    0.22
   2  -3  -1   -0.07    0.24
  -2  -3   1   -0.09    0.27
   2  -3  -1    0.00    0.24
  -2  -3   1   -0.22    0.19
  -2  -3   1   -0.02    0.32
  -2   3   1   -0.20    0.23
   2   3  -1    0.26    0.27
  -2   3   1    0.04    0.30
  -2   3   1   -0.25    0.26
   2   3  -1   -0.40    0.25
   2   3  -1   -0.15    0.22
   1  -3  -1   20.12    0.74
   1  -3  -1   21.65    0.85
  -1  -3   1   21.41    0.89
  -1  -3   1   20.07    0.76
  -1   3   1   19.48    0.74
   1   3  -1   19.38    0.85
  -1   3   1   20.67    0.87
   1   3  -1   19.89    0.79
   1   3  -1   19.55    0.85
  -1   3   1   20.77    0.87
  -1   3   1   20.24    0.81
   0  -3  -1   35.72    1.18
   0  -3  -1   36.41    1.13
   0  -3   1   35.91    1.12
   0   3   1   37.55    1.09
   0   3   1   37.79    1.18
   0   3   1   36.67    1.16
   0   3  -1   36.52    1.16
   0   3  -1   36.51    1.17
   0   3   1   35.60    1.15
  -1  -3  -1   52.73    1.54
   1  -3   1   51.74    1.45
   1  -3   1   52.31    1.39
   1   3   1   54.42    1.42
   1   3   1   52.89    1.52
  -1   3  -1   50.06    1.83
  -1   3  -1   55.17    1.44
   1   3   1   52.69    1.61
  -1   3  -1   51.83    1.51
   2  -3   1   43.11    1.24
  -2  -3  -1   42.75    1.28
   2  -3   1   44.06    1.28
  -2  -3  -1   42.93    1.42
   2  -3   1   43.65    1.32
   2   3   1   44.27    1.24
  -2   3  -1   45.07    1.45
  -2   3  -1   43.48    1.33
   2   3   1   42.81    1.32
  -2   3  -1   43.49    1.38
  -3  -3  -1   42.94    1.51
   3  -3   1   44.35    1.29
  -3  -3  -1   42.88    1.35
   3  -3   1   41.70    1.29
   3  -3   1   44.47    1.39
   3   3   1   44.00    1.32
   3   3   1   41.15    1.42
  -3   3  -1   41.47    1.21
   3   3   1   43.48    1.44
  -3   3  -1   41.52    1.42
   3   3   1   42.64    1.17
  -3   3  -1   43.74    1.40
  -4  -3  -1    0.40    0.47
  -4  -3  -1    0.01    0.35
   4  -3   1    0.16    0.32
   4  -3   1   -0.17    0.33
   4  -3   1   -0.05    0.33
   4   3   1    0.55    0.26
   4   3   1    0.24    0.51
  -4   3  -1   -0.06    0.30
  -4   3  -1   -0.13    0.43
  -4   3  -1    0.32    0.40
   4   3   1    0.11    0.41
  -5  -3  -1    0.17    0.35
   5  -3   1   -0.27    0.39
  -5  -3  -1   -0.03    0.75
   5  -3   1    0.17    0.29
   5  -3   1    0.75    0.41
   5  -3   1    0.14    0.41
   5   3   1    0.55    0.39
  -5   3  -1    0.86    0.40
  -5   3  -1    0.05    0.47
   5   3   1   -0.19    0.37
   6  -3   1    0.61    0.68
   6  -3   1   -0.16    0.66
  -6  -3  -1    0.28    0.94
  -6  -3  -1    0.20    0.39
  -6   3  -1   -0.12    0.79
   6   3   1   -1.00    0.54
  -6   3  -1    0.45    0.62
   6   3   1    0.01    0.46
  -7  -3  -1    0.42    0.48
  -7  -3  -1   -0.03    0.66
   7  -3   1    0.39    0.48
   7  -3   1   -0.60    0.62
  -7   3  -1    0.77    0.71
   7   3   1    0.52    0.52
   7   3   1   -0.08    0.60
  -8  -3  -1    0.45    0.91
   8  -3   1   -0.22    0.64
  -8  -3  -1   -0.32    0.68
   8   3   1    0.68    0.69
   9  -3   1    7.25    1.16
  -9  -3  -1    8.47    1.26
  -9  -3  -1    6.83    1.00
   9   3   1    5.21    1.02
  10  -3   1   21.54    1.94
 -10  -3  -1   24.37    2.01
 -10  -3  -1   19.09    2.96
  10   3   1   21.70    2.57
 -10  -4   1   -1.27    1.75
 -10  -4   1    2.01    1.07
  10   4  -1    2.05    1.43
  -9  -4   1   -0.67    1.20
  -9  -4   1    0.08    0.92
   9   4  -1   -0.63    1.01
  -8  -4   1    0.34    0.68
  -8  -4   1    0.26    0.97
   8  -4  -1    0.18    1.26
   8   4  -1   -0.72    0.77
  -7  -4   1    0.97    0.81
  -7  -4   1    0.98    0.55
   7  -4  -1    1.19    0.69
   7  -4  -1    0.61    0.54
   7   4  -1   -0.58    0.61
   7   4  -1   -1.39    0.65
  -7   4   1   -0.22    0.71
  -6  -4   1   -0.34    0.63
   6  -4  -1   -1.24    1.13
   6  -4  -1    0.91    0.47
   6   4  -1    1.02    0.50
  -6   4   1    1.75    0.61
   6   4  -1    0.66    0.58
  -6   4   1    1.37    0.76
  -5  -4   1   11.25    0.80
   5  -4  -1    9.13    1.04
  -5  -4   1   11.41    1.02
   5  -4  -1    9.38    0.98
  -5   4   1   10.14    1.11
   5   4  -1   11.74    0.87
  -5   4   1   11.58    0.93
   5   4  -1   12.24    0.92
   4  -4  -1   55.62    1.65
  -4  -4   1   55.63    1.68
  -4  -4   1   54.98    1.92
   4  -4  -1   55.69    1.86
  -4   4   1   54.00    1.56
   4   4  -1   55.17    2.16
  -4   4   1   51.03    1.88
   4   4  -1   55.31    1.90
  -4   4   1   54.53    1.85
   4   4  -1   56.05    1.54
  -3  -4   1   14.06    0.98
   3  -4  -1   14.49    0.90
  -3  -4   1   14.28    0.81
   3  -4  -1   13.59    1.00
   3  -4  -1   12.79    0.77
   3   4  -1   14.58    0.91
   3   4  -1   14.72    0.79
   3   4  -1   13.91    0.90
  -3   4   1   11.65    0.90
  -3   4   1   12.41    0.80
  -3   4   1   14.31    1.37
   2  -4  -1    1.24    0.34
   2  -4  -1    0.76    0.40
  -2  -4   1    0.67    0.49
  -2  -4   1    0.37    0.65
   2  -4  -1    1.48    0.37
   2   4  -1    1.09    0.53
  -2   4   1    1.08    0.47
   2   4  -1    0.53    0.36
  -2   4   1    0.64    0.43
  -2   4   1    0.82    0.37
   1  -4  -1   47.51    1.40
   1  -4  -1   46.67    1.50
   1  -4  -1   45.32    1.54
  -1  -4   1   46.07    1.56
  -1  -4   1   46.83    1.46
  -1   4   1   42.91    2.19
   1   4  -1   48.24    1.54
  -1   4   1   49.41    2.13
   1   4  -1   43.28    1.83
  -1   4   1   46.43    1.49
  -1   4   1   46.78    1.41
   1   4  -1   46.73    1.55
   0  -4  -1    0.99    0.41
   0  -4   1    0.60    0.34
   0  -4   1    0.69    0.36
   0  -4  -1    0.62    0.33
   0  -4   1    0.78    0.37
   0   4   1    0.73    0.83
   0   4  -1    1.09    0.40
   0   4   1    1.00    0.39
   0   4   1    0.85    0.40
   0   4  -1    0.45    0.40
   0   4  -1    0.30    0.40
   0   4   1    0.29    0.33
   1  -4   1    1.18    0.35
   1  -4   1    1.54    0.39
   1  -4   1    1.27    0.37
  -1  -4  -1    1.44    0.37
  -1  -4  -1    1.03    0.50
  -1   4  -1    0.65    0.43
   1   4   1    1.67    0.42
   1   4   1    1.38    0.38
   1   4   1    1.79    0.44
  -1   4  -1    1.26    0.39
  -1   4  -1    1.99    0.44
   2  -4   1   -0.02    0.35
  -2  -4  -1    0.33    0.46
   2  -4   1    0.13    0.35
  -2  -4  -1    0.01    0.37
   2  -4   1    0.06    0.35
   2   4   1   -0.05    0.42
   2   4   1    0.08    0.34
  -2   4  -1    0.26    0.44
   2   4   1    0.61    0.41
  -2   4  -1    0.19    0.36
  -2   4  -1   -0.07    0.44
   3  -4   1   31.91    1.23
  -3  -4  -1   29.14    1.39
  -3  -4  -1   30.24    1.40
   3  -4   1   28.74    1.25
   3  -4   1   29.91    1.26
  -3   4  -1   29.91    1.19
   3   4   1   28.56    1.28
  -3   4  -1   30.78    1.34
   3   4   1   29.76    1.10
   3   4   1   29.60    1.31
  -3   4  -1   31.09    1.37
  -4  -4  -1   58.41    1.83
  -4  -4  -1   59.90    2.14
   4  -4   1   57.85    1.96
   4  -4   1   57.61    1.92
   4  -4   1   58.51    1.81
  -4   4  -1   59.60    2.08
  -4   4  -1   55.89    1.67
  -4   4  -1   55.82    2.51
   4   4   1   57.88    1.59
   4   4   1   58.52    1.95
   4   4   1   58.69    1.90
  -5  -4  -1    6.68    1.05
   5  -4   1    7.32    1.05
   5  -4   1    8.00    1.05
   5  -4   1    8.44    0.79
   5  -4   1    9.69    0.76
  -5  -4  -1    8.27    0.79
   5   4   1    8.25    0.82
   5   4   1    8.95    1.04
  -5   4  -1    9.10    0.97
  -6  -4  -1    8.33    1.16
  -6  -4  -1    7.95    0.97
   6  -4   1    7.02    1.19
   6  -4   1    9.37    0.86
   6   4   1    8.83    1.07
   6   4   1    9.36    0.94
  -6   4  -1    7.34    1.12
  -7  -4  -1    3.26    1.00
  -7  -4  -1    2.62    0.69
   7  -4   1    4.99    0.70
   7   4   1    3.14    0.82
   7   4   1    3.18    0.94
  -7   4  -1    1.89    0.84
   8  -4   1   10.93    1.38
  -8  -4  -1   15.06    1.49
  -8  -4  -1   14.00    1.84
   8   4   1   12.67    1.54
   8   4   1   13.28    1.64
  -9  -4  -1   -1.06    1.19
   9  -4   1    0.38    1.63
  -9  -4  -1    0.35    0.91
   9   4   1    2.34    1.21
  -9  -5   1    1.21    1.59
  -9  -5   1   -1.00    1.04
   9   5  -1    0.03    1.32
  -8  -5   1   -1.25    1.14
  -8  -5   1   -0.32    0.81
   8   5  -1    0.12    1.01
  -8   5   1   -0.91    1.77
   8   5  -1   -1.44    1.02
  -7  -5   1    2.24    0.72
  -7  -5   1    2.02    1.07
   7   5  -1    2.86    0.88
   7   5  -1    1.24    0.87
   6  -5  -1    2.92    0.87
  -6  -5   1    2.80    1.22
   6  -5  -1    2.82    0.76
  -6  -5   1    3.02    0.69
   6   5  -1    3.22    0.75
  -6   5   1    3.52    1.09
   6   5  -1    3.35    1.04
   5  -5  -1   11.87    1.97
  -5  -5   1    9.45    0.99
  -5  -5   1   10.41    1.36
   5  -5  -1   10.35    0.88
   5   5  -1    9.70    1.14
   5   5  -1    9.17    1.20
  -5   5   1    9.19    1.53
  -4  -5   1    8.91    1.08
  -4  -5   1    7.97    0.83
   4  -5  -1    7.18    0.84
   4  -5  -1    8.60    1.44
   4  -5  -1    7.12    1.05
   4   5  -1    7.58    0.92
   4   5  -1    9.00    1.04
  -4   5   1    7.72    1.34
  -4   5   1    7.70    1.14
   4   5  -1    7.48    0.91
   3  -5  -1    3.26    0.70
   3  -5  -1    3.83    0.59
   3  -5  -1    3.61    0.69
  -3  -5   1    3.02    0.48
  -3  -5   1    3.44    0.89
   3   5  -1    2.35    0.56
  -3   5   1    2.89    0.68
   3   5  -1    3.30    0.53
  -3   5   1    3.76    0.65
   3   5  -1    3.62    0.63
   2  -5  -1   59.50    2.07
  -2  -5   1   61.09    2.07
  -2  -5   1   61.69    1.89
   2  -5  -1   60.95    2.01
   2   5  -1   62.87    2.05
   2   5  -1   62.72    1.92
  -2   5   1   62.46    2.05
  -2   5   1   62.99    2.09
   2   5  -1   63.89    2.04
  -1  -5   1   14.47    1.04
   1  -5  -1   13.91    1.04
  -1  -5   1   13.95    0.89
  -1   5   1   14.90    0.96
  -1   5   1   12.18    0.94
   1   5  -1   11.69    1.01
   1   5  -1   12.76    0.89
   1   5  -1   14.68    1.05
   0  -5   1    3.40    0.52
   0  -5  -1    3.51    0.63
   0  -5  -1    3.52    0.62
   0  -5   1    4.33    0.67
   0  -5   1    3.99    0.55
   0  -5  -1    2.50    0.62
   0   5  -1    3.73    0.60
   0   5   1    3.12    0.82
   0   5  -1    3.33    0.56
   0   5   1    3.33    0.51
   0   5   1    5.14    0.79
   0   5  -1    3.84    0.64
   1  -5   1    0.67    0.41
  -1  -5  -1    0.55    0.42
   1  -5   1    0.38    0.56
  -1  -5  -1    0.15    0.50
   1  -5   1    0.93    0.43
  -1   5  -1   -0.21    0.46
   1   5   1    0.46    0.44
   1   5   1   -0.12    0.41
  -1   5  -1    1.15    0.54
   1   5   1    1.55    0.48
   2  -5   1    4.46    0.74
   2  -5   1    4.18    0.63
  -2  -5  -1    4.99    0.80
   2  -5   1    4.55    0.69
   2   5   1    3.79    0.55
  -2   5  -1    5.50    0.82
   2   5   1    4.75    0.75
  -2   5  -1    4.23    0.58
   3  -5   1    0.55    0.41
   3  -5   1   -0.25    0.64
  -3  -5  -1    0.70    0.44
   3  -5   1   -0.33    0.52
  -3  -5  -1    0.45    0.57
  -3   5  -1   -0.72    0.52
   3   5   1    0.81    0.46
  -3   5  -1    0.92    0.54
   3   5   1    0.06    0.47
   3   5   1    0.40    0.48
  -4  -5  -1   17.70    1.37
   4  -5   1   18.83    1.35
   4  -5   1   19.21    1.75
   4  -5   1   19.11    1.04
  -4   5  -1   20.42    1.29
   4   5   1   16.78    1.23
   4   5   1   19.01    1.29
  -4   5  -1   21.54    1.35
   4   5   1   19.49    1.38
  -5  -5  -1    2.92    0.61
  -5  -5  -1    1.77    0.90
   5  -5   1    4.14    0.60
   5   5   1    3.18    0.78
  -5   5  -1    3.64    1.08
   5   5   1    3.64    0.72
  -6  -5  -1    3.72    0.77
  -6  -5  -1    3.59    1.12
   6  -5   1    3.86    0.69
   6   5   1    4.88    0.92
  -6   5  -1    3.99    1.03
  -7  -5  -1    5.93    0.91
   7  -5   1    4.81    0.92
  -7  -5  -1    4.38    1.15
  -7   5  -1    4.22    1.35
   7   5   1    3.83    1.07
   7   5   1    5.63    1.00
  -8  -5  -1    0.76    1.22
  -8  -5  -1   -0.58    0.99
   8   5   1   -1.06    1.66
   8   5   1    0.28    1.15
  -9  -5  -1    0.24    2.57
  -9  -5  -1    0.76    1.27
   9   5   1    3.49    2.04
  -8  -6   1    9.37    1.37
  -8  -6   1    8.14    2.23
   8   6  -1    7.61    2.08
  -8   6   1   11.17    2.20
   8   6  -1    6.10    1.39
  -7  -6   1    1.46    1.27
  -7  -6   1    2.08    0.88
   7   6  -1    3.70    1.21
   7   6  -1   -1.74    1.32
  -7   6   1    1.06    1.40
  -6  -6   1   -1.40    0.76
  -6  -6   1   -0.75    1.11
   6   6  -1    0.79    0.94
   6   6  -1   -0.51    0.97
   5  -6  -1    0.81    1.04
  -5  -6   1    0.53    0.72
  -5  -6   1   -0.85    0.99
   5   6  -1    1.22    0.98
  -5   6   1    0.77    0.95
   4  -6  -1    1.38    0.84
  -4  -6   1    0.60    0.93
  -4  -6   1    1.93    0.70
   4   6  -1    0.69    0.95
   3  -6  -1    1.33    0.57
   3  -6  -1    1.32    0.75
  -3  -6   1    0.48    0.73
  -3  -6   1   -0.05    0.55
   3   6  -1   -0.05    0.72
   3   6  -1    0.04    0.73
  -3   6   1    0.20    0.70
  -3   6   1    0.23    0.89
   3   6  -1   -0.60    0.59
  -2  -6   1   -0.85    0.50
   2  -6  -1    1.55    0.52
  -2  -6   1    0.07    0.68
   2  -6  -1    0.36    0.92
   2  -6  -1    0.09    0.61
  -2   6   1   -0.99    0.65
   2   6  -1   -0.06    0.64
  -2   6   1    0.74    0.64
   2   6  -1    0.48    0.57
   2   6  -1    0.12    0.64
  -1  -6   1    0.65    0.55
   1  -6  -1    0.96    0.50
  -1  -6   1    0.24    0.52
   1  -6  -1    0.10    0.59
  -1  -6   1    1.06    0.65
   1  -6  -1    1.12    0.65
   1   6  -1   -0.09    0.59
   1   6  -1   -0.12    0.64
  -1   6   1    0.53    0.62
  -1   6   1    0.46    0.60
   1   6  -1   -0.55    0.59
   0  -6   1    3.35    0.59
   0  -6   1    2.88    0.59
   0  -6   1    3.30    0.68
   0  -6  -1    2.37    0.68
   0  -6  -1    3.30    0.62
   0  -6  -1    3.42    0.62
   0   6   1    2.54    0.65
   0   6  -1    3.04    0.65
   0   6  -1    2.56    0.70
   0   6   1    1.59    0.65
   0   6   1    1.96    0.65
   0   6  -1    3.35    0.71
   1  -6   1    6.11    0.88
  -1  -6  -1    7.41    0.89
   1  -6   1    6.36    0.86
  -1  -6  -1    7.48    1.02
   1  -6   1    5.61    0.94
  -1  -6  -1    5.70    0.85
  -1   6  -1    5.35    0.81
  -1   6  -1    4.89    0.75
   1   6   1    5.25    0.86
   1   6   1    4.81    0.81
   1   6   1    7.46    1.11
   2  -6   1   47.07    1.82
   2  -6   1   38.99    2.28
   2  -6   1   46.70    1.90
  -2  -6  -1   44.18    1.86
  -2  -6  -1   41.77    2.02
   2   6   1   43.57    1.72
   2   6   1   45.32    1.98
  -2   6  -1   43.52    1.99
   2   6   1   43.69    1.95
  -2   6  -1   47.06    1.99
  -3  -6  -1    0.19    0.85
   3  -6   1    2.37    0.81
   3  -6   1    1.70    0.67
  -3  -6  -1    1.43    0.62
   3  -6   1    1.16    0.63
  -3   6  -1    0.65    0.80
   3   6   1   -0.24    0.76
   3   6   1    2.52    0.79
   3   6   1    0.15    0.60
  -3   6  -1    1.25    0.80
  -4  -6  -1   -1.85    1.51
   4  -6   1    1.01    0.64
  -4  -6  -1    0.35    0.68
  -4   6  -1    1.11    1.19
   4   6   1    0.08    0.94
   4   6   1    0.59    0.86
   5  -6   1    0.33    0.74
  -5  -6  -1    1.60    0.84
  -5  -6  -1    2.12    1.00
   5   6   1    1.32    0.86
  -5   6  -1    1.23    1.05
  -6  -6  -1   -0.93    0.88
  -6  -6  -1    0.56    1.25
   6   6   1   -0.01    0.98
   6   6   1    2.49    1.10
  -6   6  -1    0.59    1.14
  -7  -6  -1    0.59    0.98
  -7  -6  -1   -0.02    1.31
  -7   6  -1   -0.33    1.38
   7   6   1    0.22    1.17
   7   6   1    2.28    1.14
  -6  -7   1    0.35    1.64
  -6  -7   1    0.42    1.10
  -6   7   1    3.07    1.63
   6   7  -1    2.19    1.32
   6   7  -1    2.71    1.53
  -5  -7   1    0.61    0.93
  -5  -7   1    1.15    1.26
  -5   7   1    0.90    1.16
   5   7  -1    3.75    1.13
   5   7  -1    0.69    1.20
  -4  -7   1    0.45    0.84
  -4  -7   1    2.84    1.28
   4   7  -1    2.24    0.97
  -4   7   1    2.97    1.10
   4   7  -1    1.89    1.17
  -3  -7   1    2.01    1.30
  -3  -7   1    2.26    0.85
  -3  -7   1    3.39    1.04
  -3   7   1    0.06    0.99
   3   7  -1    0.88    0.96
   3   7  -1    2.53    1.40
  -2  -7   1   -0.12    1.14
  -2  -7   1    1.32    0.82
  -2  -7   1    1.43    0.93
   2   7  -1   -0.25    1.80
   2   7  -1    1.65    0.91
  -2   7   1    1.47    0.93
   2   7  -1    2.05    1.06
   1  -7  -1    8.03    0.98
   1  -7  -1    6.08    0.90
  -1  -7   1    7.46    1.76
   1   7  -1    5.65    1.02
  -1   7   1    8.56    1.38
   1   7  -1    6.68    1.14
  -1   7   1   10.96    1.61
   0  -7   1    0.39    1.08
   0  -7  -1    1.75    0.86
   0  -7  -1    0.19    0.77
   0  -7   1    1.32    0.81
   0  -7   1    0.58    0.82
   0   7   1    1.70    0.90
   0   7  -1   -0.91    0.94
   0   7  -1    1.42    0.93
   0   7   1    0.29    0.92
   0   7   1    1.63    1.25
   1  -7   1   -0.88    1.26
  -1  -7  -1   -1.13    1.01
  -1  -7  -1   -0.47    1.29
   1  -7   1    0.45    0.84
  -1  -7  -1   -1.52    0.84
   1  -7   1    0.15    0.89
   1   7   1    0.54    0.85
  -1   7  -1    0.27    0.96
   1   7   1    0.71    0.90
  -1   7  -1    0.02    1.30
   1   7   1   -0.28    1.19
   2  -7   1    0.30    0.92
  -2  -7  -1   -0.17    1.13
  -2  -7  -1    1.03    0.94
   2  -7   1   -0.65    1.03
  -2  -7  -1   -0.42    1.03
  -2   7  -1   -0.46    0.91
   2   7   1    0.97    1.43
   2   7   1    1.20    1.44
   2   7   1   -0.29    1.19
  -2   7  -1    1.19    1.21
  -3  -7  -1    0.80    1.10
  -3  -7  -1    1.64    0.88
  -3   7  -1   -1.91    1.99
   3   7   1    0.92    0.96
  -3   7  -1    0.15    1.15
   3   7   1    2.33    1.14
  -4  -7  -1    2.61    1.38
  -4  -7  -1    1.09    0.97
  -4   7  -1    1.76    1.13
   4   7   1    2.99    1.08
   4   7   1    3.26    1.27
  -5  -7  -1    1.54    1.02
  -5  -7  -1    1.46    1.67
   5   7   1    3.23    1.38
   5   7   1    2.02    1.18
  -5   7  -1    1.39    1.26
  -6  -7  -1    1.92    1.25
  -6  -7  -1   -1.04    2.85
  -6   7  -1   -0.03    1.65
   6   7   1   -1.16    1.79
   6   7   1    0.62    1.66
  -3  -8   1   -0.83    1.80
  -3  -8   1    1.89    1.18
  -3  -8   1    0.95    1.30
   3   8  -1   -2.13    1.67
  -3   8   1    0.43    1.85
   3   8  -1   -1.44    1.56
  -2  -8   1    0.51    1.24
  -2  -8   1    1.44    1.12
  -2  -8   1    0.70    1.63
   2   8  -1    1.02    1.33
  -2   8   1   -0.39    1.38
  -2   8   1    2.51    2.71
   2   8  -1   -0.46    1.55
   2   8  -1   -1.08    1.26
   1  -8  -1    1.95    1.71
  -1  -8   1    3.10    1.71
  -1  -8   1    0.36    1.03
  -1  -8   1    1.70    1.14
   1   8  -1    1.05    1.25
  -1   8   1    1.88    1.39
  -1   8   1    1.29    1.36
   1   8  -1    3.47    1.32
   0  -8   1    0.15    1.14
   0  -8  -1    1.92    1.60
   0  -8   1    0.08    1.09
   0   8   1    1.36    1.29
   0   8  -1    0.42    1.24
   0   8  -1    2.09    1.21
   0   8   1    4.46    1.29
  -1  -8  -1   -0.48    1.51
  -1  -8  -1    0.82    1.18
   1   8   1    0.47    1.24
   1   8   1    0.10    1.35
  -1   8  -1   -0.71    1.27
  -1   8  -1    1.82    1.44
  -2  -8  -1    2.43    1.62
  -2  -8  -1    1.85    1.18
  -2   8  -1    3.20    1.70
   2   8   1    2.32    1.42
  -2   8  -1    4.36    1.45
   2   8   1    0.70    1.44
  11   0  -2    0.83    1.30
  11   0  -2   -0.98    1.04
 -11   0   2   -1.26    1.21
 -11   0   2   -3.93    1.86
  10   0  -2    0.71    0.83
 -10   0   2   -0.23    0.87
 -10   0   2   -0.43    1.02
  10   0  -2   -0.45    0.97
   9   0  -2    0.41    0.62
   9   0  -2   -0.18    0.70
  -9   0   2   -0.30    0.71
   8   0  -2   52.43    1.95
  -8   0   2   51.94    1.93
   8   0  -2   52.85    1.81
   7   0  -2   -0.82    0.60
   7   0  -2   -0.21    0.38
   6   0  -2   85.58    1.71
   6   0  -2   82.71    2.22
   5   0  -2   -0.21    0.17
  -5   0   2    0.23    0.20
  -5   0   2    0.47    0.34
   5   0  -2    0.23    0.28
   5   0  -2    0.03    0.25
  -5   0   2    0.19    0.22
   4   0  -2   12.34    0.39
  -4   0   2   12.25    0.43
  -4   0   2   11.61    0.57
   4   0  -2   12.25    0.57
   3   0  -2   -0.16    0.17
   3   0  -2   -0.27    0.19
  -3   0   2   -0.19    0.15
  -3   0   2   -0.49    0.12
  -2   0   2    0.58    0.13
  -2   0   2    0.30    0.10
   2   0  -2    0.47    0.13
  -2   0   2    0.59    0.17
  -2   0   2    0.65    0.11
   2   0  -2    0.78    0.11
   2   0  -2    0.56    0.18
   1   0  -2   -0.02    0.07
  -1   0   2   -0.06    0.04
  -1   0   2   -0.07    0.05
   1   0  -2   -0.06    0.07
  -1   0   2    0.01    0.07
   1   0  -2    0.03    0.08
  -1   0   2    0.04    0.06
   1   0  -2   -0.15    0.06
   0   0   2  269.36    4.84
   0   0  -2  261.76    4.84
   0   0  -2  269.02    4.77
   0   0  -2  284.02    4.85
   0   0   2  280.79    4.97
   0   0   2  266.38    4.79
   1   0   2    0.01    0.10
  -1   0  -2   -0.03    0.13
   1   0   2    0.03    0.11
   1   0   2    0.01    0.09
  -1   0  -2   -0.10    0.10
  -1   0  -2    0.08    0.09
   2   0   2  556.93    9.99
  -2   0  -2  582.97   10.13
  -2   0  -2  540.89    9.81
   2   0   2  555.63    9.96
  -2   0  -2  552.18    9.97
   2   0   2  565.56    9.90
  -3   0  -2    0.05    0.18
   3   0   2   -0.28    0.17
   3   0   2    0.07    0.19
  -3   0  -2    0.02    0.14
   3   0   2   -0.03    0.16
   3   0   2   -0.03    0.16
   4   0   2   -0.04    0.26
  -4   0  -2    0.19    0.23
   4   0   2    0.24    0.22
   4   0   2   -0.12    0.22
   4   0   2    0.10    0.20
  -4   0  -2   -0.15    0.18
   5   0   2    0.02    0.29
  -5   0  -2    0.36    0.37
   5   0   2   -0.23    0.24
  -5   0  -2    0.00    0.28
   5   0   2   -0.10    0.30
   5   0   2    0.15    0.34
  -5   0  -2    0.24    0.31
  -6   0  -2    0.85    0.45
  -6   0  -2    0.22    0.46
   6   0   2    0.82    0.37
   6   0   2    0.26    0.44
   6   0   2    1.16    0.31
   7   0   2    0.10    0.40
  -7   0  -2   -0.20    0.51
   7   0   2   -0.64    0.37
  -7   0  -2    0.01    0.49
   7   0   2   -0.06    0.57
   8   0   2    2.92    0.68
  -8   0  -2    3.26    0.69
  -8   0  -2    4.36    0.65
  -9   0  -2    0.53    0.82
  -9   0  -2   -0.44    0.81
 -10   0  -2    3.66    1.17
  10   0   2    1.55    0.92
 -10   0  -2    2.82    1.14
  11   0   2   -1.55    1.22
  11  -1  -2    1.27    1.19
 -11  -1   2    2.61    1.02
  11  -1  -2    1.23    1.46
 -11  -1   2    2.87    1.28
  11   1  -2    0.22    1.06
 -11   1   2   -1.65    1.09
 -11   1   2    0.38    1.32
  10  -1  -2    1.32    1.10
 -10  -1   2    0.59    0.84
  10  -1  -2   -1.55    1.35
 -10  -1   2   -0.74    0.99
  10   1  -2   -0.65    0.94
 -10   1   2    1.41    1.04
  10   1  -2   -1.37    0.81
  -9  -1   2   -1.32    0.78
   9  -1  -2   -0.43    0.62
   9  -1  -2   -0.57    0.70
  -9  -1   2    0.01    0.63
   9   1  -2    1.14    0.77
   9   1  -2   -0.51    0.64
   8  -1  -2    0.41    0.46
   8  -1  -2    0.61    0.53
  -8  -1   2    0.26    0.44
  -8  -1   2    0.44    0.55
   8   1  -2    0.40    0.48
   8   1  -2    0.16    0.52
   7  -1  -2    0.12    0.39
   7  -1  -2    0.18    0.82
  -7  -1   2    0.27    0.32
  -7  -1   2    0.17    0.45
   7   1  -2   -0.08    0.39
  -7   1   2   -0.22    0.37
   7   1  -2   -0.11    0.44
   7   1  -2    0.15    0.34
   6  -1  -2   45.19    1.94
  -6  -1   2   49.15    1.49
  -6  -1   2   49.99    1.77
   6  -1  -2   49.98    1.52
  -6   1   2   50.76    1.33
   6   1  -2   49.34    1.30
   6   1  -2   46.76    2.15
   6   1  -2   49.88    1.75
  -6   1   2   48.00    1.78
  -5  -1   2   83.29    2.25
  -5  -1   2   85.31    2.44
   5  -1  -2   85.92    2.03
   5  -1  -2   84.59    2.17
  -5   1   2   85.73    1.91
   5   1  -2   84.64    1.89
   5   1  -2   84.69    2.16
   5   1  -2   85.92    2.25
  -5   1   2   84.17    2.07
  -4  -1   2    4.97    0.49
   4  -1  -2    5.22    0.41
   4  -1  -2    6.08    0.74
  -4  -1   2    5.56    0.44
   4   1  -2    5.26    0.45
  -4   1   2    4.95    0.42
   4   1  -2    5.47    0.39
   4   1  -2    4.55    0.46
  -3  -1   2  180.25    3.41
  -3  -1   2  189.18    3.73
   3  -1  -2  195.71    3.58
   3  -1  -2  179.38    3.64
   3   1  -2  183.24    3.51
   3   1  -2  179.75    3.68
   3   1  -2  181.41    3.64
  -3   1   2  182.59    3.53
  -3   1   2  181.56    3.57
   3   1  -2  184.67    3.31
  -3   1   2  181.46    3.57
  -2  -1   2    8.14    0.29
  -2  -1   2    8.17    0.29
   2  -1  -2    8.43    0.30
  -2  -1   2    7.88    0.43
   2   1  -2    8.18    0.42
  -2   1   2    8.04    0.25
   2   1  -2    7.95    0.42
  -2   1   2    7.86    0.40
  -2   1   2    8.28    0.41
  -2   1   2    7.59    0.39
   2   1  -2    7.94    0.31
  -1  -1   2  761.77   13.00
   1  -1  -2  774.21   12.81
   1  -1  -2  657.07   12.95
  -1  -1   2  750.69   12.82
   1  -1  -2  715.38   13.17
  -1   1   2  782.35   13.01
   1   1  -2  729.18   12.98
   1   1  -2  734.62   13.04
  -1   1   2  748.61   12.91
  -1   1   2  720.86   13.05
  -1   1   2  737.23   12.98
   1   1  -2  759.61   13.02
   1   1  -2  747.99   12.96
   0  -1   2  519.54    9.33
   0  -1  -2  526.31    9.37
   0  -1   2  526.24    9.20
   0  -1  -2  519.65    9.30
   0  -1   2  522.03    9.23
   0  -1   2  517.42    9.23
   0   1   2  532.17    9.33
   0   1  -2  541.64    9.22
   0   1   2  523.26    9.32
   0   1  -2  533.81    9.34
   0   1   2  525.37    9.21
   0   1   2  538.36    9.32
   0   1  -2  523.64    9.33
   0   1  -2  523.65    9.34
   1  -1   2   13.94    0.50
   1  -1   2   14.07    0.50
  -1  -1  -2   12.46    0.58
   1  -1   2   13.83    0.49
  -1  -1  -2   14.31    0.52
   1  -1   2   14.33    0.35
   1   1   2   14.29    0.49
   1   1   2   13.87    0.51
   1   1   2   14.38    0.45
  -1   1  -2   13.76    0.40
  -1   1  -2   14.11    0.47
  -1   1  -2   14.49    0.50
  -1   1  -2   12.75    0.57
   1   1   2   14.03    0.48
   2  -1   2    3.22    0.27
  -2  -1  -2    2.71    0.33
   2  -1   2    3.36    0.31
   2  -1   2    3.11    0.25
  -2   1  -2    3.02    0.29
   2   1   2    3.09    0.23
   2   1   2    3.49    0.31
  -2   1  -2    3.68    0.35
   2   1   2    3.22    0.31
   2   1   2    3.50    0.31
  -2   1  -2    3.05    0.32
   3  -1   2    2.14    0.31
  -3  -1  -2    2.59    0.36
   3  -1   2    2.70    0.31
   3  -1   2    2.17    0.33
   3  -1   2    2.58    0.32
  -3  -1  -2    2.91    0.38
  -3   1  -2    2.36    0.34
   3   1   2    2.73    0.40
   3   1   2    2.81    0.37
   3   1   2    2.97    0.37
   3   1   2    2.70    0.22
  -4  -1  -2    0.75    0.27
  -4  -1  -2    0.68    0.31
   4  -1   2    0.13    0.23
   4  -1   2    0.55    0.20
   4  -1   2    0.34    0.27
   4  -1   2    0.77    0.27
   4   1   2    0.18    0.22
  -4   1  -2    0.80    0.26
   4   1   2    0.42    0.25
   4   1   2    0.60    0.29
   5  -1   2    8.70    0.65
   5  -1   2   10.18    0.76
   5  -1   2    7.74    0.49
   5  -1   2    8.79    0.69
  -5  -1  -2    8.25    0.71
  -5  -1  -2    7.81    0.77
   5   1   2    8.41    0.71
   5   1   2    7.84    0.85
   5   1   2    8.25    0.59
  -5   1  -2    8.77    0.80
   6  -1   2   12.04    1.32
   6  -1   2   11.94    0.91
   6  -1   2   11.88    0.63
  -6  -1  -2   10.66    0.97
   6   1   2   11.15    0.81
  -6   1  -2   11.49    0.76
   6   1   2   10.85    0.72
   7  -1   2   14.77    0.96
  -7  -1  -2   12.80    1.05
  -7  -1  -2   13.56    1.06
   7  -1   2   15.36    1.20
  -7   1  -2   14.03    1.12
   7   1   2   13.26    0.97
   7   1   2   15.39    0.95
   8  -1   2   15.45    1.18
   8  -1   2   15.21    1.46
  -8  -1  -2   17.04    1.22
  -8  -1  -2   20.89    1.74
   8   1   2   14.79    1.21
  -8   1  -2   15.74    1.20
  -8   1  -2   17.30    1.23
  -9  -1  -2    5.51    1.02
  -9  -1  -2    6.38    0.94
   9  -1   2    5.24    1.07
   9   1   2    5.95    0.92
  -9   1  -2    3.41    0.91
  -9   1  -2    3.94    0.90
 -10  -1  -2   -2.08    1.20
 -10  -1  -2    0.03    1.02
  10  -1   2   -1.33    0.92
  10   1   2   -0.68    1.16
 -11  -1  -2    0.84    1.35
  11  -1   2   -1.18    1.28
  11   1   2    1.00    1.32
  11  -2  -2   23.08    3.55
 -11  -2   2   13.99    2.53
 -11  -2   2   16.77    2.12
  11   2  -2   20.22    2.12
 -11   2   2   17.73    2.46
  10  -2  -2    2.86    1.31
 -10  -2   2    2.43    1.08
 -10  -2   2    0.19    0.81
  10  -2  -2    0.57    1.15
  10   2  -2    1.74    0.92
  -9  -2   2    0.80    1.07
   9  -2  -2    1.06    0.66
   9  -2  -2    1.24    0.87
   9   2  -2    0.83    1.27
   8  -2  -2    0.64    0.50
  -8  -2   2   -0.45    0.63
   8  -2  -2    1.57    0.97
   8   2  -2   -0.30    0.63
  -8   2   2    0.21    0.61
  -7  -2   2    4.78    0.63
   7  -2  -2    3.71    0.59
  -7  -2   2    5.08    0.82
   7  -2  -2    3.91    0.52
  -7   2   2    4.47    0.58
   7   2  -2    4.01    0.60
   7   2  -2    4.52    0.73
   7   2  -2    5.75    0.78
  -7   2   2    3.99    0.67
   6  -2  -2    2.49    0.76
  -6  -2   2    2.54    0.50
  -6  -2   2    2.16    0.40
   6  -2  -2    3.19    0.48
   6   2  -2    2.28    0.47
  -6   2   2    2.60    0.48
   6   2  -2    3.29    0.54
   6   2  -2    1.98    0.47
   5  -2  -2    0.13    0.27
  -5  -2   2   -0.33    0.38
   5  -2  -2   -0.28    0.34
   5  -2  -2   -0.11    0.37
  -5  -2   2   -0.06    0.30
  -5   2   2    0.05    0.31
   5   2  -2    0.17    0.29
  -5   2   2   -0.10    0.31
   5   2  -2   -0.32    0.37
   4  -2  -2   27.72    0.99
   4  -2  -2   27.83    0.88
   4  -2  -2   27.73    1.04
  -4  -2   2   27.15    1.11
  -4  -2   2   27.54    0.92
   4  -2  -2   28.41    0.63
  -4  -2   2   26.99    0.87
  -4   2   2   27.07    0.98
  -4   2   2   27.29    1.00
   4   2  -2   26.75    1.08
   4   2  -2   27.66    0.69
   4   2  -2   28.17    1.06
   4   2  -2   27.91    0.96
  -4   2   2   28.60    0.65
  -3  -2   2    0.90    0.26
  -3  -2   2    1.18    0.19
   3  -2  -2    1.09    0.22
   3  -2  -2    1.51    0.29
  -3  -2   2    0.69    0.25
   3  -2  -2    1.48    0.27
  -3   2   2    0.86    0.26
   3   2  -2    1.49    0.25
  -3   2   2    1.23    0.26
   3   2  -2    1.23    0.27
  -3   2   2    1.10    0.21
  -2  -2   2   47.05    1.31
   2  -2  -2   49.45    1.26
   2  -2  -2   47.99    1.30
  -2  -2   2   49.74    1.14
   2  -2  -2   49.00    1.12
  -2  -2   2   48.86    1.13
  -2   2   2   49.58    1.32
   2   2  -2   47.02    1.29
   2   2  -2   48.65    1.31
  -2   2   2   49.59    1.30
   2   2  -2   49.59    1.19
  -1  -2   2    2.48    0.32
  -1  -2   2    2.49    0.25
   1  -2  -2    2.74    0.48
  -1  -2   2    2.31    0.29
   1  -2  -2    2.51    0.27
   1  -2  -2    2.39    0.35
   1   2  -2    2.28    0.31
  -1   2   2    2.20    0.34
  -1   2   2    2.55    0.29
  -1   2   2    2.40    0.27
  -1   2   2    2.41    0.33
   1   2  -2    2.10    0.32
   1   2  -2    1.79    0.32
   0  -2  -2   92.66    2.08
   0  -2   2   92.38    2.02
   0  -2   2   95.64    2.15
   0  -2   2   92.48    1.93
   0   2   2   91.35    2.01
   0   2  -2   91.06    2.03
   0   2  -2   92.69    2.03
   0   2   2   93.94    2.00
   0   2  -2   92.21    1.89
   0   2  -2   92.00    2.03
   0   2   2   90.59    2.01
   1  -2   2   39.29    0.96
  -1  -2  -2   40.41    1.09
   1  -2   2   39.65    1.08
  -1  -2  -2   38.72    1.15
   1  -2   2   39.85    1.06
  -1   2  -2   38.77    1.11
  -1   2  -2   39.89    1.07
   1   2   2   40.05    1.06
  -1   2  -2   39.28    1.03
   1   2   2   39.34    1.05
   1   2   2   40.61    1.07
   1   2   2   38.65    1.11
   2  -2   2    0.50    0.20
   2  -2   2    0.79    0.21
  -2  -2  -2    0.42    0.23
  -2  -2  -2    0.41    0.20
   2   2   2    0.77    0.23
   2   2   2    0.71    0.20
   2   2   2    0.71    0.23
  -2   2  -2    0.96    0.24
   2   2   2    0.25    0.21
  -2   2  -2    0.78    0.22
  -2   2  -2    0.71    0.25
   3  -2   2    0.07    0.22
   3  -2   2    0.23    0.24
   3  -2   2    0.28    0.22
   3  -2   2    0.35    0.19
  -3  -2  -2    0.61    0.29
   3   2   2    0.04    0.24
   3   2   2    0.60    0.26
   3   2   2    1.04    0.27
  -3   2  -2    0.63    0.31
  -3   2  -2    0.82    0.23
   4  -2   2    5.01    0.48
  -4  -2  -2    4.80    0.66
   4  -2   2    3.75    0.54
   4  -2   2    4.08    0.40
  -4  -2  -2    3.10    0.52
   4   2   2    4.92    0.57
   4   2   2    3.33    0.48
   4   2   2    4.31    0.34
  -4   2  -2    3.58    0.47
   4   2   2    3.52    0.52
  -4   2  -2    4.79    0.56
   5  -2   2   78.83    2.16
   5  -2   2   80.15    2.04
   5  -2   2   80.21    1.82
  -5  -2  -2   78.46    2.70
  -5  -2  -2   79.86    2.19
   5   2   2   81.19    2.30
   5   2   2   80.89    2.16
  -5   2  -2   80.67    2.05
   6  -2   2   29.09    1.24
  -6  -2  -2   29.21    1.34
   6  -2   2   30.52    1.03
  -6  -2  -2   29.13    1.38
   6  -2   2   28.99    1.24
   6   2   2   27.93    1.38
  -6   2  -2   30.47    1.25
   6   2   2   30.34    1.32
  -7  -2  -2    0.35    0.50
  -7  -2  -2   -1.15    0.58
   7  -2   2    0.40    0.66
   7  -2   2   -0.12    0.44
   7   2   2    0.15    0.46
   7   2   2   -0.45    0.48
  -8  -2  -2    4.26    0.90
   8  -2   2    2.97    0.71
   8  -2   2    5.25    0.99
  -8  -2  -2    3.85    0.70
  -8   2  -2    5.21    0.73
   8   2   2    5.47    0.86
   8   2   2    5.92    0.94
   9  -2   2   34.93    1.93
  -9  -2  -2   29.89    2.17
   9   2   2   30.82    1.90
 -10  -2  -2    3.88    1.43
 -10  -2  -2    1.81    1.43
  10  -2   2    3.76    1.01
  10   2   2    4.63    1.12
  10  -3  -2    2.69    1.79
 -10  -3   2    1.04    0.83
  10   3  -2   -0.39    1.02
  -9  -3   2    4.77    0.78
  -9  -3   2    3.71    1.10
   9  -3  -2    4.44    1.22
   9   3  -2    3.70    0.91
   8  -3  -2   10.65    1.80
   8  -3  -2    9.69    0.97
  -8  -3   2   13.12    1.58
  -8  -3   2   14.87    1.19
   8   3  -2   12.99    0.99
   8   3  -2   12.33    1.36
  -8   3   2   13.92    1.50
  -7  -3   2   15.59    0.97
   7  -3  -2   15.27    0.99
  -7  -3   2   15.17    1.25
   7  -3  -2   15.82    1.13
   7   3  -2   15.91    1.15
   7   3  -2   14.66    1.10
  -7   3   2   15.28    1.26
  -7   3   2   15.48    1.83
  -6  -3   2    4.42    0.76
   6  -3  -2    3.42    0.55
   6  -3  -2    3.78    0.62
  -6  -3   2    4.45    0.59
  -6   3   2    4.04    0.68
   6   3  -2    4.39    0.54
   6   3  -2    5.50    0.71
  -6   3   2    6.55    1.02
   5  -3  -2    1.89    0.38
  -5  -3   2    1.75    0.33
  -5  -3   2    1.69    0.48
  -5   3   2    2.11    0.92
   5   3  -2    1.54    0.46
  -5   3   2    2.85    0.51
   4  -3  -2    2.74    0.48
  -4  -3   2    1.75    0.46
   4  -3  -2    2.34    0.41
  -4   3   2    1.90    0.46
   4   3  -2    1.72    0.59
  -4   3   2    2.15    0.35
   4   3  -2    2.44    0.46
   4   3  -2    2.22    0.30
  -4   3   2    2.84    0.43
   3  -3  -2    0.25    0.23
   3  -3  -2   -0.33    0.32
  -3  -3   2    0.67    0.33
  -3  -3   2    0.25    0.23
  -3  -3   2   -0.05    0.35
   3  -3  -2    0.04    0.31
  -3   3   2    0.13    0.33
  -3   3   2   -0.08    0.30
  -3   3   2    0.18    0.26
   3   3  -2    0.23    0.32
   3   3  -2   -0.13    0.32
   3   3  -2    0.01    0.23
  -2  -3   2    0.54    0.30
   2  -3  -2    0.02    0.25
   2  -3  -2    0.63    0.28
   2  -3  -2    0.48    0.22
  -2  -3   2    0.08    0.27
  -2  -3   2    0.15    0.19
  -2   3   2    0.46    0.25
  -2   3   2   -0.06    0.28
   2   3  -2    0.42    0.27
  -2   3   2    0.30    0.29
   2   3  -2    0.22    0.28
   2   3  -2    0.50    0.25
   1  -3  -2    6.84    0.45
  -1  -3   2    6.19    0.45
  -1  -3   2    6.27    0.53
   1  -3  -2    6.42    0.56
  -1  -3   2    6.64    0.55
   1  -3  -2    7.40    0.57
   1   3  -2    5.90    0.53
  -1   3   2    6.75    0.46
  -1   3   2    7.30    0.60
  -1   3   2    7.18    0.54
   1   3  -2    6.16    0.52
  -1   3   2    6.93    0.53
   0  -3   2   10.92    0.61
   0  -3   2   11.63    0.92
   0  -3   2   10.90    0.59
   0  -3   2   10.79    0.57
   0  -3  -2   11.31    0.68
   0  -3  -2   11.64    0.64
   0   3  -2   11.08    0.64
   0   3  -2   11.69    0.63
   0   3   2   11.62    0.59
   0   3  -2   11.57    0.66
   0   3   2   11.28    0.65
   0   3  -2   11.33    0.65
   0   3   2   11.97    0.71
   0   3   2   12.20    0.67
  -1  -3  -2   50.06    1.42
   1  -3   2   48.05    1.29
   1  -3   2   47.60    1.35
  -1  -3  -2   50.33    1.51
   1  -3   2   49.99    1.39
  -1   3  -2   52.50    1.37
   1   3   2   50.81    1.41
   1   3   2   48.69    1.46
   1   3   2   50.24    1.83
  -1   3  -2   49.04    1.47
  -1   3  -2   49.73    1.39
   1   3   2   49.89    1.38
   2  -3   2   56.40    1.43
   2  -3   2   56.04    1.55
   2  -3   2   56.43    1.60
  -2  -3  -2   53.13    1.66
  -2  -3  -2   51.41    1.79
  -2   3  -2   56.36    1.64
  -2   3  -2   54.06    1.48
   2   3   2   57.18    1.52
  -2   3  -2   56.02    1.54
   2   3   2   55.93    1.46
   2   3   2   55.47    1.64
   2   3   2   56.43    1.57
  -3  -3  -2    9.70    0.72
  -3  -3  -2   11.21    0.88
   3  -3   2    9.70    0.67
   3  -3   2   10.80    0.70
   3  -3   2   10.89    0.65
   3   3   2   11.11    0.75
  -3   3  -2   10.94    0.93
   3   3   2   11.01    0.77
  -3   3  -2   10.40    0.64
   3   3   2   11.55    0.80
   3   3   2   10.75    0.59
  -3   3  -2   11.40    0.79
  -4  -3  -2   15.87    1.02
   4  -3   2   14.85    0.71
   4  -3   2   15.33    0.90
  -4  -3  -2   14.45    0.93
   4  -3   2   16.32    0.95
  -4   3  -2   14.96    1.05
   4   3   2   15.82    1.03
  -4   3  -2   14.20    0.99
   4   3   2   15.92    0.66
  -4   3  -2   15.43    0.76
   5  -3   2    0.12    0.35
  -5  -3  -2   -0.39    0.37
   5  -3   2    0.64    0.40
   5  -3   2    0.06    0.31
   5  -3   2    0.46    0.43
  -5  -3  -2   -0.04    0.43
   5   3   2   -0.71    0.38
  -5   3  -2   -0.12    0.54
   5   3   2    0.39    0.42
  -5   3  -2   -0.23    0.51
   6  -3   2    1.66    0.45
   6  -3   2    1.70    0.63
  -6  -3  -2    1.12    0.42
  -6  -3  -2    1.32    0.57
  -6   3  -2   -0.11    0.64
  -6   3  -2    2.02    0.60
   6   3   2    1.66    0.50
   6   3   2    2.01    0.50
   7  -3   2    0.81    0.51
  -7  -3  -2    1.95    0.73
  -7  -3  -2    2.04    0.54
   7   3   2    1.22    0.64
  -7   3  -2    2.23    1.42
   7   3   2    0.53    0.56
  -8  -3  -2   -0.03    1.70
  -8  -3  -2    1.51    0.83
   8  -3   2   -0.36    0.71
   8   3   2    1.38    0.70
   8   3   2    0.87    0.81
   9  -3   2    2.12    0.89
  -9  -3  -2    0.75    0.87
  -9  -3  -2    0.53    1.13
   9   3   2   -0.03    0.90
  10  -3   2   -0.10    1.07
 -10  -3  -2   -0.17    1.15
 -10  -3  -2    2.26    1.71
  10   3   2   -0.53    1.18
 -10  -4   2   11.99    1.93
 -10  -4   2   11.47    1.89
  10   4  -2    9.00    1.53
  -9  -4   2    1.51    0.78
  -9  -4   2    1.69    1.17
   9   4  -2    3.31    1.04
  -8  -4   2   -1.82    0.95
   8  -4  -2    0.93    1.05
   8   4  -2   -0.45    0.85
  -8   4   2    2.64    1.15
   8   4  -2   -0.98    0.75
   7  -4  -2    1.69    0.59
   7  -4  -2   -0.15    0.66
  -7  -4   2    1.64    1.30
  -7  -4   2    0.16    0.50
   7   4  -2   -0.73    0.57
  -7   4   2    1.28    0.73
  -7   4   2    0.41    0.74
   7   4  -2   -0.58    0.66
  -6  -4   2    0.21    0.42
   6  -4  -2    0.15    0.49
   6  -4  -2    0.33    0.59
  -6  -4   2    0.90    0.59
   6   4  -2    0.75    0.50
  -6   4   2    0.03    0.60
  -6   4   2    2.41    0.61
   6   4  -2    1.49    0.56
  -5  -4   2    4.04    0.64
  -5  -4   2    4.49    0.71
   5  -4  -2    4.18    0.64
   5  -4  -2    4.72    0.77
  -5   4   2    5.67    0.86
   5   4  -2    5.65    0.79
   5   4  -2    4.73    0.75
  -5   4   2    3.99    0.73
   4  -4  -2    5.39    0.89
  -4  -4   2    5.81    0.78
  -4  -4   2    6.42    0.59
   4  -4  -2    5.58    0.82
   4  -4  -2    6.61    0.65
   4   4  -2    5.99    0.87
  -4   4   2    4.75    0.82
   4   4  -2    6.21    0.81
  -4   4   2    5.77    0.86
  -4   4   2    5.63    0.74
   4   4  -2    4.94    0.62
  -3  -4   2    0.28    0.44
   3  -4  -2   -0.34    0.31
  -3  -4   2    0.11    0.29
   3  -4  -2   -0.46    0.40
  -3   4   2    0.35    0.45
  -3   4   2    0.29    0.39
  -3   4   2    0.31    0.38
   3   4  -2    0.67    0.36
   3   4  -2    0.03    0.38
   3   4  -2    0.62    0.42
   2  -4  -2    2.81    0.55
   2  -4  -2    3.50    0.58
  -2  -4   2    3.42    0.57
  -2  -4   2    2.40    0.40
   2  -4  -2    2.33    0.36
   2   4  -2    2.63    0.46
   2   4  -2    2.59    0.56
  -2   4   2    3.21    0.57
  -2   4   2    2.30    0.47
  -2   4   2    2.10    0.45
   2   4  -2    3.45    0.59
   1  -4  -2   19.91    1.00
   1  -4  -2   18.50    0.84
  -1  -4   2   19.28    0.93
  -1  -4   2   18.83    0.98
   1  -4  -2   18.45    1.07
  -1   4   2   20.21    0.88
  -1   4   2   20.29    0.97
   1   4  -2   19.82    0.99
   1   4  -2   19.48    1.09
  -1   4   2   21.01    1.03
   0  -4   2    3.96    0.56
   0  -4   2    2.09    0.38
   0  -4   2    2.60    0.44
   0  -4  -2    3.29    0.57
   0  -4  -2    2.06    0.39
   0   4   2    2.60    0.50
   0   4  -2    2.73    0.47
   0   4  -2    2.40    0.51
   0   4  -2    2.93    0.51
   0   4   2    3.29    0.54
   0   4   2    2.96    0.54
   0   4   2    2.80    0.42
   1  -4   2    0.40    0.36
  -1  -4  -2   -0.12    0.70
   1  -4   2    0.07    0.31
   1  -4   2    0.12    0.32
  -1   4  -2    0.83    0.44
   1   4   2    0.54    0.66
   1   4   2   -0.02    0.44
   1   4   2   -0.53    0.50
  -1   4  -2    0.08    0.36
   1   4   2    0.23    0.37
  -2  -4  -2    0.41    0.38
  -2  -4  -2    0.19    0.43
   2  -4   2    0.53    0.42
   2  -4   2   -0.21    0.35
   2  -4   2   -0.56    0.35
   2   4   2    0.15    0.38
   2   4   2   -0.05    0.43
  -2   4  -2   -0.51    0.39
  -2   4  -2   -0.06    0.39
   2   4   2   -0.03    0.36
   3  -4   2    0.58    0.43
  -3  -4  -2    0.51    0.42
  -3  -4  -2    0.14    0.45
   3  -4   2    1.10    0.43
   3  -4   2    0.69    0.41
  -3   4  -2    0.45    0.44
   3   4   2    0.81    0.42
   3   4   2    0.55    0.40
  -3   4  -2    0.15    0.42
   3   4   2    0.46    0.35
   4  -4   2   23.18    1.12
   4  -4   2   24.77    1.30
  -4  -4  -2   23.69    1.62
  -4  -4  -2   25.56    1.34
   4  -4   2   24.08    1.17
  -4   4  -2   25.22    1.50
   4   4   2   25.17    1.18
   4   4   2   22.05    0.96
  -4   4  -2   25.38    1.18
   4   4   2   24.61    1.21
  -5  -4  -2    1.83    0.56
   5  -4   2    1.62    0.62
   5  -4   2    0.53    0.47
   5  -4   2    0.52    0.73
   5  -4   2    0.45    0.67
  -5  -4  -2    0.96    0.46
   5   4   2    0.68    0.50
  -5   4  -2    0.00    0.63
  -5   4  -2    0.85    0.55
   5   4   2    0.39    0.63
  -6  -4  -2    2.74    0.58
  -6  -4  -2    3.41    0.78
   6  -4   2    3.56    0.58
   6   4   2    3.57    0.76
  -6   4  -2    3.86    0.74
   6   4   2    3.41    0.66
  -7  -4  -2    1.24    0.70
   7  -4   2    0.37    0.65
  -7   4  -2    0.39    0.85
   7   4   2   -0.13    0.73
  -8  -4  -2    3.43    0.87
   8  -4   2    2.33    1.36
  -8  -4  -2    1.62    1.13
   8   4   2    3.31    0.99
   8   4   2    3.71    1.09
   9  -4   2    1.44    1.06
  -9  -4  -2   -0.91    0.98
  -9  -4  -2   -1.40    1.26
   9   4   2    1.20    1.13
  -9  -5   2    1.78    1.01
  -9  -5   2   -1.15    1.42
   9   5  -2   -1.19    1.29
  -8  -5   2    1.62    1.16
  -8  -5   2    0.26    0.77
  -8   5   2    0.95    1.45
   8   5  -2   -0.87    1.09
   8   5  -2    0.93    0.97
  -7  -5   2    3.23    1.06
  -7  -5   2    4.51    1.15
   7   5  -2    3.93    1.13
   7   5  -2    6.36    1.03
  -6  -5   2    0.55    0.61
   6  -5  -2    0.68    0.77
  -6  -5   2    0.00    0.88
   6   5  -2    0.75    0.85
  -6   5   2   -0.30    0.87
   5  -5  -2   20.39    1.61
  -5  -5   2   21.93    1.52
  -5  -5   2   19.79    1.20
   5  -5  -2   18.65    1.39
   5   5  -2   17.73    1.33
  -5   5   2   18.85    1.47
   5   5  -2   19.75    1.47
   4  -5  -2   57.13    1.97
  -4  -5   2   55.83    2.14
   4  -5  -2   53.72    1.88
  -4  -5   2   58.30    1.84
   4   5  -2   56.72    1.83
   4   5  -2   55.04    2.02
   4   5  -2   57.53    2.04
  -4   5   2   55.03    2.05
  -4   5   2   52.93    2.62
   3  -5  -2   19.72    1.22
   3  -5  -2   19.57    1.32
  -3  -5   2   21.37    1.26
   3  -5  -2   20.12    1.10
  -3  -5   2   17.96    1.39
  -3   5   2   21.33    1.29
   3   5  -2   20.00    1.23
  -3   5   2   21.03    1.24
   3   5  -2   22.65    1.27
   3   5  -2   19.14    1.07
   2  -5  -2   60.95    1.83
   2  -5  -2   64.41    2.09
  -2  -5   2   62.46    1.85
   2  -5  -2   58.57    2.22
   2   5  -2   63.44    2.07
   2   5  -2   60.09    1.96
  -2   5   2   66.25    2.60
   2   5  -2   63.35    2.04
  -2   5   2   63.89    2.08
  -1  -5   2   30.11    1.40
   1  -5  -2   29.92    1.50
  -1  -5   2   30.63    1.44
   1  -5  -2   30.17    1.45
   1  -5  -2   29.65    1.24
  -1  -5   2   29.47    1.35
   1   5  -2   30.74    1.53
  -1   5   2   30.16    1.35
   1   5  -2   29.32    1.37
   1   5  -2   30.10    1.29
  -1   5   2   29.14    1.35
  -1   5   2   29.65    1.35
   0  -5   2    1.43    0.42
   0  -5  -2    1.73    0.53
   0  -5  -2    1.59    0.97
   0  -5   2    1.39    0.60
   0  -5   2    1.20    0.44
   0   5  -2    2.21    0.45
   0   5   2    1.87    0.48
   0   5  -2    1.93    0.53
   0   5  -2    2.53    0.51
   0   5   2    2.67    0.46
  -1  -5  -2   14.96    1.07
   1  -5   2   15.10    1.06
  -1  -5  -2   12.47    1.04
   1  -5   2   13.70    0.97
  -1   5  -2   12.81    0.91
   1   5   2   14.43    1.19
   1   5   2   12.56    1.36
  -1   5  -2   13.87    1.01
   1   5   2   14.58    1.16
   2  -5   2    3.57    0.75
  -2  -5  -2    4.26    0.57
   2  -5   2    4.98    0.74
  -2  -5  -2    3.30    0.62
   2  -5   2    4.10    0.57
  -2   5  -2    3.49    0.61
   2   5   2    3.65    0.64
   2   5   2    3.90    0.58
   2   5   2    4.02    0.55
  -2   5  -2    4.62    0.67
   3  -5   2    0.58    0.49
  -3  -5  -2    0.58    0.56
   3  -5   2   -0.25    0.50
  -3  -5  -2   -0.34    0.79
  -3   5  -2   -0.14    0.54
  -3   5  -2    0.22    0.53
   3   5   2    0.40    0.51
   3   5   2   -0.82    0.66
   3   5   2   -0.75    0.54
   4  -5   2    4.17    0.68
   4  -5   2    5.31    0.78
  -4  -5  -2    2.77    0.77
  -4  -5  -2    4.24    0.58
   4  -5   2    4.47    1.26
  -4   5  -2    5.20    0.85
  -4   5  -2    6.28    1.04
   4   5   2    5.17    0.76
   4   5   2    5.06    0.73
  -5  -5  -2    4.41    0.93
  -5  -5  -2    2.95    0.66
   5  -5   2    2.66    0.61
  -5   5  -2    2.95    0.81
   5   5   2    5.15    0.89
   5   5   2    2.61    0.84
  -6  -5  -2    0.64    0.92
   6  -5   2    0.17    0.69
  -6  -5  -2    0.56    0.72
  -6   5  -2   -0.16    0.93
   6   5   2    0.48    1.09
  -7  -5  -2    0.89    1.08
  -7  -5  -2    2.63    0.87
   7  -5   2    1.50    0.91
   7   5   2    1.55    0.93
  -7   5  -2    3.91    1.37
   7   5   2    1.96    1.00
   8  -5   2   -0.34    1.04
  -8  -5  -2   -0.18    1.00
  -8  -5  -2   -1.69    1.23
   8   5   2    0.96    1.32
   8   5   2   -1.66    1.07
  -8  -6   2    3.17    2.56
  -8  -6   2    4.25    1.17
   8   6  -2    1.15    1.25
  -8   6   2    8.67    2.07
   8   6  -2    6.61    1.74
  -7  -6   2   41.90    2.66
  -7  -6   2   38.26    2.05
   7   6  -2   36.44    2.20
   7   6  -2   41.72    2.46
  -7   6   2   41.50    3.30
  -6  -6   2    0.89    0.77
  -6  -6   2    1.00    1.08
   6   6  -2    1.13    1.01
  -6   6   2   -1.07    1.04
   6   6  -2   -0.87    0.86
  -5  -6   2    1.58    0.68
  -5  -6   2    1.76    1.07
   5  -6  -2    1.22    1.03
  -5   6   2    1.35    0.99
   5   6  -2    0.58    0.96
   5   6  -2    1.87    0.85
  -4  -6   2   -0.47    0.86
  -4  -6   2   -0.72    0.60
   4  -6  -2    1.63    0.83
   4   6  -2   -1.48    1.41
  -3  -6   2    0.00    0.55
  -3  -6   2    0.41    0.78
   3  -6  -2    0.55    0.74
  -3   6   2    0.92    0.82
   3   6  -2   -0.08    0.70
   3   6  -2    0.14    0.71
  -3   6   2   -0.03    0.71
   2  -6  -2    0.33    0.62
  -2  -6   2    1.00    0.65
   2  -6  -2    0.16    0.51
  -2  -6   2   -0.41    0.83
  -2  -6   2   -0.02    0.51
   2  -6  -2   -1.10    0.76
  -2   6   2   -0.10    0.71
   2   6  -2    0.33    0.66
   2   6  -2    0.24    0.57
   2   6  -2    0.65    0.76
  -2   6   2    0.60    0.66
   1  -6  -2    0.42    0.61
  -1  -6   2    0.87    0.64
  -1  -6   2    0.33    0.50
  -1  -6   2    1.20    0.57
   1  -6  -2   -1.04    0.50
   1  -6  -2    0.89    0.69
   1   6  -2    0.29    0.63
  -1   6   2   -0.10    0.66
  -1   6   2    0.15    0.59
   1   6  -2    0.36    0.77
   0  -6   2    1.63    0.74
   0  -6  -2   -0.41    0.64
   0  -6  -2    1.12    0.53
   0  -6   2    0.56    0.50
   0  -6   2    1.35    0.55
   0  -6  -2    1.48    0.60
   0   6   2    0.32    0.62
   0   6   2    1.71    0.64
   0   6   2    0.52    0.61
   0   6  -2    0.17    0.62
   0   6  -2    1.46    0.62
   0   6  -2    0.96    0.63
  -1  -6  -2   52.40    2.21
   1  -6   2   53.56    1.92
   1  -6   2   58.28    2.53
  -1  -6  -2   55.47    1.99
   1  -6   2   53.40    1.93
   1   6   2   51.97    2.08
   1   6   2   54.90    2.06
  -1   6  -2   52.07    2.10
  -1   6  -2   54.64    2.40
   1   6   2   55.37    1.95
  -2  -6  -2   13.10    1.18
   2  -6   2   11.66    1.04
   2  -6   2   12.58    1.15
   2  -6   2   13.02    1.76
  -2  -6  -2   11.86    1.43
   2   6   2   11.99    1.25
   2   6   2   11.98    1.27
  -2   6  -2   13.38    1.91
  -2   6  -2   12.21    1.35
   2   6   2   13.26    1.07
   3  -6   2    1.12    0.66
  -3  -6  -2    0.28    0.65
  -3  -6  -2   -0.22    0.96
   3  -6   2    1.13    0.63
  -3   6  -2   -0.97    1.49
  -3   6  -2   -0.15    0.71
   3   6   2    1.10    0.63
   3   6   2    0.39    0.81
   3   6   2   -0.21    0.79
   4  -6   2    4.26    0.78
  -4  -6  -2    6.21    0.92
  -4  -6  -2    4.96    1.07
  -4   6  -2    4.94    1.31
   4   6   2    3.68    0.93
   4   6   2    6.31    1.25
  -4   6  -2    6.15    1.09
  -5  -6  -2    0.41    0.85
  -5  -6  -2    1.24    1.04
   5  -6   2    0.53    0.84
  -5   6  -2    0.50    0.98
   5   6   2    1.57    0.89
   5   6   2    0.45    1.02
  -6  -6  -2   -0.48    0.92
   6  -6   2   -1.70    0.93
  -6  -6  -2    1.09    1.27
   6   6   2   -0.95    1.04
  -6   6  -2   -0.28    1.15
   6   6   2   -0.80    0.97
  -7  -6  -2    1.38    1.10
  -7  -6  -2   -0.39    1.47
   7   6   2    0.43    1.19
  -7   6  -2    1.98    1.55
   7   6   2    3.25    1.33
  -6  -7   2    0.89    1.06
  -6  -7   2    1.10    1.53
   6   7  -2    1.60    1.65
   6   7  -2   -2.05    1.22
  -6   7   2    0.02    1.51
  -5  -7   2    2.21    1.26
  -5   7   2    2.51    1.33
   5   7  -2    2.75    1.12
   5   7  -2    4.93    1.24
   4  -7  -2    7.55    1.56
  -4  -7   2    6.07    0.94
  -4  -7   2    8.07    1.38
   4   7  -2    6.87    1.15
   4   7  -2    7.42    1.83
  -4   7   2    7.55    1.24
  -3  -7   2    0.84    1.12
  -3  -7   2    0.08    0.77
  -3  -7   2    0.17    1.01
   3  -7  -2   -1.03    1.27
   3   7  -2    0.38    0.96
   3   7  -2    0.94    1.03
  -2  -7   2   10.15    1.55
   2  -7  -2    8.43    1.56
  -2  -7   2    8.40    1.01
  -2  -7   2    9.31    1.18
  -2   7   2    7.26    1.16
   2   7  -2    7.71    1.80
   2   7  -2    9.91    1.32
   2   7  -2   13.18    1.56
  -1  -7   2    3.26    0.82
  -1  -7   2    2.42    1.26
   1  -7  -2    4.21    1.23
  -1  -7   2    3.72    0.94
  -1   7   2    2.82    1.16
   1   7  -2    1.90    0.93
  -1   7   2    3.59    0.96
   1   7  -2    2.61    0.99
   1   7  -2    3.10    1.34
   0  -7  -2   -0.92    0.84
   0  -7   2   -0.95    1.30
   0  -7  -2    0.25    1.03
   0  -7   2   -0.01    1.43
   0  -7   2    1.19    1.37
   0  -7  -2   -0.22    0.78
   0   7   2   -0.02    1.01
   0   7   2   -0.26    0.85
   0   7  -2   -0.80    0.87
   0   7  -2   -0.43    0.87
   0   7   2    1.80    1.39
  -1  -7  -2    3.85    0.98
  -1  -7  -2    1.66    0.85
  -1  -7  -2    2.92    1.12
   1   7   2    3.40    1.23
   1   7   2    2.91    0.93
   1   7   2    2.46    0.99
  -1   7  -2    2.14    1.04
  -1   7  -2    4.10    0.97
   2  -7   2   -0.47    0.89
  -2  -7  -2    1.91    1.09
  -2  -7  -2    0.10    1.22
   2   7   2   -0.12    1.01
  -2   7  -2    0.62    0.95
  -2   7  -2    0.39    1.15
   2   7   2   -0.03    0.91
   3  -7   2    0.55    0.89
  -3  -7  -2    0.07    1.15
  -3  -7  -2    0.27    0.89
  -3   7  -2    0.18    1.10
  -3   7  -2    0.00    1.26
   3   7   2   -0.02    0.94
   3   7   2    1.42    1.20
   4  -7   2   -0.02    1.61
  -4  -7  -2    4.08    1.39
  -4  -7  -2    2.67    1.37
   4   7   2    2.38    1.07
   4   7   2    1.04    1.33
  -4   7  -2    3.22    1.22
  -5  -7  -2    2.45    1.17
  -5  -7  -2    4.10    1.56
   5   7   2    6.06    1.55
  -5   7  -2    5.14    1.46
   5   7   2    6.04    1.32
  -3  -8   2   -1.36    1.38
  -3  -8   2   -2.08    1.09
  -3  -8   2    2.64    1.93
   3   8  -2   -0.47    1.67
  -3   8   2   -1.59    2.29
   3   8  -2   -2.07    1.82
  -2  -8   2    2.63    1.23
  -2  -8   2    2.00    1.08
   2  -8  -2    3.83    2.07
  -2  -8   2    0.37    1.91
   2   8  -2    1.73    1.56
   2   8  -2    4.01    1.28
  -2   8   2    3.03    1.44
   2   8  -2    2.85    1.35
  -1  -8   2    6.25    1.16
  -1  -8   2    4.67    1.06
   1  -8  -2    7.33    1.75
   1   8  -2    4.92    1.34
   1   8  -2    7.14    1.32
  -1   8   2    5.85    1.54
   0  -8   2   -0.38    1.09
   0  -8  -2    1.81    1.51
   0  -8   2    1.25    1.11
   0   8  -2    2.73    1.35
   0   8   2   -0.99    1.18
   0   8   2    0.87    1.34
   0   8  -2   -0.89    1.24
  -1  -8  -2    0.57    1.54
   1  -8   2    0.38    1.14
   1  -8   2   -0.24    1.23
   1   8   2   -0.56    1.28
  -1   8  -2   -1.75    1.35
   1   8   2   -0.39    1.18
  -1   8  -2    0.72    1.34
  -2  -8  -2    1.14    1.61
  -2   8  -2    0.20    1.41
  -2   8  -2    1.09    1.77
   2   8   2    1.12    1.41
   2   8   2    0.62    1.69
 -11   0   3   -2.02    1.82
  11   0  -3   -0.43    1.54
 -11   0   3    0.64    1.05
  11   0  -3   -0.31    1.01
  10   0  -3   -1.23    0.98
 -10   0   3   -0.01    0.99
 -10   0   3   -0.34    0.78
   9   0  -3    6.34    0.93
  -9   0   3    5.15    0.85
   9   0  -3    6.31    0.78
   8   0  -3    0.04    0.50
   8   0  -3    0.16    0.52
   7   0  -3   61.17    1.87
   7   0  -3   59.33    1.98
   6   0  -3   -0.18    0.34
  -6   0   3    0.75    0.31
  -6   0   3   -0.45    0.31
   6   0  -3    0.02    0.39
  -5   0   3   87.33    2.06
  -5   0   3   89.89    1.85
   5   0  -3   89.51    2.31
   5   0  -3   90.44    1.72
   5   0  -3   90.60    2.15
  -5   0   3   92.10    2.08
   4   0  -3   -0.15    0.11
   4   0  -3    0.14    0.23
  -4   0   3   -0.12    0.15
   4   0  -3    0.03    0.18
  -4   0   3    0.13    0.21
  -4   0   3   -0.03    0.18
   3   0  -3    0.73    0.20
   3   0  -3    0.92    0.18
  -3   0   3    0.76    0.16
  -3   0   3    0.62    0.14
   3   0  -3    0.91    0.12
  -3   0   3    0.63    0.15
   2   0  -3   -0.15    0.12
  -2   0   3   -0.19    0.09
   2   0  -3   -0.15    0.10
   2   0  -3    0.01    0.19
  -2   0   3   -0.11    0.12
   2   0  -3   -0.26    0.13
  -2   0   3   -0.26    0.08
   1   0  -3  155.82    2.91
  -1   0   3  153.73    2.90
   1   0  -3  156.25    2.90
  -1   0   3  152.96    2.75
   1   0  -3  155.24    2.80
  -1   0   3  152.58    2.74
   1   0  -3  154.12    2.85
  -1   0   3  153.48    2.85
   0   0   3    0.05    0.10
   0   0   3    0.05    0.13
   0   0   3    0.05    0.09
   0   0  -3   -0.01    0.11
   0   0  -3    0.00    0.08
   0   0  -3    0.16    0.10
   0   0   3   -0.04    0.09
  -1   0  -3   23.28    0.64
  -1   0  -3   24.19    0.58
  -1   0  -3   24.38    0.66
   1   0   3   23.19    0.67
   1   0   3   23.32    0.66
  -2   0  -3   -0.24    0.16
   2   0   3   -0.01    0.17
   2   0   3   -0.10    0.15
   2   0   3    0.04    0.14
  -2   0  -3    0.32    0.16
  -2   0  -3   -0.09    0.15
  -3   0  -3  279.55    5.31
  -3   0  -3  277.79    5.19
   3   0   3  268.68    5.19
   3   0   3  277.74    5.18
   4   0   3   -0.35    0.24
   4   0   3   -0.02    0.21
   4   0   3    0.06    0.24
  -4   0  -3    0.09    0.27
  -4   0  -3    0.13    0.25
  -4   0  -3   -0.13    0.22
  -5   0  -3    0.04    0.33
   5   0   3   -0.29    0.30
   5   0   3   -0.02    0.26
  -5   0  -3   -0.11    0.32
  -5   0  -3   -0.37    0.45
  -6   0  -3   -0.16    0.46
  -6   0  -3    0.96    0.50
   6   0   3    0.46    0.49
   6   0   3    0.08    0.46
   6   0   3    0.13    0.34
   7   0   3    0.84    0.43
  -7   0  -3    0.59    0.55
  -7   0  -3   -0.26    0.52
   7   0   3   -0.40    0.45
   8   0   3   -0.73    0.56
  -8   0  -3    1.68    0.68
  -8   0  -3   -0.19    0.66
  -9   0  -3   -1.80    0.97
  -9   0  -3   -0.20    1.27
  10   0   3   -0.74    0.99
  11   0   3    2.14    1.70
  11  -1  -3    2.60    1.31
 -11  -1   3    2.00    1.25
 -11  -1   3    3.02    0.97
  11  -1  -3    2.33    1.27
  11   1  -3    1.87    1.04
 -11   1   3    2.08    1.25
 -10  -1   3    4.80    1.10
  10  -1  -3    3.41    1.13
 -10  -1   3    3.31    0.84
  10  -1  -3    2.84    0.89
  10   1  -3    4.37    1.10
 -10   1   3    5.31    1.11
  10   1  -3    3.39    0.87
  -9  -1   3    7.47    1.18
   9  -1  -3    8.96    1.48
   9  -1  -3   10.42    1.31
  -9  -1   3    7.49    1.06
   9   1  -3    9.28    1.10
   9   1  -3    9.90    1.41
   8  -1  -3    1.26    0.81
   8  -1  -3    2.26    0.50
  -8  -1   3    1.13    0.55
  -8  -1   3    1.43    0.44
   8   1  -3    1.64    0.51
   8   1  -3    2.39    0.59
  -7  -1   3    0.52    0.43
   7  -1  -3    0.08    0.44
  -7  -1   3    0.68    0.30
   7  -1  -3   -0.16    0.45
   7   1  -3    0.69    0.48
   7   1  -3   -0.15    0.39
  -7   1   3    0.33    0.37
   6  -1  -3    0.33    0.31
   6  -1  -3    0.42    0.43
  -6  -1   3    0.46    0.40
   6   1  -3    0.56    0.54
  -6   1   3    0.65    0.34
   6   1  -3    0.09    0.39
   6   1  -3    0.22    0.27
  -5  -1   3   16.90    0.75
   5  -1  -3   15.62    0.84
   5  -1  -3   15.80    0.79
  -5   1   3   16.07    0.99
   5   1  -3   15.46    0.80
  -5   1   3   16.10    0.70
   5   1  -3   16.04    0.89
   5   1  -3   16.56    0.65
  -5   1   3   15.57    0.76
  -4  -1   3    4.21    0.29
   4  -1  -3    4.19    0.37
  -4  -1   3    3.78    0.39
   4  -1  -3    4.25    0.45
   4  -1  -3    3.84    0.44
   4   1  -3    4.34    0.56
  -4   1   3    4.62    0.42
  -4   1   3    4.45    0.53
   4   1  -3    4.07    0.44
  -4   1   3    3.76    0.39
   3  -1  -3   99.87    2.24
   3  -1  -3  101.43    1.99
   3  -1  -3  100.12    2.06
  -3  -1   3  100.51    1.93
  -3   1   3   98.37    2.11
   3   1  -3   99.30    2.19
   3   1  -3  100.09    2.07
  -3   1   3  100.05    2.13
   3   1  -3  101.70    1.97
  -3   1   3  100.81    2.11
   3   1  -3   97.25    2.22
   2  -1  -3   24.86    0.79
   2  -1  -3   24.90    0.54
   2   1  -3   24.43    0.75
  -2   1   3   24.69    0.76
  -2   1   3   24.79    0.72
  -2   1   3   24.32    0.71
   2   1  -3   23.74    0.66
   2   1  -3   25.29    0.73
   2   1  -3   25.30    0.76
  -2   1   3   24.49    0.58
  -1  -1   3  282.85    5.01
   1  -1  -3  275.98    5.11
  -1   1   3  279.27    5.10
  -1   1   3  261.73    5.13
  -1   1   3  277.01    4.98
   1   1  -3  268.65    5.08
  -1   1   3  277.33    5.02
   1   1  -3  279.74    5.07
   1   1  -3  276.07    5.00
   0  -1   3  984.00   17.06
   0  -1  -3  927.19   17.23
   0  -1  -3  997.32   17.03
   0  -1   3  935.03   16.89
   0  -1   3  996.83   16.93
   0  -1   3  999.44   16.85
   0   1   3  954.53   17.06
   0   1   3  900.63   17.14
   0   1  -3  985.72   17.06
   0   1  -3  980.89   17.07
   0   1  -3  989.06   17.06
   0   1   3 1000.00   16.90
   0   1   3  991.41   17.03
  -1  -1  -3    2.86    0.32
   1  -1   3    2.56    0.29
   1  -1   3    2.24    0.34
  -1  -1  -3    3.02    0.31
   1  -1   3    2.63    0.27
   1  -1   3    3.08    0.29
   1   1   3    2.55    0.30
  -1   1  -3    2.91    0.31
   1   1   3    2.77    0.29
   1   1   3    2.29    0.30
  -1   1  -3    2.40    0.29
   2  -1   3   14.44    0.58
   2  -1   3   14.09    0.42
  -2  -1  -3   14.12    0.60
  -2  -1  -3   14.90    0.63
   2  -1   3   13.85    0.58
   2   1   3   13.78    0.60
   2   1   3   14.06    0.57
   2   1   3   14.00    0.49
  -2   1  -3   14.42    0.57
  -2   1  -3   14.46    0.56
   2   1   3   13.45    0.59
   3  -1   3    3.49    0.41
   3  -1   3    3.45    0.32
  -3  -1  -3    3.02    0.41
  -3  -1  -3    2.74    0.40
   3  -1   3    2.73    0.38
   3   1   3    2.75    0.44
  -3   1  -3    3.16    0.37
   3   1   3    2.97    0.28
   3   1   3    3.36    0.37
   3   1   3    2.72    0.39
   4  -1   3   10.67    0.67
  -4  -1  -3   11.39    0.81
   4  -1   3   10.64    0.53
   4  -1   3   10.98    0.68
   4  -1   3   10.55    0.58
   4   1   3   11.24    0.42
  -4   1  -3   10.73    0.60
   4   1   3   11.04    0.69
   4   1   3   11.52    0.70
   4   1   3   10.47    0.62
   5  -1   3   -0.11    0.33
   5  -1   3    0.32    0.29
  -5  -1  -3    0.34    0.34
  -5  -1  -3    0.58    0.39
   5  -1   3    0.46    0.36
   5   1   3    0.24    0.37
   5   1   3   -0.17    0.41
  -5   1  -3   -0.14    0.31
  -5   1  -3    0.48    0.34
   5   1   3   -0.44    0.29
   6  -1   3   23.14    1.14
   6  -1   3   22.64    0.91
  -6  -1  -3   22.85    1.27
   6  -1   3   22.13    1.11
  -6   1  -3   21.92    1.10
   6   1   3   23.45    1.07
   6   1   3   23.42    1.13
  -6   1  -3   22.49    0.99
  -7  -1  -3    1.87    0.51
  -7  -1  -3    0.66    0.55
   7  -1   3    0.48    0.69
   7  -1   3    0.69    0.53
  -7   1  -3    1.71    0.67
  -7   1  -3    0.34    0.63
   7   1   3    0.59    0.48
   7   1   3    1.26    0.53
   8  -1   3    1.98    0.91
   8  -1   3    0.57    0.61
  -8  -1  -3    1.17    0.72
  -8  -1  -3    1.76    0.63
  -8   1  -3    1.57    0.69
   8   1   3    0.44    0.64
  -8   1  -3    0.83    0.70
  -9  -1  -3    7.00    1.09
  -9  -1  -3    6.70    1.07
   9   1   3    5.34    0.95
  10  -1   3    0.93    0.98
 -10  -1  -3    3.31    1.17
 -10  -1  -3    0.11    1.27
  10   1   3    0.66    0.99
 -11  -2   3   18.39    2.62
 -11  -2   3   19.62    3.00
  11  -2  -3   17.88    3.40
  11   2  -3   15.51    2.20
 -11   2   3   20.44    2.33
 -10  -2   3    0.15    1.21
  10  -2  -3    1.94    1.17
 -10  -2   3    1.75    0.77
  10   2  -3    0.04    0.94
   9  -2  -3    2.23    0.90
   9  -2  -3    3.70    0.86
   9   2  -3    1.34    1.02
   8  -2  -3    3.94    0.57
   8  -2  -3    3.46    0.70
  -8  -2   3    3.77    0.75
  -8  -2   3    3.55    0.55
   8   2  -3    4.83    0.79
   8   2  -3    4.08    0.66
  -7  -2   3    5.73    0.82
   7  -2  -3    2.99    0.56
  -7  -2   3    4.61    0.60
  -7   2   3    4.02    0.67
   7   2  -3    3.80    0.55
  -7   2   3    3.67    0.57
   7   2  -3    4.06    0.60
   7   2  -3    4.39    0.75
  -6  -2   3    0.64    0.44
   6  -2  -3   -0.48    0.38
  -6  -2   3    0.71    0.27
   6  -2  -3    0.99    0.33
  -6   2   3    0.01    0.38
   6   2  -3    0.31    0.38
  -6   2   3    0.38    0.42
   6   2  -3    0.19    0.38
   6   2  -3    0.31    0.34
  -5  -2   3    0.37    0.36
   5  -2  -3    0.38    0.29
   5  -2  -3    0.64    0.38
  -5  -2   3    0.47    0.23
   5  -2  -3   -0.05    0.35
   5   2  -3    0.79    0.41
   5   2  -3    0.74    0.29
  -5   2   3    0.38    0.33
  -5   2   3    0.14    0.32
   5   2  -3    0.03    0.17
   4  -2  -3   32.76    1.18
  -4  -2   3   32.23    0.97
  -4  -2   3   31.44    1.21
   4  -2  -3   33.18    0.93
   4  -2  -3   34.32    1.07
  -4  -2   3   31.21    0.91
   4   2  -3   32.87    1.17
   4   2  -3   32.01    1.19
  -4   2   3   31.98    1.10
   4   2  -3   32.37    1.02
  -4   2   3   32.59    1.13
   4   2  -3   33.12    1.08
  -3  -2   3   72.49    1.88
   3  -2  -3   75.65    1.76
  -3  -2   3   73.90    1.57
   3  -2  -3   73.15    1.85
  -3  -2   3   71.44    1.56
  -3   2   3   70.49    1.77
  -3   2   3   72.56    1.51
   3   2  -3   72.34    1.93
   3   2  -3   73.45    1.82
   3   2  -3   71.06    1.85
   3   2  -3   74.90    1.62
   2  -2  -3    7.82    0.32
  -2  -2   3    7.43    0.35
  -2  -2   3    7.72    0.50
  -2  -2   3    7.68    0.38
   2  -2  -3    7.77    0.47
   2  -2  -3    8.36    0.51
   2   2  -3    7.79    0.49
  -2   2   3    7.97    0.49
   2   2  -3    7.36    0.48
  -2   2   3    7.76    0.41
   2   2  -3    7.43    0.43
  -2   2   3    8.00    0.50
   1  -2  -3    3.31    0.38
   1  -2  -3    3.76    0.39
  -1  -2   3    3.45    0.27
  -1  -2   3    3.74    0.30
  -1  -2   3    4.21    0.37
  -1   2   3    3.99    0.27
  -1   2   3    3.82    0.40
   1   2  -3    3.36    0.36
  -1   2   3    3.78    0.38
   1   2  -3    4.10    0.38
  -1   2   3    3.39    0.35
   1   2  -3    3.46    0.34
   0  -2   3   43.00    1.03
   0  -2   3   42.19    1.05
   0  -2  -3   41.85    1.21
   0  -2   3   42.59    1.17
   0  -2   3   43.25    1.09
   0  -2  -3   44.38    1.18
   0   2   3   41.82    1.14
   0   2  -3   42.96    1.17
   0   2   3   43.82    1.18
   0   2  -3   41.97    1.17
   0   2  -3   42.34    1.16
   1  -2   3   87.14    1.95
   1  -2   3   89.90    1.78
  -1  -2  -3   90.21    2.03
  -1  -2  -3   89.65    2.10
   1  -2   3   91.25    2.00
   1  -2   3   89.28    2.03
   1   2   3   90.79    1.98
   1   2   3   91.45    1.95
  -1   2  -3   88.85    2.06
   1   2   3   88.03    2.05
  -1   2  -3   88.11    1.99
   1   2   3   90.04    2.02
   2  -2   3    5.34    0.43
  -2  -2  -3    4.79    0.56
   2  -2   3    4.92    0.34
  -2  -2  -3    5.26    0.47
   2  -2   3    5.05    0.48
  -2   2  -3    4.79    0.74
  -2   2  -3    4.61    0.46
   2   2   3    3.95    0.41
   2   2   3    5.20    0.46
   2   2   3    4.55    0.38
   2   2   3    4.94    0.48
  -2   2  -3    4.68    0.42
   3  -2   3    1.92    0.32
   3  -2   3    2.80    0.38
   3  -2   3    2.41    0.36
   3  -2   3    2.98    0.41
  -3  -2  -3    1.98    0.38
  -3  -2  -3    2.18    0.36
  -3   2  -3    2.17    0.34
  -3   2  -3    2.49    0.39
   3   2   3    2.25    0.35
   3   2   3    2.81    0.35
  -3   2  -3    1.80    0.31
   3   2   3    2.06    0.34
   3   2   3    2.60    0.42
   4  -2   3    8.07    0.65
   4  -2   3    7.37    0.51
   4  -2   3    7.53    0.54
  -4  -2  -3    6.04    0.63
   4  -2   3    6.79    0.64
   4   2   3    5.47    0.69
   4   2   3    7.39    0.68
  -4   2  -3    7.10    0.63
   4   2   3    8.64    0.68
   5  -2   3   27.51    1.16
  -5  -2  -3   24.40    1.21
   5  -2   3   25.72    0.90
  -5  -2  -3   24.81    1.61
   5   2   3   24.67    1.15
  -5   2  -3   25.62    1.09
   5   2   3   24.77    1.17
   6  -2   3   13.77    0.97
   6  -2   3   12.01    0.86
   6  -2   3   13.46    0.73
  -6  -2  -3   12.97    0.98
  -6  -2  -3   12.03    0.95
   6   2   3   11.83    0.86
  -6   2  -3   13.44    1.04
   6   2   3   14.09    0.90
  -7  -2  -3    6.21    0.91
  -7  -2  -3    5.29    0.75
   7  -2   3    6.00    0.81
  -7   2  -3    3.67    0.83
   7   2   3    4.80    0.69
   7   2   3    6.15    0.78
  -8  -2  -3   20.02    1.72
   8  -2   3   19.83    1.61
  -8  -2  -3   22.38    1.55
   8   2   3   22.70    1.58
   8   2   3   23.57    1.25
   9  -2   3   21.27    1.65
  -9  -2  -3   20.05    2.02
   9   2   3   22.26    1.84
 -10  -2  -3    4.43    1.22
 -10  -2  -3    3.93    1.83
  10  -2   3    5.00    1.28
  10   2   3    1.87    1.14
 -10  -3   3    1.29    0.79
  10  -3  -3    1.02    1.32
 -10  -3   3   -0.72    1.27
  10   3  -3    0.15    0.99
  -9  -3   3    4.55    0.74
  -9  -3   3    6.53    1.10
   9  -3  -3    3.10    1.28
  -9   3   3    6.41    1.06
   9   3  -3    4.16    0.95
  -8  -3   3    7.11    0.98
  -8  -3   3    5.06    0.93
   8  -3  -3    8.48    0.94
   8  -3  -3    4.73    0.86
   8   3  -3    5.27    0.87
  -8   3   3    8.14    1.34
   8   3  -3    7.75    0.94
   7  -3  -3    8.88    0.98
  -7  -3   3    4.62    0.74
   7  -3  -3    6.75    0.85
  -7  -3   3    6.25    0.71
   7   3  -3    6.51    0.90
  -7   3   3    6.85    1.11
  -7   3   3    8.70    0.99
   7   3  -3    7.58    0.80
   6  -3  -3   10.79    0.79
   6  -3  -3   10.54    1.46
  -6  -3   3   10.67    0.70
  -6  -3   3   12.08    0.91
   6   3  -3   11.47    0.85
  -6   3   3   10.34    0.99
   6   3  -3   11.61    0.88
  -6   3   3   12.15    1.00
  -5  -3   3    6.38    0.79
   5  -3  -3    5.82    0.57
  -5  -3   3    6.46    0.58
   5  -3  -3    5.22    0.84
  -5   3   3    6.43    0.81
   5   3  -3    7.08    0.49
   5   3  -3    6.55    0.72
   4  -3  -3    0.92    0.43
  -4  -3   3    0.70    0.73
  -4  -3   3    0.62    0.32
  -4  -3   3    0.70    0.52
   4  -3  -3    0.42    0.41
   4  -3  -3    0.29    0.24
  -4   3   3   -0.13    0.40
  -4   3   3    0.64    0.30
   4   3  -3    1.00    0.39
   4   3  -3    0.34    0.26
  -4   3   3   -0.01    0.35
  -3  -3   3    4.47    0.58
   3  -3  -3    4.64    0.65
   3  -3  -3    4.62    0.41
  -3  -3   3    5.44    0.61
  -3  -3   3    4.79    0.45
   3  -3  -3    3.98    0.57
  -3   3   3    3.94    0.54
  -3   3   3    4.66    0.47
   3   3  -3    3.78    0.61
   3   3  -3    4.21    0.46
   3   3  -3    4.23    0.59
   2  -3  -3    1.59    0.37
  -2  -3   3    1.73    0.32
  -2  -3   3    1.61    0.26
   2  -3  -3    1.72    0.26
  -2  -3   3    1.97    0.35
   2  -3  -3    2.21    0.36
  -2   3   3    2.53    0.40
   2   3  -3    1.38    0.34
  -2   3   3    1.96    0.38
  -2   3   3    1.56    0.32
   2   3  -3    1.29    0.33
   2   3  -3    2.32    0.33
   1  -3  -3    3.77    0.51
  -1  -3   3    3.70    0.38
   1  -3  -3    3.53    0.52
  -1  -3   3    4.30    0.49
   1  -3  -3    4.02    0.39
  -1  -3   3    4.14    0.46
  -1   3   3    3.28    0.62
   1   3  -3    3.63    0.48
   1   3  -3    3.90    0.51
  -1   3   3    3.41    0.53
   1   3  -3    3.72    0.45
  -1   3   3    3.93    0.41
  -1   3   3    3.48    0.47
   0  -3  -3   13.05    0.70
   0  -3  -3   12.30    0.73
   0  -3   3   12.74    0.62
   0  -3   3   12.47    0.66
   0  -3   3   11.84    0.78
   0  -3   3   12.21    0.59
   0   3   3   12.87    0.59
   0   3   3   12.43    0.74
   0   3  -3   13.37    0.69
   0   3   3   12.63    0.68
   0   3   3   11.94    0.67
   0   3  -3   11.68    0.70
   0   3  -3   11.69    0.66
   1  -3   3   10.05    0.56
   1  -3   3    9.00    0.59
  -1  -3  -3    9.43    0.64
  -1  -3  -3   10.20    0.70
   1   3   3   10.55    0.69
  -1   3  -3    9.56    0.67
  -1   3  -3    9.86    0.62
   1   3   3   10.72    0.66
   1   3   3   10.25    0.62
   1   3   3    9.38    0.59
  -2  -3  -3   10.05    0.78
   2  -3   3   10.11    0.65
   2  -3   3   10.41    0.65
   2  -3   3    9.92    0.58
  -2  -3  -3   10.26    0.69
   2   3   3   10.68    0.67
  -2   3  -3   10.81    0.74
  -2   3  -3   11.06    0.65
   2   3   3   10.33    0.75
  -2   3  -3   11.16    0.77
   2   3   3   10.54    0.73
  -3  -3  -3  159.87    4.15
   3  -3   3  171.58    3.39
  -3  -3  -3  174.21    3.76
   3  -3   3  169.34    3.70
   3   3   3  168.33    3.94
  -3   3  -3  169.95    3.56
   3   3   3  172.26    3.47
   3   3   3  170.75    3.75
  -3   3  -3  168.73    3.78
   3   3   3  166.94    3.89
  -3   3  -3  172.77    3.78
   4  -3   3  124.99    2.71
  -4  -3  -3  129.00    3.11
  -4  -3  -3  124.79    3.20
   4  -3   3  124.89    2.81
   4  -3   3  125.68    3.05
   4  -3   3  121.31    3.24
   4   3   3  128.94    2.71
  -4   3  -3  127.34    3.07
   4   3   3  132.27    3.17
  -4   3  -3  126.95    2.84
   4   3   3  128.51    3.16
  -5  -3  -3   18.63    1.04
   5  -3   3   18.68    0.86
   5  -3   3   18.95    0.96
  -5  -3  -3   19.26    1.15
   5  -3   3   17.69    1.07
  -5   3  -3   19.28    1.16
   5   3   3   18.65    1.10
   5   3   3   18.05    1.01
  -6  -3  -3    0.38    0.59
   6  -3   3    0.39    0.44
  -6   3  -3    0.26    0.62
   6   3   3    0.29    0.51
   6   3   3    1.60    0.48
  -7  -3  -3    0.23    1.01
  -7  -3  -3   -0.12    0.57
   7  -3   3   -0.40    0.55
  -7   3  -3    0.25    0.74
   7   3   3    0.10    0.68
   7   3   3    1.07    0.61
  -8  -3  -3   -0.98    0.74
  -8  -3  -3    0.81    1.31
   8  -3   3    0.39    1.22
   8   3   3   -0.08    1.19
   8   3   3    0.23    0.79
  -9  -3  -3   -0.18    0.94
   9  -3   3    0.11    0.91
  -9  -3  -3   -1.32    1.13
   9   3   3    0.24    0.95
  10  -3   3   -0.18    1.17
 -10  -3  -3    3.99    1.22
 -10  -3  -3   -2.18    1.51
  10   3   3    1.40    1.37
 -10  -4   3   17.63    2.54
 -10  -4   3   16.73    2.06
  -9  -4   3    8.14    1.56
  -9  -4   3   10.39    1.49
   9  -4  -3   11.76    1.71
   9   4  -3   11.64    1.41
  -8  -4   3    0.28    0.60
  -8  -4   3    0.07    1.01
   8  -4  -3    0.25    1.00
  -8   4   3   -0.67    1.63
   8   4  -3   -0.04    0.81
   8   4  -3   -1.47    0.84
  -7  -4   3   -0.08    0.79
  -7  -4   3    0.37    0.49
   7  -4  -3    0.19    0.67
   7   4  -3    0.01    0.70
   7   4  -3    0.26    0.58
  -7   4   3    0.18    0.71
  -7   4   3    0.10    0.71
  -6  -4   3    0.24    0.39
   6  -4  -3    0.45    0.53
  -6  -4   3   -0.51    0.72
   6  -4  -3   -0.71    0.68
   6   4  -3   -0.04    0.54
  -6   4   3   -0.33    0.59
  -6   4   3    0.78    0.55
   6   4  -3    1.06    0.52
   5  -4  -3   11.63    0.92
  -5  -4   3   12.29    1.05
   5  -4  -3   10.78    0.81
  -5  -4   3   11.67    0.77
  -5   4   3   12.55    0.95
   5   4  -3   11.01    0.97
   5   4  -3   11.18    0.93
  -5   4   3   12.17    1.28
  -4  -4   3    0.69    0.28
  -4  -4   3    0.10    0.45
   4  -4  -3    0.70    0.46
   4  -4  -3    0.01    0.33
   4  -4  -3    0.06    0.52
  -4   4   3   -0.07    0.42
   4   4  -3    0.72    0.42
   4   4  -3    0.45    0.36
  -4   4   3   -0.09    0.50
  -4   4   3   -0.15    0.42
  -3  -4   3   16.27    0.82
  -3  -4   3   16.93    1.53
   3  -4  -3   16.31    1.23
   3  -4  -3   16.49    1.03
  -3   4   3   17.97    0.91
   3   4  -3   16.78    1.02
  -3   4   3   16.24    1.03
  -3   4   3   17.60    1.06
   3   4  -3   17.22    1.01
   3   4  -3   17.78    0.92
  -2  -4   3   88.34    2.39
   2  -4  -3   88.05    2.26
  -2  -4   3   89.92    2.21
   2  -4  -3   92.15    2.37
  -2   4   3   88.13    2.45
  -2   4   3   88.89    2.36
  -2   4   3   87.87    2.25
   2   4  -3   91.30    2.34
   2   4  -3   86.98    2.64
   2   4  -3   90.43    2.45
  -1  -4   3   12.21    0.82
   1  -4  -3   12.02    0.74
   1  -4  -3   12.13    1.01
  -1   4   3   11.10    0.91
   1   4  -3   12.51    0.86
  -1   4   3   11.95    0.77
  -1   4   3   11.47    0.85
   1   4  -3   12.38    1.00
  -1   4   3   11.57    0.84
   0  -4   3    0.42    0.33
   0  -4  -3    0.42    0.36
   0  -4   3    0.71    0.49
   0   4   3   -0.62    0.42
   0   4   3   -0.05    0.32
   0   4   3    0.39    0.49
   0   4  -3    0.73    0.55
   0   4  -3   -0.52    0.74
   0   4   3    0.75    0.44
  -1  -4  -3    0.55    0.47
  -1  -4  -3    0.16    0.35
   1  -4   3    0.22    0.36
   1  -4   3    0.47    0.34
   1   4   3   -0.64    0.41
  -1   4  -3   -0.11    0.45
  -1   4  -3    0.40    0.43
   1   4   3   -0.11    0.37
   1   4   3    0.21    0.46
   1   4   3    0.49    0.38
   2  -4   3    3.29    0.52
   2  -4   3    2.12    0.57
  -2  -4  -3    1.87    0.50
  -2  -4  -3    2.24    0.47
   2  -4   3    3.15    0.51
  -2   4  -3    2.36    0.53
   2   4   3    1.93    0.49
  -2   4  -3    2.39    0.52
   2   4   3    2.59    0.48
   2   4   3    2.73    0.54
  -3  -4  -3    2.25    0.53
  -3  -4  -3    2.08    0.66
   3  -4   3    2.13    0.49
   3  -4   3    2.37    0.44
   3  -4   3    2.01    0.53
  -3   4  -3    1.92    0.60
   3   4   3    1.99    0.45
   3   4   3    2.05    0.45
   3   4   3    2.41    0.53
  -3   4  -3    1.47    0.60
  -4  -4  -3   -0.06    0.46
   4  -4   3    0.46    0.40
   4  -4   3    0.43    0.61
  -4  -4  -3    0.51    0.51
   4  -4   3    0.27    0.50
  -4   4  -3   -0.02    0.49
   4   4   3   -0.72    0.38
   4   4   3    1.15    0.44
   4   4   3    0.08    0.46
  -4   4  -3    0.02    0.58
   5  -4   3    0.25    0.44
  -5  -4  -3    1.67    0.50
   5  -4   3    1.89    0.65
  -5  -4  -3    1.49    0.62
   5   4   3    0.85    0.54
  -5   4  -3    1.14    0.57
   5   4   3    1.74    0.59
  -5   4  -3    0.87    0.87
  -6  -4  -3   19.60    1.31
  -6  -4  -3   17.84    1.48
   6  -4   3   18.16    1.20
   6   4   3   19.92    1.42
  -6   4  -3   21.41    1.43
   6   4   3   21.44    1.30
  -7  -4  -3    3.85    1.15
  -7  -4  -3    5.25    0.83
   7  -4   3    4.70    0.86
   7   4   3    3.65    1.00
   7   4   3    5.43    0.91
  -7   4  -3    4.39    1.02
   8  -4   3    3.28    0.92
  -8  -4  -3    2.27    0.91
  -8  -4  -3    1.44    1.05
   8   4   3    0.73    1.01
   8   4   3    1.85    1.01
  -9  -4  -3   -1.81    1.05
  -9  -4  -3    1.30    1.40
   9  -4   3   -0.41    1.08
   9   4   3   -2.14    1.19
  -9  -5   3    1.58    1.49
  -9  -5   3   -0.63    0.94
   9   5  -3   -2.49    1.20
  -8  -5   3    2.78    0.78
  -8  -5   3    2.56    1.13
   8  -5  -3    2.17    1.45
  -8   5   3    3.10    1.43
   8   5  -3    4.30    1.00
   8   5  -3    4.29    1.06
  -7  -5   3   -0.80    0.62
  -7  -5   3    0.78    0.96
   7  -5  -3    0.40    1.07
   7   5  -3    0.22    0.83
  -6  -5   3    2.27    0.92
  -6  -5   3    2.13    0.62
   6  -5  -3    3.58    0.88
   6   5  -3    2.74    1.06
   6   5  -3    3.66    0.82
  -6   5   3    2.61    0.88
   5  -5  -3    5.92    1.00
  -5  -5   3    3.55    0.78
  -5  -5   3    3.85    0.60
   5   5  -3    5.08    0.83
   5   5  -3    4.71    0.77
  -5   5   3    4.77    0.79
  -4  -5   3   50.48    1.96
  -4  -5   3   46.37    1.61
   4  -5  -3   46.00    1.80
  -4   5   3   45.72    1.88
  -4   5   3   46.43    1.87
   4   5  -3   47.82    1.63
   4   5  -3   50.16    1.91
   4   5  -3   46.80    1.92
   3  -5  -3    8.06    0.99
  -3  -5   3   10.67    1.01
   3  -5  -3    7.47    1.09
  -3  -5   3    9.06    0.75
   3  -5  -3    9.23    0.82
  -3   5   3   10.30    0.98
   3   5  -3    8.23    0.99
   3   5  -3    8.91    0.86
  -3   5   3   10.87    1.16
   3   5  -3   10.75    0.91
  -2  -5   3    1.61    0.36
   2  -5  -3    0.96    0.47
  -2  -5   3    0.63    0.52
   2  -5  -3    0.84    0.48
   2  -5  -3    1.68    0.58
  -2   5   3    1.55    0.49
   2   5  -3    1.01    0.47
   2   5  -3    1.03    0.48
   2   5  -3    1.18    0.46
  -2   5   3    0.72    0.50
  -1  -5   3   15.85    1.15
  -1  -5   3   14.95    0.89
   1  -5  -3   16.51    1.08
   1  -5  -3   14.22    0.93
  -1  -5   3   15.17    0.97
   1  -5  -3   15.76    1.22
   1   5  -3   15.64    0.95
  -1   5   3   13.13    1.04
  -1   5   3   15.56    1.05
   1   5  -3   16.26    1.00
  -1   5   3   14.47    0.96
   1   5  -3   16.80    1.08
   0  -5  -3    2.64    0.54
   0  -5  -3    2.33    0.62
   0  -5   3    2.13    0.45
   0  -5   3    2.83    0.43
   0   5  -3    2.73    0.65
   0   5  -3    4.36    0.69
   0   5   3    2.92    0.59
   0   5  -3    3.24    0.51
   0   5   3    3.30    0.50
   0   5   3    2.63    0.63
   1  -5   3    7.07    0.70
  -1  -5  -3    6.68    0.94
   1  -5   3    6.03    1.01
  -1  -5  -3    8.97    1.05
   1   5   3    5.57    0.97
  -1   5  -3    5.16    0.82
   1   5   3    7.86    0.79
   1   5   3    7.26    0.97
  -1   5  -3    6.74    0.81
   2  -5   3    0.37    0.63
   2  -5   3    0.80    0.43
  -2  -5  -3    0.42    0.48
   2  -5   3    1.47    0.47
  -2  -5  -3   -0.19    0.52
   2   5   3    1.73    0.58
   2   5   3   -0.21    0.45
   2   5   3    0.60    0.48
  -2   5  -3   -0.04    0.49
  -2   5  -3    0.11    0.49
   3  -5   3    3.56    1.25
  -3  -5  -3    3.90    0.68
  -3  -5  -3    2.92    0.55
   3  -5   3    3.36    0.89
   3  -5   3    4.88    0.74
   3   5   3    3.39    0.70
   3   5   3    3.24    0.59
  -3   5  -3    3.27    0.66
  -3   5  -3    5.43    0.85
   3   5   3    3.25    0.58
   4  -5   3    0.30    0.69
  -4  -5  -3    0.09    0.55
  -4  -5  -3    0.42    0.69
   4   5   3    0.02    0.67
  -4   5  -3    0.50    0.68
   4   5   3   -0.17    0.60
  -4   5  -3    0.09    0.89
  -5  -5  -3    0.57    0.62
   5  -5   3    0.98    0.64
  -5  -5  -3    1.73    0.88
  -5   5  -3    2.07    0.94
   5   5   3    1.71    0.90
  -6  -5  -3    0.16    1.05
  -6  -5  -3    0.10    0.77
   6  -5   3    0.82    0.79
   6   5   3    0.02    0.83
   6   5   3   -0.03    0.88
  -7  -5  -3    0.81    1.21
  -7  -5  -3    3.67    0.93
   7  -5   3    4.03    0.92
   7   5   3    4.31    1.13
   7   5   3    2.00    1.03
  -7   5  -3    3.67    1.41
  -8  -5  -3    1.11    1.37
   8  -5   3    1.76    1.05
  -8  -5  -3    1.25    1.05
   8   5   3   -0.01    1.18
   8   5   3    2.04    1.18
  -8  -6   3   10.01    1.99
   8   6  -3   12.53    1.87
   8   6  -3   12.54    1.49
  -8   6   3   12.28    2.02
  -7  -6   3    2.05    1.26
  -7  -6   3   -0.10    0.84
  -7   6   3    2.50    2.02
   7   6  -3    0.87    1.16
   7   6  -3   -1.28    1.04
  -6  -6   3    1.77    0.74
   6  -6  -3    2.26    1.32
  -6  -6   3    3.65    1.15
   6   6  -3    1.43    1.14
  -6   6   3    3.06    1.12
   6   6  -3    1.76    1.06
  -5  -6   3   -0.94    0.99
  -5  -6   3   -0.35    0.75
   5  -6  -3    0.93    1.04
   5   6  -3    0.09    0.93
  -5   6   3   -0.36    0.89
   5   6  -3    0.74    0.85
  -4  -6   3    1.38    0.94
   4   6  -3    1.11    0.66
   3  -6  -3    1.13    0.79
  -3  -6   3    0.44    0.73
  -3  -6   3    1.22    0.58
   3   6  -3    0.88    0.78
  -3   6   3    0.92    0.74
   3   6  -3    1.49    0.81
  -3   6   3    1.70    0.78
   3   6  -3    1.98    0.64
  -2  -6   3    0.08    0.53
   2  -6  -3    0.69    0.71
  -2  -6   3   -0.68    0.65
  -2  -6   3    1.06    0.80
   2   6  -3   -0.14    0.75
   2   6  -3    0.75    0.60
  -2   6   3   -0.16    0.67
  -2   6   3    0.37    0.70
   2   6  -3   -0.01    0.73
   1  -6  -3    0.05    0.52
   1  -6  -3   -1.16    0.68
  -1  -6   3   -0.61    0.48
  -1  -6   3   -1.06    0.60
  -1  -6   3    0.34    0.63
   1  -6  -3    1.80    0.64
   1   6  -3    0.17    0.62
  -1   6   3   -1.38    0.64
  -1   6   3   -0.63    0.92
   1   6  -3   -0.40    0.68
   1   6  -3   -0.16    0.61
   0  -6   3    0.31    0.57
   0  -6  -3    0.87    0.54
   0  -6   3    0.54    0.49
   0  -6  -3    0.72    0.68
   0  -6   3    1.24    0.96
   0  -6  -3    1.93    0.64
   0   6  -3    0.05    0.61
   0   6   3    1.54    0.68
   0   6  -3   -0.81    0.64
   0   6   3    1.42    0.74
   0   6   3    0.05    0.61
   0   6  -3    0.69    0.62
   1  -6   3    1.27    0.72
   1  -6   3    1.80    0.61
  -1  -6  -3    1.34    0.61
  -1  -6  -3    2.02    0.75
   1  -6   3    1.25    0.56
   1   6   3    1.61    0.75
   1   6   3    1.12    0.70
  -1   6  -3    1.53    0.67
  -1   6  -3   -0.36    0.66
   1   6   3    1.65    0.63
   2  -6   3   12.11    1.23
  -2  -6  -3   12.34    1.56
   2  -6   3   10.83    1.11
  -2  -6  -3   14.10    1.23
   2   6   3   11.55    1.33
  -2   6  -3    9.81    1.25
   2   6   3   13.87    1.16
  -2   6  -3   15.48    1.49
   2   6   3    9.36    1.28
   3  -6   3    3.42    0.76
   3  -6   3    2.76    0.84
  -3  -6  -3    1.89    0.79
   3   6   3    2.77    1.10
   3   6   3    3.77    0.69
  -3   6  -3    3.21    0.83
  -4  -6  -3    2.08    1.00
   4  -6   3   -1.03    0.78
   4  -6   3    0.51    0.76
  -4  -6  -3    1.12    0.82
   4   6   3    1.13    1.09
  -4   6  -3   -0.31    0.93
   4   6   3    1.26    0.85
  -4   6  -3    0.40    0.92
  -5  -6  -3    6.92    1.19
   5  -6   3    8.55    1.43
  -5  -6  -3    5.98    1.01
   5   6   3    5.70    1.19
   5   6   3    4.60    1.04
  -5   6  -3    6.59    1.19
  -6  -6  -3    0.72    1.15
  -6  -6  -3   -0.93    1.02
   6  -6   3   -1.20    0.96
  -6   6  -3    0.52    1.21
   6   6   3   -1.89    0.97
   6   6   3   -0.34    1.13
  -7  -6  -3    4.69    1.58
  -7  -6  -3    1.94    1.17
  -7   6  -3    0.63    1.60
   7   6   3   -0.44    1.43
   7   6   3    0.80    1.25
  -6  -7   3   -1.90    0.98
  -6  -7   3   -1.46    1.54
   6   7  -3    1.69    1.46
   6   7  -3   -1.58    1.28
  -6   7   3   -2.80    1.50
  -5  -7   3    2.62    1.50
   5  -7  -3    6.68    1.67
  -5  -7   3    2.79    0.88
  -5   7   3    4.13    1.38
   5   7  -3    2.36    1.17
   5   7  -3    0.39    1.12
   4  -7  -3    4.19    1.35
  -4  -7   3    0.96    0.81
  -4  -7   3   -0.10    1.31
   4   7  -3    2.69    1.04
  -4   7   3    0.20    1.20
   4   7  -3    0.02    1.05
  -3  -7   3    1.43    1.49
  -3  -7   3    2.69    0.81
   3  -7  -3    2.10    1.30
  -3  -7   3    4.10    1.21
   3   7  -3    0.92    1.03
  -3   7   3    1.37    1.04
   3   7  -3    4.10    1.03
   3   7  -3    2.31    1.12
  -2  -7   3    1.40    0.98
   2  -7  -3    1.89    1.19
  -2  -7   3    3.37    0.79
   2   7  -3    2.34    0.98
   2   7  -3    1.44    0.91
   2   7  -3    4.13    1.11
  -2   7   3    0.82    0.97
  -1  -7   3    1.73    0.88
   1  -7  -3    0.91    1.12
  -1  -7   3    1.44    1.19
  -1  -7   3    1.03    0.76
   1   7  -3    0.81    1.00
   1   7  -3    2.18    0.96
  -1   7   3    0.53    0.92
  -1   7   3    0.64    1.03
   1   7  -3    1.82    0.98
   0  -7   3    1.71    0.78
   0  -7   3    1.36    0.85
   0  -7  -3    2.54    1.13
   0   7   3    3.54    0.94
   0   7   3    1.79    1.04
   0   7  -3   -0.16    0.88
   0   7  -3    3.10    0.95
  -1  -7  -3   22.28    1.91
   1  -7   3   20.51    1.94
   1  -7   3   18.81    1.60
  -1  -7  -3   23.85    2.06
   1   7   3   23.37    1.77
  -1   7  -3   22.95    1.93
   1   7   3   21.39    1.82
  -1   7  -3   24.55    1.77
   2  -7   3    0.75    0.84
  -2  -7  -3   -1.51    1.11
   2  -7   3   -0.04    0.90
  -2   7  -3   -0.85    0.99
   2   7   3    0.28    0.93
  -2   7  -3    1.24    1.29
   2   7   3    1.13    0.98
  -3  -7  -3    0.96    1.62
   3  -7   3    0.36    0.91
   3  -7   3    0.40    1.08
  -3  -7  -3    0.25    1.01
   3   7   3   -0.62    1.27
  -3   7  -3    2.13    1.38
  -3   7  -3    0.68    1.05
   3   7   3   -0.90    1.54
  -4  -7  -3    1.50    1.31
  -4  -7  -3   -1.36    1.05
   4  -7   3   -1.23    1.01
   4   7   3   -0.77    1.42
   4   7   3   -0.71    1.03
  -4   7  -3    1.11    1.21
  -5  -7  -3    0.38    1.60
  -5  -7  -3    0.50    1.16
  -5   7  -3   -2.56    1.85
   5   7   3    1.63    1.61
   5   7   3   -0.85    1.29
  -3  -8   3    0.58    1.16
  -3  -8   3    0.78    1.48
  -3  -8   3    3.76    2.53
   3  -8  -3    0.85    2.05
   3   8  -3    0.77    1.62
  -2  -8   3    0.24    1.50
   2  -8  -3    1.69    1.69
  -2  -8   3    1.02    1.26
   2   8  -3    2.46    1.56
   2   8  -3    0.62    1.33
   2   8  -3    0.08    1.28
   1  -8  -3    3.63    1.64
  -1  -8   3    6.61    1.10
  -1  -8   3    7.85    1.23
   1   8  -3    6.90    1.37
  -1   8   3    2.85    1.36
   1   8  -3    5.28    1.55
  -1   8   3    4.40    1.60
   0  -8   3    0.50    1.12
   0  -8   3   -0.44    1.12
   0  -8  -3    2.44    1.57
   0   8   3   -0.71    1.38
   0   8   3    0.87    1.44
   0   8  -3    1.76    1.25
   0   8  -3    1.47    1.69
   1  -8   3    2.27    1.25
  -1  -8  -3    3.72    1.68
   1   8   3    2.20    1.42
  -1   8  -3    4.21    1.50
  -1   8  -3    3.75    1.49
   1   8   3    3.24    1.30
   2  -8   3    0.68    1.23
  -2  -8  -3    5.32    1.80
  -2   8  -3    2.18    1.60
  -2   8  -3    0.47    1.66
   2   8   3    2.29    1.61
  11   0  -4    0.62    1.03
 -11   0   4   -0.04    0.98
  11   0  -4   -0.15    1.13
 -10   0   4    0.22    0.95
  10   0  -4   -0.33    0.89
  10   0  -4    0.36    0.84
   9   0  -4    0.57    0.75
   9   0  -4    1.64    0.59
  -9   0   4    0.21    0.75
   8   0  -4    5.54    0.85
   8   0  -4    4.37    0.67
   7   0  -4   -0.02    0.48
   7   0  -4    0.67    0.43
   6   0  -4  411.59    7.90
   6   0  -4  411.46    8.19
  -6   0   4  411.03    7.81
  -6   0   4  418.25    7.47
   5   0  -4   -0.13    0.30
   5   0  -4    0.28    0.25
   5   0  -4    0.11    0.14
  -5   0   4   -0.22    0.27
  -5   0   4    0.21    0.21
  -5   0   4   -0.21    0.23
   4   0  -4   23.99    0.80
  -4   0   4   23.79    0.73
  -4   0   4   24.09    0.80
   4   0  -4   22.88    0.90
  -4   0   4   22.82    0.71
   4   0  -4   24.22    0.66
   3   0  -4    0.07    0.12
   3   0  -4    0.03    0.18
   3   0  -4    0.02    0.24
  -3   0   4    0.07    0.11
  -3   0   4   -0.04    0.13
  -3   0   4    0.06    0.16
  -2   0   4   65.64    1.25
  -2   0   4   64.39    1.33
   2   0  -4   63.79    1.48
   2   0  -4   62.38    1.53
   2   0  -4   64.08    1.32
  -2   0   4   61.78    1.40
   2   0  -4   65.88    1.34
  -2   0   4   64.49    1.24
  -1   0   4    0.01    0.08
   1   0  -4    0.06    0.13
  -1   0   4   -0.11    0.13
   1   0  -4    0.02    0.12
  -1   0   4    0.09    0.10
  -1   0   4    0.00    0.11
   1   0  -4    0.02    0.13
   1   0  -4    0.01    0.10
  -1   0   4    0.11    0.13
   0   0  -4   18.39    0.53
   0   0  -4   19.09    0.52
   0   0  -4   18.81    0.77
   0   0   4   18.75    0.54
   0   0   4   18.99    0.75
   0   0   4   18.63    0.54
   0   0   4   19.09    0.54
   1   0   4    0.29    0.14
  -1   0  -4   -0.18    0.14
   1   0   4    0.08    0.14
  -1   0  -4    0.20    0.12
   1   0   4    0.10    0.14
  -1   0  -4   -0.03    0.14
  -2   0  -4   33.52    0.98
   2   0   4   31.93    0.96
  -2   0  -4   32.82    0.90
   2   0   4   32.42    0.95
   2   0   4   33.90    0.97
  -2   0  -4   32.36    0.85
   3   0   4   -0.22    0.25
   3   0   4    0.07    0.21
  -3   0  -4    0.15    0.20
  -3   0  -4    0.23    0.21
  -3   0  -4   -0.25    0.24
   3   0   4   -0.28    0.17
   4   0   4    5.78    0.49
  -4   0  -4    5.05    0.47
  -4   0  -4    4.86    0.51
   4   0   4    5.70    0.55
   4   0   4    5.67    0.58
  -4   0  -4    5.95    0.62
  -5   0  -4    0.40    0.37
   5   0   4   -0.56    0.36
  -5   0  -4    0.37    0.35
   5   0   4   -0.31    0.30
   5   0   4    0.46    0.38
  -5   0  -4    0.20    0.32
  -6   0  -4   27.38    1.35
   6   0   4   25.65    1.10
   6   0   4   27.03    1.20
  -6   0  -4   26.26    1.25
   7   0   4    0.11    0.45
  -7   0  -4    0.47    0.57
  -7   0  -4   -0.42    0.61
   8   0   4    0.57    0.66
  -8   0  -4    1.65    0.72
  -8   0  -4    1.47    0.73
   9   0   4    0.13    0.77
  10   0   4   -1.07    1.04
 -11  -1   4   11.93    1.52
 -11  -1   4   11.00    1.79
  11  -1  -4   13.86    2.27
 -11   1   4   12.53    2.20
  11   1  -4   10.01    1.26
  10  -1  -4    0.41    0.81
 -10  -1   4    1.35    1.03
 -10  -1   4    0.13    0.75
  10  -1  -4    0.18    0.99
  10   1  -4    1.17    0.84
  10   1  -4   -0.34    0.93
  -9  -1   4   17.42    1.63
  -9  -1   4   18.28    1.29
   9  -1  -4   18.10    1.18
   9  -1  -4   19.88    1.59
   9   1  -4   14.79    1.29
   9   1  -4   17.91    1.51
   8  -1  -4   11.31    1.07
  -8  -1   4   12.88    0.88
  -8  -1   4   10.93    1.08
   8  -1  -4   12.13    0.87
  -8   1   4   14.08    1.00
   8   1  -4   10.75    1.04
   8   1  -4   11.29    0.96
   7  -1  -4   -0.05    0.43
   7  -1  -4   -0.11    0.45
  -7   1   4   -0.49    0.49
   7   1  -4    0.56    0.41
   7   1  -4    0.19    0.43
  -7   1   4    0.03    0.34
   6  -1  -4    1.71    0.49
   6  -1  -4    1.60    0.34
  -6  -1   4    0.56    0.71
   6   1  -4    1.51    0.30
   6   1  -4    1.37    0.45
   6   1  -4    1.11    0.40
  -6   1   4    0.61    0.38
  -6   1   4    0.91    0.35
  -5  -1   4    2.47    0.42
  -5  -1   4    2.33    0.36
   5  -1  -4    1.88    0.30
   5  -1  -4    2.58    0.42
  -5   1   4    1.73    0.32
   5   1  -4    2.68    0.37
   5   1  -4    3.19    0.56
  -5   1   4    1.68    0.33
  -5   1   4    2.78    0.46
   5   1  -4    2.03    0.37
   4  -1  -4   14.89    0.56
   4  -1  -4   14.51    0.73
  -4   1   4   14.51    0.65
  -4   1   4   13.74    0.62
   4   1  -4   14.22    0.71
  -4   1   4   14.12    0.68
   4   1  -4   14.82    0.58
  -3  -1   4   84.06    1.61
   3  -1  -4   84.17    2.00
  -3  -1   4   87.47    1.61
   3  -1  -4   89.24    1.68
   3   1  -4   84.61    1.83
  -3   1   4   85.15    1.60
  -3   1   4   79.83    1.91
   3   1  -4   85.53    1.96
   3   1  -4   82.76    1.96
   3   1  -4   86.04    1.78
  -3   1   4   84.11    1.85
  -3   1   4   84.29    1.90
   2  -1  -4    7.14    0.38
   2  -1  -4    6.87    0.44
  -2   1   4    7.31    0.39
  -2   1   4    7.03    0.42
   2   1  -4    7.69    0.51
   2   1  -4    7.48    0.41
  -2   1   4    7.45    0.40
  -2   1   4    7.45    0.33
   2   1  -4    6.88    0.40
   2   1  -4    7.19    0.42
   1  -1  -4   80.83    1.77
  -1  -1   4   78.83    1.46
   1   1  -4   81.45    1.63
  -1   1   4   80.53    1.68
  -1   1   4   74.50    1.76
  -1   1   4   79.17    1.75
   1   1  -4   78.77    1.71
   1   1  -4   81.61    1.74
  -1   1   4   83.00    1.70
   1   1  -4   79.70    1.73
   0  -1   4  324.06    6.01
   0  -1   4  331.22    5.75
   0  -1  -4  330.94    6.04
   0  -1  -4  322.96    5.97
   0  -1   4  323.92    5.87
   0  -1   4  321.77    5.80
   0   1   4  332.10    5.84
   0   1   4  322.32    6.02
   0   1   4  334.37    5.99
   0   1   4  330.02    6.03
   0   1  -4  326.23    5.74
   0   1  -4  323.75    6.04
   0   1  -4  335.45    6.05
  -1  -1  -4    0.12    0.18
  -1  -1  -4   -0.15    0.17
   1  -1   4   -0.08    0.14
   1  -1   4   -0.19    0.18
   1  -1   4    0.23    0.17
   1  -1   4   -0.22    0.15
   1   1   4    0.00    0.14
   1   1   4    0.13    0.16
   1   1   4    0.01    0.15
   1   1   4   -0.13    0.15
  -1   1  -4   -0.08    0.16
  -1   1  -4   -0.27    0.16
   2  -1   4   49.66    1.34
   2  -1   4   51.79    1.32
  -2  -1  -4   51.21    1.33
   2  -1   4   52.33    1.30
   2   1   4   52.48    1.35
   2   1   4   49.81    1.28
   2   1   4   49.47    1.30
  -2   1  -4   52.35    1.03
  -2   1  -4   51.58    1.31
   2   1   4   52.15    1.37
   3  -1   4    3.90    0.36
  -3  -1  -4    3.99    0.46
   3  -1   4    4.10    0.45
   3  -1   4    3.71    0.45
  -3  -1  -4    3.97    0.50
   3  -1   4    4.36    0.38
   3   1   4    4.23    0.41
   3   1   4    3.83    0.45
   3   1   4    3.73    0.50
  -3   1  -4    3.72    0.42
  -3   1  -4    4.30    0.38
   3   1   4    3.45    0.34
  -4  -1  -4    0.55    0.40
   4  -1   4    0.47    0.31
   4  -1   4    0.46    0.29
   4  -1   4    0.47    0.24
  -4  -1  -4    0.64    0.32
   4  -1   4    0.79    0.28
   4   1   4    0.69    0.32
   4   1   4    0.28    0.24
  -4   1  -4    0.86    0.28
   4   1   4    1.12    0.36
  -4   1  -4    0.93    0.28
   4   1   4    0.72    0.30
   5  -1   4   -0.07    0.28
   5  -1   4    0.25    0.35
  -5  -1  -4   -0.36    0.36
   5  -1   4    0.62    0.39
  -5  -1  -4    0.98    0.45
   5   1   4   -0.43    0.43
   5   1   4    0.40    0.33
   5   1   4    0.66    0.24
   5   1   4   -0.21    0.36
  -6  -1  -4    6.17    0.99
   6  -1   4    6.44    0.67
   6  -1   4    6.96    0.68
   6  -1   4    7.32    0.87
  -6  -1  -4    9.40    0.98
  -6   1  -4    6.04    0.98
  -6   1  -4    8.22    0.80
  -6   1  -4    7.27    0.85
   6   1   4    7.11    1.08
   7  -1   4    0.19    0.47
  -7  -1  -4    0.19    0.53
  -7  -1  -4    1.44    0.60
   7  -1   4   -0.17    0.90
  -7   1  -4   -0.19    0.70
   7   1   4   -0.03    0.46
  -7   1  -4   -0.86    0.64
   8  -1   4   17.83    2.27
  -8  -1  -4   20.80    1.44
  -8  -1  -4   19.56    2.06
   8   1   4   17.55    1.51
  -9  -1  -4   28.45    1.93
  -9  -1  -4   25.17    2.55
   9  -1   4   24.62    1.69
   9   1   4   21.39    1.72
  10  -1   4    3.39    1.04
  10   1   4    0.68    1.04
  11  -2  -4    1.35    1.49
 -11  -2   4    3.53    0.97
 -11  -2   4    2.79    1.48
  11   2  -4    3.35    1.22
 -10  -2   4    0.35    1.45
 -10  -2   4    0.79    0.68
  10  -2  -4    0.94    1.05
  10   2  -4    1.50    1.01
   9  -2  -4   10.54    1.52
  -9   2   4   14.61    1.52
   9   2  -4   10.14    1.43
  -8  -2   4    2.55    0.48
   8  -2  -4    2.72    0.57
  -8  -2   4    2.66    1.40
   8  -2  -4    3.05    0.69
   8   2  -4    3.75    0.75
   8   2  -4    3.63    0.71
  -8   2   4    4.04    0.64
  -7  -2   4    0.30    0.31
   7  -2  -4    0.62    0.44
   7  -2  -4   -0.04    0.44
  -7  -2   4    0.46    0.52
   7   2  -4    0.80    0.48
   7   2  -4    0.55    0.44
  -7   2   4    0.57    0.41
  -7   2   4    0.80    0.59
   7   2  -4    1.43    0.47
   6  -2  -4    5.61    0.77
  -6  -2   4    6.00    0.54
  -6  -2   4    5.30    0.81
   6  -2  -4    5.77    0.59
  -6   2   4    5.82    0.88
  -6   2   4    5.50    0.72
   6   2  -4    6.08    0.70
   6   2  -4    5.45    0.61
   6   2  -4    6.16    0.73
   5  -2  -4    1.20    0.26
   5  -2  -4    0.54    0.44
  -5  -2   4    1.11    0.42
  -5  -2   4    0.82    0.34
   5   2  -4    0.94    0.42
  -5   2   4    1.22    0.36
   5   2  -4    0.62    0.30
   5   2  -4    0.66    0.30
  -5   2   4    0.99    0.37
  -4  -2   4    4.25    0.43
  -4  -2   4    3.37    0.33
  -4  -2   4    3.93    0.57
   4  -2  -4    3.83    0.36
   4  -2  -4    4.15    0.54
   4   2  -4    3.58    0.36
   4   2  -4    4.42    0.52
   4   2  -4    3.31    0.46
   4   2  -4    3.62    0.49
  -4   2   4    3.44    0.48
  -4   2   4    3.47    0.53
  -3  -2   4   74.44    1.90
  -3  -2   4   74.02    1.53
   3  -2  -4   73.58    1.90
  -3  -2   4   74.97    1.54
   3  -2  -4   73.86    1.75
   3  -2  -4   75.53    1.48
  -3   2   4   73.44    1.86
  -3   2   4   72.40    1.55
   3   2  -4   72.77    1.86
   3   2  -4   73.84    1.68
   3   2  -4   72.30    1.86
  -2  -2   4    7.22    0.36
   2  -2  -4    7.53    0.27
  -2  -2   4    7.30    0.48
   2  -2  -4    7.24    0.49
   2   2  -4    6.95    0.45
  -2   2   4    7.65    0.44
  -2   2   4    7.32    0.49
   2   2  -4    7.07    0.48
  -1  -2   4  113.80    2.26
  -1  -2   4  115.62    2.27
   1  -2  -4  116.94    2.59
  -1  -2   4  118.72    2.39
   1  -2  -4  120.04    2.47
  -1   2   4  118.10    2.55
  -1   2   4  114.54    2.16
   1   2  -4  114.30    2.51
  -1   2   4  115.97    2.48
   1   2  -4  113.14    2.47
   1   2  -4  114.75    2.52
  -1   2   4  113.87    2.42
   0  -2   4   12.30    0.45
   0  -2   4   11.58    0.48
   0  -2  -4   10.73    0.60
   0  -2  -4   11.96    0.61
   0  -2   4   12.34    0.58
   0  -2   4   12.14    0.52
   0   2   4   11.72    0.58
   0   2   4   11.42    0.75
   0   2   4   11.81    0.57
   0   2  -4   12.15    0.59
   0   2  -4   12.16    0.59
   0   2   4   11.58    0.57
   0   2  -4   11.30    0.58
   1  -2   4   44.80    1.22
  -1  -2  -4   44.03    1.46
   1  -2   4   44.35    0.93
  -1  -2  -4   43.98    1.25
   1  -2   4   42.35    1.16
   1   2   4   43.70    1.19
   1   2   4   46.03    1.26
   1   2   4   42.75    1.14
  -1   2  -4   42.50    1.21
  -2  -2  -4    9.03    0.60
   2  -2   4    8.96    0.55
   2  -2   4    9.61    0.37
  -2  -2  -4    8.33    0.61
   2  -2   4   10.42    0.65
   2   2   4   10.87    0.67
  -2   2  -4    9.44    0.60
   2   2   4    9.63    0.59
   2   2   4   10.08    0.52
   2   2   4    9.78    0.74
   3  -2   4   20.52    1.05
   3  -2   4   21.95    0.83
   3  -2   4   22.78    0.96
  -3  -2  -4   21.54    0.93
   3  -2   4   22.92    0.69
   3   2   4   22.07    1.20
   3   2   4   22.47    0.94
  -3   2  -4   22.30    0.95
  -3   2  -4   22.37    0.92
   3   2   4   22.77    0.96
   3   2   4   21.92    0.77
  -4  -2  -4    2.15    0.41
   4  -2   4    1.92    0.38
   4  -2   4    2.31    0.35
  -4  -2  -4    2.59    0.50
   4  -2   4    2.49    0.35
   4   2   4    2.67    0.41
   4   2   4    1.72    0.43
  -4   2  -4    2.28    0.43
   4   2   4    1.67    0.45
   4   2   4    1.55    0.46
   5  -2   4    3.00    0.46
  -5  -2  -4    2.12    0.55
   5  -2   4    2.64    0.46
   5  -2   4    2.43    0.48
  -5  -2  -4    2.84    0.53
   5  -2   4    2.35    0.37
  -5   2  -4    2.75    0.55
   5   2   4    1.86    0.48
   5   2   4    2.81    0.55
   6  -2   4    4.53    0.68
  -6  -2  -4    3.23    0.58
   6  -2   4    5.60    0.95
   6  -2   4    2.42    0.96
   6  -2   4    3.83    0.49
  -6  -2  -4    3.22    0.61
  -6   2  -4    3.98    0.73
   6   2   4    3.89    0.66
   6   2   4    4.23    0.60
  -6   2  -4    4.39    0.56
   7  -2   4    5.90    0.90
  -7  -2  -4    7.66    1.07
  -7  -2  -4    9.12    1.19
   7   2   4    6.53    0.84
   7   2   4    5.52    0.80
   8  -2   4    9.59    1.32
  -8  -2  -4    9.46    1.45
  -8  -2  -4    8.80    1.15
   8   2   4    8.87    1.45
  -9  -2  -4    5.50    1.26
  -9  -2  -4    6.96    1.22
   9  -2   4    7.67    1.25
   9   2   4    5.81    1.04
 -10  -2  -4   -0.67    1.44
  10  -2   4    1.74    1.35
  10   2   4    1.01    1.24
  11   3  -4    0.56    1.43
 -10  -3   4    2.90    1.35
  10  -3  -4    1.86    1.30
 -10  -3   4    2.13    0.77
  10   3  -4    0.43    1.41
  -9  -3   4    1.08    0.64
  -9  -3   4    0.74    1.05
   9   3  -4    0.68    0.83
  -9   3   4   -0.72    0.96
  -8  -3   4    0.57    0.48
   8  -3  -4   -0.58    0.68
  -8  -3   4    1.68    0.84
   8   3  -4    0.88    1.01
  -8   3   4    0.34    0.69
   8   3  -4    1.61    0.70
   7  -3  -4    7.24    0.98
   7  -3  -4    6.11    1.13
  -7  -3   4    6.98    1.21
  -7  -3   4    7.96    0.74
   7   3  -4    6.35    0.83
  -7   3   4    7.20    0.97
  -7   3   4    5.47    0.76
   7   3  -4    7.37    0.99
  -6  -3   4   -0.06    0.28
  -6  -3   4    0.33    0.46
   6  -3  -4   -0.31    0.36
   6  -3  -4   -0.24    0.44
   6   3  -4    0.12    0.41
   6   3  -4    0.76    0.43
  -6   3   4    0.32    0.59
  -6   3   4    0.50    0.46
  -5  -3   4   24.39    0.90
   5  -3  -4   23.79    1.19
   5  -3  -4   23.99    0.86
  -5  -3   4   24.19    1.27
   5   3  -4   25.03    0.84
  -5   3   4   24.95    1.30
   5   3  -4   23.71    1.24
  -5   3   4   25.43    1.71
   4  -3  -4    0.05    0.25
  -4  -3   4    0.87    0.28
  -4  -3   4    0.26    0.37
  -4  -3   4    0.47    0.50
   4  -3  -4    0.22    0.54
   4  -3  -4    0.52    0.39
   4   3  -4    0.13    0.42
   4   3  -4    0.49    0.39
   4   3  -4    0.02    0.27
  -4   3   4    0.54    0.30
  -4   3   4    0.33    0.36
  -4   3   4   -0.35    0.40
  -3  -3   4    2.43    0.46
   3  -3  -4    2.96    0.36
  -3  -3   4    2.65    0.41
   3  -3  -4    2.16    0.41
   3  -3  -4    2.76    0.51
  -3  -3   4    2.45    0.44
  -3   3   4    2.09    0.38
   3   3  -4    2.10    0.45
   3   3  -4    1.88    0.44
   3   3  -4    2.07    0.33
  -3   3   4    2.20    0.43
  -3   3   4    2.49    0.34
  -2  -3   4    1.99    0.34
   2  -3  -4    1.53    0.38
  -2  -3   4    2.74    0.39
   2  -3  -4    2.52    0.38
  -2  -3   4    2.68    0.35
   2   3  -4    2.17    0.40
   2   3  -4    1.54    0.38
  -2   3   4    2.56    0.41
  -2   3   4    2.56    0.43
  -2   3   4    1.45    0.33
   2   3  -4    2.16    0.35
  -1  -3   4    5.70    0.49
   1  -3  -4    6.38    0.61
  -1  -3   4    5.53    0.44
  -1  -3   4    5.49    0.57
  -1  -3   4    4.06    0.54
   1  -3  -4    5.88    0.58
  -1   3   4    5.63    0.52
  -1   3   4    5.70    0.57
  -1   3   4    5.53    0.55
  -1   3   4    5.81    0.43
   1   3  -4    5.57    0.52
   1   3  -4    5.34    0.56
   1   3  -4    5.29    0.56
   0  -3   4    0.47    0.28
   0  -3   4    0.32    0.20
   0  -3   4    0.35    0.24
   0  -3   4    0.03    0.31
   0  -3  -4    0.48    0.28
   0  -3  -4    0.57    0.32
   0   3   4    0.39    0.26
   0   3  -4    0.56    0.29
   0   3   4    0.52    0.28
   0   3   4    0.46    0.29
   0   3   4    0.68    0.25
   0   3  -4    0.29    0.29
   0   3  -4    0.29    0.28
  -1  -3  -4    2.78    0.39
   1  -3   4    2.50    0.40
  -1  -3  -4    2.90    0.46
   1  -3   4    3.04    0.41
   1  -3   4    2.94    0.43
   1   3   4    2.29    0.34
   1   3   4    2.38    0.41
  -1   3  -4    2.28    0.39
  -1   3  -4    2.69    0.40
   1   3   4    2.91    0.41
   1   3   4    2.63    0.43
  -1   3  -4    2.38    0.39
   2  -3   4    8.96    0.69
   2  -3   4    9.02    0.53
   2  -3   4    8.87    0.64
  -2  -3  -4    8.84    0.70
  -2  -3  -4    8.21    0.82
   2   3   4    9.81    0.68
   2   3   4    8.63    0.58
  -2   3  -4    9.09    0.66
  -2   3  -4    8.86    0.78
  -2   3  -4    9.02    0.72
   2   3   4    9.61    0.76
   3  -3   4   26.37    1.10
  -3  -3  -4   26.38    1.51
  -3  -3  -4   26.19    1.16
   3  -3   4   25.19    1.01
   3  -3   4   25.37    0.86
  -3   3  -4   25.15    1.36
   3   3   4   25.75    1.28
  -3   3  -4   25.61    1.04
   3   3   4   23.98    1.20
   3   3   4   25.30    1.12
  -3   3  -4   25.23    1.12
   4  -3   4    1.80    0.42
  -4  -3  -4    1.41    0.51
   4  -3   4    2.48    0.42
  -4  -3  -4    2.40    0.51
   4  -3   4    1.59    0.44
   4   3   4    2.20    0.48
   4   3   4    2.51    0.37
  -4   3  -4    1.67    0.57
  -4   3  -4    1.65    0.46
   4   3   4    2.39    0.52
   5  -3   4   52.32    1.87
   5  -3   4   51.18    1.73
  -5  -3  -4   52.86    1.87
   5  -3   4   49.73    1.55
  -5  -3  -4   49.44    1.78
   5   3   4   50.67    1.74
   5   3   4   53.66    1.83
  -5   3  -4   49.96    1.80
  -6  -3  -4   27.06    1.52
   6  -3   4   28.37    1.31
  -6  -3  -4   27.75    1.31
   6   3   4   27.80    1.79
   6   3   4   26.24    1.33
   7  -3   4   -0.70    0.90
  -7  -3  -4    0.81    0.82
  -7  -3  -4   -0.16    0.63
  -7   3  -4    1.55    1.02
   7   3   4    1.17    0.64
   7   3   4    0.80    0.71
   8  -3   4   -0.30    0.77
  -8  -3  -4    0.98    1.03
  -8  -3  -4   -0.49    0.84
   8   3   4   -0.43    0.81
   8   3   4    0.85    0.89
   9  -3   4   -1.82    0.94
  -9  -3  -4   -0.06    1.28
  -9  -3  -4    0.01    1.02
   9   3   4    0.01    0.99
  10  -4  -4   11.25    2.56
 -10  -4   4    5.90    1.78
 -10  -4   4    5.73    1.01
  10   4  -4    6.60    1.40
  -9  -4   4   14.06    1.41
  -9  -4   4   12.35    2.18
   9   4  -4   15.93    1.78
  -9   4   4   20.76    2.54
  -8  -4   4    2.60    1.26
  -8  -4   4    3.01    0.63
   8  -4  -4    4.16    1.29
   8   4  -4    4.03    1.11
   8   4  -4    3.92    0.93
  -8   4   4    3.54    1.09
  -8   4   4    2.98    0.97
   7  -4  -4   -0.97    0.68
  -7  -4   4    1.15    0.49
  -7  -4   4    0.89    0.83
  -7   4   4   -0.34    0.74
   7   4  -4    1.66    0.78
  -7   4   4    1.06    0.70
   7   4  -4    0.44    0.59
  -6  -4   4    0.29    0.38
  -6  -4   4    0.25    0.66
   6  -4  -4    1.08    0.59
  -6   4   4    0.35    0.55
   6   4  -4    0.29    0.50
   6   4  -4    0.93    0.56
  -6   4   4    0.89    0.62
  -5  -4   4    1.02    0.34
  -5  -4   4    1.28    0.51
   5  -4  -4    1.66    0.52
  -5   4   4    1.61    0.61
   5   4  -4    1.28    0.49
   5   4  -4    0.57    0.45
   5   4  -4    1.89    0.47
  -5   4   4    0.20    0.47
  -4  -4   4    1.37    0.30
  -4  -4   4    1.83    0.51
   4  -4  -4    0.76    0.50
   4  -4  -4    1.36    0.34
   4   4  -4    1.27    0.42
   4   4  -4    0.67    0.43
  -4   4   4    0.39    0.52
  -4   4   4    1.26    0.48
  -4   4   4    0.65    0.44
   4   4  -4    1.60    0.43
  -3  -4   4   36.49    1.21
   3  -4  -4   36.38    1.62
  -3  -4   4   36.98    2.02
   3  -4  -4   34.09    1.87
   3  -4  -4   37.45    1.08
  -3   4   4   35.71    1.45
  -3   4   4   36.71    1.28
   3   4  -4   37.53    1.48
  -3   4   4   35.77    1.43
   3   4  -4   36.57    1.33
   3   4  -4   38.65    1.47
   2  -4  -4   81.25    2.36
  -2  -4   4   79.74    2.22
  -2  -4   4   78.87    1.99
   2  -4  -4   82.26    2.24
   2  -4  -4   83.61    1.88
   2   4  -4   81.22    2.22
   2   4  -4   82.79    2.32
  -2   4   4   79.49    2.30
   2   4  -4   82.20    2.31
  -2   4   4   81.11    2.14
   1  -4  -4   14.89    0.93
   1  -4  -4   14.53    0.70
  -1  -4   4   14.61    0.87
  -1  -4   4   13.38    0.91
   1  -4  -4   14.86    1.03
  -1  -4   4   14.83    0.82
  -1   4   4   14.16    0.99
  -1   4   4   15.09    0.93
   1   4  -4   14.08    1.36
   1   4  -4   15.31    1.24
  -1   4   4   15.64    0.76
  -1   4   4   15.79    0.97
   0  -4   4    6.67    0.65
   0  -4   4    5.91    0.70
   0  -4   4    6.13    0.72
   0  -4  -4    6.92    0.75
   0  -4  -4    6.20    0.84
   0   4   4    6.29    0.63
   0   4  -4    5.93    0.79
   0   4  -4    6.27    0.79
   0   4   4    6.11    0.79
   0   4  -4    6.38    0.78
  -1  -4  -4    4.63    0.74
   1  -4   4    5.52    0.59
   1  -4   4    6.33    0.68
  -1  -4  -4    4.10    0.73
   1  -4   4    5.40    0.84
   1   4   4    4.90    0.65
  -1   4  -4    4.83    0.70
   1   4   4    5.42    0.73
  -1   4  -4    5.66    0.85
   1   4   4    5.07    0.73
   1   4   4    5.18    0.82
   2  -4   4    7.99    0.72
   2  -4   4    9.59    0.84
  -2  -4  -4    9.60    0.91
  -2  -4  -4    9.13    0.92
   2   4   4    9.24    0.80
   2   4   4    8.67    0.92
   2   4   4    8.53    0.80
  -2   4  -4    7.87    0.82
  -2   4  -4    8.39    1.05
   3  -4   4    1.52    0.51
   3  -4   4    1.74    0.40
   3  -4   4    0.43    0.46
  -3  -4  -4    0.88    0.47
   3   4   4    1.77    0.50
  -3   4  -4    1.72    0.54
   3   4   4    1.13    0.46
   3   4   4    0.72    0.42
  -3   4  -4    0.24    0.86
   4  -4   4    0.95    0.52
  -4  -4  -4    0.50    0.50
   4  -4   4    1.26    0.44
   4  -4   4    0.60    0.46
  -4  -4  -4    1.19    0.55
  -4   4  -4    1.35    0.50
   4   4   4    1.23    0.50
   4   4   4    0.82    0.45
   4   4   4    1.33    0.50
  -4   4  -4    1.38    0.62
   5  -4   4    0.74    0.48
  -5  -4  -4    0.50    0.64
  -5  -4  -4   -0.20    0.53
   5  -4   4    0.84    0.46
   5  -4   4    0.52    0.58
  -5   4  -4    0.65    0.61
  -5   4  -4   -0.29    0.66
   5   4   4   -0.18    1.05
  -6  -4  -4    6.10    0.98
   6  -4   4    5.61    0.94
  -6  -4  -4    6.64    1.08
   6   4   4    4.04    0.86
  -6   4  -4    4.40    0.98
   6   4   4    4.55    0.80
  -7  -4  -4    5.55    0.91
  -7  -4  -4    4.93    1.11
  -7   4  -4    5.39    1.16
   7   4   4    5.38    1.09
   8  -4   4    0.65    0.91
  -8  -4  -4    1.78    0.96
  -8  -4  -4    3.16    1.19
   8   4   4    1.75    1.80
   8   4   4    2.96    1.03
  -9  -4  -4    1.65    1.82
   9  -4   4    1.69    1.16
  -9  -4  -4    4.33    1.45
   9   4   4   -1.43    1.37
  -9  -5   4   -1.00    0.90
  -9  -5   4   -0.71    1.44
   9   5  -4   -1.25    1.22
  -8  -5   4   13.37    1.42
  -8  -5   4   12.97    1.60
   8  -5  -4   16.86    2.43
   8   5  -4   11.94    1.82
   8   5  -4   11.94    1.78
  -8   5   4   16.55    2.35
  -7  -5   4    7.12    1.21
  -7  -5   4    8.58    1.17
   7   5  -4    7.94    1.28
   6  -5  -4   -1.33    0.78
  -6  -5   4    0.16    0.87
  -6   5   4    0.16    0.80
   6   5  -4    1.20    0.74
   5  -5  -4    0.38    0.67
  -5  -5   4    1.16    0.74
  -5  -5   4    0.28    0.45
  -5   5   4    0.20    0.64
   5   5  -4    1.06    0.66
   5   5  -4    0.03    0.59
   4  -5  -4    7.05    1.09
  -4  -5   4    6.27    1.02
  -4  -5   4    6.95    0.75
   4   5  -4    6.12    0.85
   4   5  -4    6.32    0.95
  -4   5   4    6.51    1.05
  -4   5   4    6.58    1.06
   4   5  -4    6.32    1.01
  -3  -5   4    0.31    0.34
  -3  -5   4    0.06    0.52
   3  -5  -4    0.04    0.56
   3   5  -4    1.46    0.56
   3   5  -4   -0.24    0.49
  -3   5   4    0.40    0.50
  -3   5   4   -0.53    0.92
  -3   5   4    0.48    0.65
   3   5  -4   -0.79    0.46
  -2  -5   4   10.58    0.78
   2  -5  -4   11.09    0.77
   2  -5  -4    9.42    1.13
  -2  -5   4   10.31    1.54
   2  -5  -4   11.76    1.03
   2   5  -4   11.92    0.96
  -2   5   4   10.71    0.96
  -2   5   4    8.76    1.05
   2   5  -4   10.59    0.90
   2   5  -4   10.50    0.88
  -1  -5   4    7.89    0.74
   1  -5  -4    5.33    0.76
  -1  -5   4    8.39    0.66
   1  -5  -4    7.00    0.90
  -1  -5   4    6.08    1.01
   1  -5  -4    5.34    0.73
  -1   5   4    5.58    1.12
  -1   5   4    6.08    0.87
   1   5  -4    6.48    0.77
  -1   5   4    7.17    0.90
   1   5  -4    7.59    0.81
   1   5  -4    6.91    0.83
   0  -5  -4   12.18    1.16
   0  -5   4   10.67    0.84
   0  -5   4    9.53    1.07
   0  -5   4    9.22    0.74
   0  -5  -4   11.97    1.13
   0   5  -4   11.66    0.89
   0   5   4   10.11    1.02
   0   5  -4   11.53    0.92
   0   5  -4   10.65    0.85
   0   5   4    9.68    0.88
   0   5   4    7.96    0.88
   1  -5   4    9.05    0.78
  -1  -5  -4   10.65    0.98
   1  -5   4    9.89    0.79
  -1  -5  -4   11.29    1.16
   1  -5   4    9.57    1.04
   1   5   4   10.17    0.90
   1   5   4    7.19    0.82
  -1   5  -4    9.68    0.83
  -1   5  -4    6.91    0.93
   1   5   4   10.48    1.14
   2  -5   4    2.03    0.48
   2  -5   4    1.40    0.53
  -2  -5  -4    0.71    0.54
  -2  -5  -4    1.02    0.56
   2   5   4    1.92    0.53
   2   5   4    1.65    0.48
   2   5   4    1.39    0.79
  -2   5  -4    1.10    0.53
  -2   5  -4    1.50    0.52
  -3  -5  -4    1.15    0.56
   3  -5   4    1.87    0.50
   3  -5   4    1.35    0.49
  -3  -5  -4    0.71    0.66
   3   5   4    1.78    0.56
  -3   5  -4    1.28    0.58
  -3   5  -4    0.95    0.76
   3   5   4    1.69    0.59
   3   5   4    2.53    0.53
   4  -5   4    0.57    0.55
   4  -5   4   -0.59    0.57
  -4  -5  -4    0.85    0.58
  -4  -5  -4    0.05    0.75
  -4   5  -4    1.01    0.66
   4   5   4   -0.90    0.63
  -4   5  -4   -0.25    0.69
   4   5   4    0.56    0.85
  -5  -5  -4    2.55    0.73
   5  -5   4    2.25    0.88
   5  -5   4    1.14    0.67
  -5  -5  -4   -0.18    1.08
   5   5   4    1.97    0.88
  -5   5  -4    0.38    0.86
   5   5   4    1.08    0.80
   6  -5   4    0.37    0.98
  -6  -5  -4    0.21    1.06
  -6  -5  -4    0.35    0.80
   6   5   4   -0.09    1.01
  -6   5  -4   -1.18    1.36
   6   5   4    1.17    0.85
  -7  -5  -4    3.96    1.48
  -7  -5  -4    3.48    1.01
   7  -5   4    2.11    0.95
   7   5   4    1.34    1.06
  -7   5  -4    3.14    1.39
   7   5   4    1.69    1.08
  -8  -5  -4    6.53    1.51
  -8  -5  -4    7.62    1.26
   8  -5   4    3.40    1.14
   8   5   4    3.99    1.42
   8   5   4    6.24    1.27
  -8  -6   4   -0.71    1.59
  -8  -6   4    1.30    1.09
  -8   6   4    0.68    1.77
   8   6  -4    2.66    1.51
   8   6  -4    0.63    1.23
  -7  -6   4   19.16    2.25
   7  -6  -4   20.88    2.49
  -7  -6   4   15.90    1.58
  -7   6   4   20.15    2.68
   7   6  -4   16.15    2.67
   7   6  -4   15.79    1.64
   6  -6  -4    0.65    1.19
  -6  -6   4   -0.63    1.06
  -6  -6   4   -0.23    0.66
  -6   6   4    1.74    1.05
   6   6  -4    0.83    1.01
   6   6  -4   -1.13    1.01
  -5  -6   4   43.45    2.49
  -5  -6   4   44.81    1.84
   5   6  -4   41.19    2.15
  -5   6   4   43.56    2.36
   5   6  -4   45.81    2.36
  -4  -6   4    6.74    1.17
   4  -6  -4    4.41    1.00
  -4  -6   4    5.11    1.04
  -4   6   4    5.33    1.23
   4   6  -4    4.35    1.20
   4   6  -4    5.33    0.74
   4   6  -4    4.86    1.30
   3  -6  -4    2.13    0.92
  -3  -6   4    0.34    0.80
  -3  -6   4    1.97    0.58
   3   6  -4    2.43    0.80
   3   6  -4    3.11    0.67
  -3   6   4    0.01    1.16
  -3   6   4    2.92    0.82
   3   6  -4    1.04    0.89
  -2  -6   4    2.31    0.72
  -2  -6   4    1.89    0.73
   2  -6  -4    0.24    0.86
  -2  -6   4    2.11    0.58
   2   6  -4    3.31    0.81
   2   6  -4    3.13    0.79
  -2   6   4    3.50    0.77
   2   6  -4    2.89    0.65
  -2   6   4    1.95    0.74
   1  -6  -4   -0.63    0.67
  -1  -6   4    0.41    0.64
  -1  -6   4    0.72    0.66
  -1  -6   4    0.39    0.52
   1   6  -4    1.43    0.67
   1   6  -4   -0.71    0.65
  -1   6   4    1.20    0.93
   1   6  -4    0.96    0.70
  -1   6   4    0.38    0.65
   0  -6  -4    0.89    0.55
   0  -6  -4   -0.72    0.71
   0  -6   4    0.41    0.49
   0  -6   4   -1.05    0.60
   0  -6  -4    1.02    0.68
   0  -6   4    0.43    0.72
   0   6   4   -0.65    0.64
   0   6   4   -0.62    0.84
   0   6   4   -0.17    1.00
   0   6  -4    0.35    0.70
  -1  -6  -4    2.10    0.68
   1  -6   4   -0.10    0.56
   1  -6   4    0.45    0.64
  -1  -6  -4    0.37    0.82
  -1   6  -4    0.51    0.73
   1   6   4    1.60    0.74
   1   6   4   -0.06    0.67
   1   6   4    0.93    0.64
  -1   6  -4    0.01    0.66
   2  -6   4    0.38    0.63
  -2  -6  -4    1.75    1.01
   2  -6   4   -0.69    0.61
  -2  -6  -4    0.90    0.69
  -2   6  -4    2.53    0.85
   2   6   4    0.20    0.77
   2   6   4    0.89    0.67
   2   6   4    0.08    0.75
  -2   6  -4    0.63    0.70
  -3  -6  -4    1.26    1.04
   3  -6   4    0.05    0.70
  -3  -6  -4    0.48    0.73
   3  -6   4   -0.11    0.69
  -3   6  -4   -1.01    0.80
   3   6   4   -0.15    0.87
  -3   6  -4    0.13    0.97
   3   6   4   -0.24    1.19
   4  -6   4   32.59    1.94
  -4  -6  -4   34.10    1.96
  -4  -6  -4   30.30    2.22
  -4   6  -4   33.82    2.18
  -4   6  -4   32.77    2.17
   4   6   4   32.56    1.95
   5  -6   4   -0.63    0.85
  -5  -6  -4    0.59    1.16
  -5  -6  -4   -0.53    0.94
  -5   6  -4    0.59    1.08
   5   6   4    0.84    1.09
  -6  -6  -4    0.12    1.07
   6  -6   4    0.97    1.05
  -6  -6  -4    0.57    1.23
   6   6   4   -0.62    1.58
   6   6   4    0.15    1.11
  -6   6  -4   -0.84    1.33
  -7  -6  -4    1.19    1.27
   7  -6   4    0.54    1.20
  -7  -6  -4    2.00    1.65
  -7   6  -4   -0.36    1.80
   7   6   4   -1.15    1.56
   7   6   4    0.37    1.30
  -6  -7   4    2.17    1.28
  -6  -7   4   -1.42    1.59
   6   7  -4    0.43    1.51
   6   7  -4    0.28    1.25
  -5  -7   4    2.29    1.35
  -5  -7   4    1.28    0.92
   5  -7  -4    2.11    1.49
   5   7  -4    1.66    1.20
  -5   7   4    0.48    1.28
  -4  -7   4   -0.83    1.28
  -4  -7   4   -0.08    0.80
  -4  -7   4    0.08    1.21
   4  -7  -4    2.30    1.20
  -4   7   4   -0.58    1.05
   4   7  -4   -0.66    1.13
   4   7  -4   -2.00    0.99
   3  -7  -4    1.48    1.17
  -3  -7   4   -1.01    1.28
  -3  -7   4   -1.13    0.94
  -3  -7   4   -0.43    0.74
  -3   7   4    0.60    1.04
   3   7  -4    0.57    0.97
   3   7  -4   -1.76    0.87
   2  -7  -4    4.14    1.18
  -2  -7   4    1.89    0.97
  -2  -7   4    2.71    0.75
  -2   7   4    3.15    1.06
  -2   7   4    3.67    2.12
   2   7  -4    1.20    0.92
   2   7  -4    1.08    1.01
   1  -7  -4   12.54    1.94
  -1  -7   4   14.84    1.40
  -1  -7   4    9.87    1.21
   1   7  -4   15.23    1.68
   1   7  -4   13.94    1.78
  -1   7   4   12.69    1.76
  -1   7   4   13.40    1.75
   1   7  -4   14.48    1.68
   0  -7   4    9.34    1.06
   0  -7   4    9.25    1.44
   0  -7  -4    7.68    1.22
   0   7  -4    9.36    1.47
   0   7   4    5.50    1.12
   0   7  -4    8.26    1.13
   0   7   4    7.66    1.17
  -1  -7  -4   19.81    2.80
   1  -7   4   20.35    1.86
   1  -7   4   18.13    1.59
   1   7   4   21.07    1.81
  -1   7  -4   15.97    1.83
   1   7   4   19.22    1.81
  -1   7  -4   20.08    1.77
   2  -7   4   18.13    1.86
   2  -7   4   16.50    1.60
  -2  -7  -4   15.37    2.03
   2   7   4   16.18    1.73
  -2   7  -4   13.57    1.87
  -2   7  -4   20.61    1.93
   2   7   4   19.20    1.74
   3  -7   4    2.39    1.03
  -3  -7  -4    0.95    1.17
   3  -7   4   -0.65    1.45
  -3  -7  -4    2.48    1.22
  -3   7  -4   -0.50    1.09
   3   7   4    1.42    1.64
   3   7   4   -0.29    1.02
  -3   7  -4    2.42    1.35
  -4  -7  -4    2.42    1.34
   4   7   4    4.36    1.89
   4   7   4    1.97    1.21
  -4   7  -4    2.00    1.22
   5  -7   4    1.09    1.17
  -5  -7  -4    0.02    1.66
  -5   7  -4   -0.49    1.58
   5   7   4    1.08    1.40
   5   7   4   -1.58    1.87
  -2  -8   4    3.88    1.11
   2  -8  -4    3.11    1.78
  -2  -8   4    3.25    1.26
   2   8  -4    2.66    1.56
  -2   8   4    1.67    1.49
   2   8  -4    2.40    1.34
   2   8  -4    2.76    1.39
  -1  -8   4   -0.27    1.01
   1  -8  -4   -0.05    1.59
  -1  -8   4    0.06    1.17
  -1   8   4   -0.74    1.60
   1   8  -4    1.42    1.41
   1   8  -4   -0.72    1.35
  -1   8   4   -0.77    1.36
   0  -8  -4    1.72    1.60
   0  -8   4    0.62    1.16
   0  -8   4    0.70    1.15
   0   8   4   -0.54    1.48
   0   8  -4    2.68    1.37
   0   8   4   -0.70    1.61
   0   8  -4   -0.81    1.35
  -1  -8  -4    8.60    1.83
   1  -8   4    9.88    1.36
   1  -8   4   13.00    1.86
  -1   8  -4   10.64    1.70
   1   8   4    9.43    1.43
  -1   8  -4   15.03    2.52
   1   8   4   16.75    2.59
 -11   0   5    1.19    0.93
 -11   0   5    3.10    1.28
  11   0  -5    0.52    1.24
 -10   0   5   -0.13    0.95
  10   0  -5   -0.45    0.78
  10   0  -5   -0.59    0.91
   9   0  -5    3.14    0.62
   9   0  -5    3.48    0.84
   8   0  -5    0.17    0.74
   8   0  -5   -0.09    0.50
   7   0  -5    4.57    0.72
  -7   0   5    3.32    0.56
   6   0  -5    0.10    0.31
  -6   0   5    0.03    0.32
  -6   0   5    0.20    0.26
   6   0  -5   -0.46    0.38
  -5   0   5   74.12    1.71
   5   0  -5   72.52    2.04
   5   0  -5   74.67    1.47
  -5   0   5   76.92    1.76
  -5   0   5   74.45    1.48
  -5   0   5   72.05    1.73
  -4   0   5   -0.13    0.19
   4   0  -5    0.17    0.15
  -4   0   5    0.06    0.16
  -4   0   5    0.06    0.19
   4   0  -5    0.02    0.23
   4   0  -5    0.10    0.20
  -4   0   5   -0.10    0.14
  -3   0   5  176.83    3.24
  -3   0   5  176.73    3.30
   3   0  -5  172.28    3.35
  -3   0   5  172.52    3.42
   3   0  -5  178.32    3.33
  -3   0   5  175.99    3.24
   3   0  -5  171.59    3.55
  -2   0   5   -0.03    0.14
  -2   0   5    0.04    0.11
   2   0  -5    0.14    0.16
   2   0  -5    0.11    0.14
  -2   0   5    0.25    0.17
   2   0  -5    0.14    0.13
  -2   0   5    0.12    0.10
   2   0  -5   -0.05    0.16
  -1   0   5   72.29    1.42
  -1   0   5   69.34    1.41
  -1   0   5   70.59    1.61
  -1   0   5   69.87    1.44
  -1   0   5   70.60    1.55
   0   0  -5   -0.06    0.19
   0   0  -5    0.06    0.14
   0   0   5   -0.09    0.14
   0   0   5    0.09    0.16
   0   0   5    0.05    0.15
   0   0   5   -0.13    0.11
   0   0  -5   -0.19    0.15
   1   0   5    4.97    0.38
  -1   0  -5    5.16    0.38
  -1   0  -5    5.85    0.33
   1   0   5    5.19    0.38
   1   0   5    4.82    0.37
   2   0   5    0.17    0.19
  -2   0  -5    0.21    0.19
  -2   0  -5    0.23    0.21
  -2   0  -5    0.02    0.22
   2   0   5   -0.14    0.18
   2   0   5   -0.01    0.20
   3   0   5    5.04    0.50
   3   0   5    4.22    0.40
  -3   0  -5    5.39    0.44
  -3   0  -5    4.45    0.43
  -3   0  -5    4.16    0.59
   3   0   5    4.51    0.46
   4   0   5    0.25    0.32
   4   0   5    0.20    0.30
   4   0   5    0.00    0.26
  -4   0  -5   -0.24    0.27
  -4   0  -5   -0.57    0.29
  -4   0  -5   -0.24    0.41
  -5   0  -5   21.87    0.86
  -5   0  -5   20.72    0.97
   5   0   5   20.92    1.05
   5   0   5   20.69    1.29
  -5   0  -5   19.75    1.09
   5   0   5   22.07    1.16
  -6   0  -5    0.24    0.57
  -6   0  -5    0.55    0.54
   6   0   5   -0.22    0.38
  -7   0  -5    1.48    0.66
   7   0   5    2.92    0.56
  -7   0  -5    2.95    0.67
   7   0   5    1.58    0.56
   8   0   5   -0.08    0.93
   9   0   5    1.05    0.85
  10   0   5   -0.87    1.07
  11  -1  -5   11.99    1.59
 -11  -1   5   16.51    1.71
 -11  -1   5   11.52    1.52
  11   1  -5   11.51    1.92
 -11   1   5   15.16    2.21
  11   1  -5   12.98    1.59
  10  -1  -5    0.04    0.92
 -10  -1   5    0.78    0.70
 -10  -1   5    0.14    0.96
  10   1  -5    0.00    1.09
  10   1  -5   -0.36    0.87
  -9  -1   5    2.24    0.84
   9  -1  -5    0.49    0.82
  -9  -1   5    1.92    0.60
   9  -1  -5    1.75    0.58
   9   1  -5    4.10    0.88
   9   1  -5    1.57    0.66
   8  -1  -5    0.02    0.47
  -8  -1   5    0.85    0.57
   8  -1  -5    0.87    0.57
   8   1  -5    1.04    0.51
   8   1  -5    0.71    0.61
  -8   1   5    1.64    0.48
   7  -1  -5   11.24    1.00
   7  -1  -5   11.78    0.85
   7   1  -5   11.26    0.86
  -7   1   5   10.37    0.89
   7   1  -5   11.63    0.97
  -7   1   5   11.20    0.74
  -6  -1   5   17.10    0.92
   6  -1  -5   17.55    1.01
   6  -1  -5   17.40    0.79
   6   1  -5   17.20    0.99
   6   1  -5   16.85    0.72
   6   1  -5   17.85    1.00
  -6   1   5   16.57    0.85
  -6   1   5   15.56    0.83
   5  -1  -5   -0.21    0.23
   5  -1  -5    0.06    0.34
  -5  -1   5   -0.10    0.24
  -5  -1   5    0.07    0.25
   5   1  -5    0.14    0.26
  -5   1   5   -0.61    0.35
   5   1  -5    0.03    0.36
  -5   1   5    0.26    0.25
   5   1  -5    0.26    0.29
  -4  -1   5    3.90    0.30
  -4  -1   5    3.96    0.29
   4  -1  -5    3.71    0.47
   4  -1  -5    3.75    0.35
  -4  -1   5    3.57    0.38
   4   1  -5    4.13    0.38
  -4   1   5    4.01    0.40
   4   1  -5    3.49    0.45
  -4   1   5    3.71    0.43
   4   1  -5    3.65    0.36
  -4   1   5    3.90    0.47
   3  -1  -5   28.92    1.15
   3  -1  -5   30.80    0.68
  -3   1   5   29.33    0.93
  -3   1   5   30.30    0.89
   3   1  -5   27.73    0.94
   3   1  -5   29.15    0.86
  -3   1   5   28.91    0.77
   3   1  -5   28.62    1.06
   3   1  -5   28.97    0.91
   2  -1  -5    9.35    0.52
  -2   1   5    9.48    0.47
   2   1  -5    9.19    0.47
   2   1  -5    8.99    0.46
   2   1  -5    8.93    0.45
  -2   1   5    9.03    0.48
  -2   1   5    9.18    0.43
  -2   1   5    9.06    0.48
   1  -1  -5    0.28    0.21
  -1  -1   5    0.45    0.19
  -1  -1   5    0.32    0.09
  -1  -1   5    0.44    0.11
   1  -1  -5    0.38    0.18
  -1   1   5    0.17    0.18
  -1   1   5    0.52    0.17
   1   1  -5    0.15    0.18
   1   1  -5    0.50    0.19
  -1   1   5    0.22    0.14
   1   1  -5    0.36    0.18
  -1   1   5    0.42    0.17
   1   1  -5    0.23    0.15
  -1   1   5    0.32    0.09
   0  -1   5   18.80    0.68
   0  -1  -5   18.90    0.68
   0  -1   5   18.69    0.56
   0   1  -5   18.42    0.68
   0   1   5   18.24    0.67
   0   1  -5   18.04    0.68
   0   1   5   19.20    0.73
   0   1  -5   18.95    0.45
   0   1   5   19.24    0.66
   0   1   5   19.33    0.56
  -1  -1  -5    1.10    0.23
   1  -1   5    1.32    0.23
  -1  -1  -5    1.44    0.26
   1  -1   5    1.33    0.23
   1  -1   5    1.20    0.19
   1   1   5    1.90    0.31
   1   1   5    1.38    0.22
  -1   1  -5    1.41    0.25
  -1   1  -5    1.92    0.30
  -1   1  -5    1.48    0.24
   1   1   5    1.02    0.22
  -2  -1  -5  114.03    2.73
  -2  -1  -5  115.63    2.49
   2  -1   5  116.03    2.53
   2  -1   5  111.05    2.46
   2  -1   5  113.94    2.53
   2   1   5  111.97    2.53
  -2   1  -5  114.33    2.49
   2   1   5  113.13    2.39
   2   1   5  113.10    2.47
  -2   1  -5  115.71    2.47
   2   1   5  114.46    2.51
   3  -1   5    7.18    0.57
  -3  -1  -5    7.29    0.63
  -3  -1  -5    8.18    0.57
   3  -1   5    7.73    0.52
   3  -1   5    7.45    0.57
   3   1   5    7.99    0.45
  -3   1  -5    7.53    0.64
   3   1   5    6.58    0.59
  -3   1  -5    7.70    0.41
   3   1   5    7.14    0.58
   3   1   5    7.64    0.55
  -3   1  -5    7.41    0.91
   4  -1   5    0.29    0.28
  -4  -1  -5    0.40    0.35
  -4  -1  -5   -0.47    0.33
   4  -1   5   -0.01    0.41
   4   1   5    0.52    0.25
   4   1   5    0.86    0.36
  -4   1  -5   -0.02    0.37
  -4   1  -5   -0.18    0.28
   4   1   5   -0.17    0.32
  -4   1  -5   -0.12    0.29
   4   1   5    0.06    0.36
   5  -1   5    0.19    0.33
   5  -1   5    0.01    0.46
  -5  -1  -5    0.11    0.41
  -5  -1  -5    0.04    0.44
   5  -1   5   -0.53    0.35
   5   1   5   -0.17    0.44
  -5   1  -5   -0.01    0.42
   5   1   5    0.08    0.27
  -5   1  -5   -0.05    0.36
   5   1   5    0.45    0.50
   5   1   5   -0.25    0.35
  -5   1  -5    0.94    0.46
  -6  -1  -5    0.60    0.54
  -6  -1  -5   -0.28    0.69
   6  -1   5    0.19    0.39
   6  -1   5    0.62    0.45
   6   1   5    0.24    0.40
  -6   1  -5   -1.12    0.56
  -6   1  -5   -0.54    0.53
   6   1   5   -0.22    0.40
   7  -1   5    0.43    0.74
   7  -1   5    0.13    0.52
  -7  -1  -5    0.25    0.60
  -7  -1  -5    0.54    0.63
   7   1   5    0.61    0.55
   7   1   5    0.57    0.48
  -8  -1  -5   26.71    1.62
  -8  -1  -5   30.33    1.90
   9   1   5   16.45    1.61
  10  -1   5    2.00    1.08
  10   1   5    1.52    1.15
 -11  -2   5   -1.18    1.41
 -11  -2   5   -0.32    0.85
  11  -2  -5   -1.66    1.34
  11   2  -5    0.13    1.30
 -10  -2   5    0.45    1.13
 -10  -2   5    0.30    0.67
  10  -2  -5   -0.09    1.05
  10   2  -5    1.09    0.90
  10   2  -5    0.03    0.99
  -9  -2   5   14.68    1.45
   9  -2  -5   12.44    1.84
  -9  -2   5   15.85    1.98
  -9   2   5   16.49    1.59
   9   2  -5   12.58    1.39
   8  -2  -5    1.97    0.71
  -8  -2   5    3.76    0.54
   8  -2  -5    3.96    0.73
  -8  -2   5    3.66    0.79
   8   2  -5    3.97    0.75
   8   2  -5    3.62    0.63
  -8   2   5    2.68    0.61
  -7  -2   5    1.07    0.50
   7  -2  -5    0.47    0.44
   7  -2  -5    2.30    0.52
  -7  -2   5    1.34    0.33
   7   2  -5    1.22    0.48
  -7   2   5    0.66    0.63
   7   2  -5    1.57    0.49
   7   2  -5    1.69    0.46
  -7   2   5    1.25    0.41
  -6  -2   5    1.19    0.26
   6  -2  -5    1.14    0.42
  -6  -2   5    1.08    0.43
   6   2  -5    0.95    0.41
   6   2  -5    1.25    0.36
   6   2  -5    1.08    0.42
  -6   2   5    1.01    0.49
  -6   2   5    0.96    0.36
   5  -2  -5    0.23    0.25
  -5  -2   5    0.53    0.27
   5  -2  -5    0.59    0.46
  -5  -2   5    0.42    0.50
   5   2  -5    0.44    0.29
   5   2  -5    0.52    0.25
  -5   2   5    0.40    0.38
  -5   2   5    0.29    0.36
   5   2  -5    0.54    0.46
   5   2  -5   -0.07    0.40
  -4  -2   5    0.46    0.19
  -4  -2   5    0.37    0.17
   4  -2  -5    0.23    0.19
  -4  -2   5    0.31    0.32
   4  -2  -5    0.18    0.33
   4  -2  -5    0.28    0.31
   4   2  -5    0.70    0.30
  -4   2   5    0.06    0.32
   4   2  -5    0.07    0.31
   4   2  -5    0.47    0.23
  -4   2   5    0.33    0.20
   4   2  -5    0.37    0.27
  -4   2   5    0.46    0.30
   3  -2  -5   19.20    0.87
  -3  -2   5   18.44    0.82
  -3  -2   5   18.40    0.52
  -3  -2   5   18.99    0.54
  -3   2   5   18.20    0.84
   3   2  -5   19.02    0.83
  -3   2   5   19.56    0.66
   3   2  -5   18.78    0.77
   3   2  -5   18.34    0.71
   3   2  -5   19.05    0.80
  -2  -2   5   16.14    0.49
   2  -2  -5   16.71    0.67
  -2  -2   5   16.29    0.69
  -2  -2   5   15.92    0.48
   2  -2  -5   15.65    0.76
   2   2  -5   16.45    0.73
  -2   2   5   16.12    0.64
   2   2  -5   16.39    0.75
  -2   2   5   15.55    0.82
   2   2  -5   16.97    0.68
  -2   2   5   16.30    0.74
   2   2  -5   16.33    0.67
  -1  -2   5  348.48    6.36
  -1  -2   5  338.03    6.38
   1  -2  -5  355.97    6.50
  -1  -2   5  350.57    6.26
   1  -2  -5  337.91    6.92
   1   2  -5  342.64    6.63
   1   2  -5  358.37    6.84
  -1   2   5  344.92    6.52
  -1   2   5  345.73    6.48
  -1   2   5  343.65    6.65
  -1   2   5  351.47    6.13
   0  -2   5  206.60    4.26
   0  -2  -5  216.92    4.21
   0  -2   5  211.87    3.88
   0  -2   5  205.94    4.03
   0  -2   5  213.25    4.14
   0   2  -5  210.22    4.26
   0   2   5  215.79    4.52
   0   2  -5  205.82    4.24
   0   2   5  222.19    4.55
   0   2   5  214.33    4.22
  -1  -2  -5   25.59    0.98
   1  -2   5   24.94    0.84
   1  -2   5   26.98    0.93
   1  -2   5   26.52    0.95
  -1  -2  -5   26.27    0.99
   1   2   5   26.70    0.94
   1   2   5   26.10    0.84
  -1   2  -5   24.90    0.94
   1   2   5   25.97    0.90
   1   2   5   25.11    0.95
  -1   2  -5   25.11    0.92
   2  -2   5   29.67    1.00
   2  -2   5   30.17    1.00
   2  -2   5   28.25    1.03
  -2  -2  -5   29.04    1.06
   2   2   5   29.92    0.97
   2   2   5   28.92    1.05
  -2   2  -5   29.03    1.03
  -2   2  -5   29.71    1.07
   2   2   5   29.59    1.10
   2   2   5   29.91    1.02
   3  -2   5  108.42    2.57
  -3  -2  -5  105.89    2.65
   3  -2   5  107.78    2.50
   3  -2   5  108.42    2.64
  -3  -2  -5  103.71    2.58
  -3   2  -5  113.16    2.06
   3   2   5  109.01    2.66
   3   2   5  109.09    2.61
  -3   2  -5  108.17    2.59
   3   2   5  110.52    2.60
   3   2   5  112.26    2.38
  -3   2  -5  105.45    2.50
   4  -2   5   19.62    0.89
  -4  -2  -5   17.89    1.14
   4  -2   5   19.81    0.98
  -4  -2  -5   18.12    1.01
   4  -2   5   19.03    0.99
   4  -2   5   20.32    0.81
   4   2   5   18.76    0.75
   4   2   5   20.13    1.34
  -4   2  -5   19.21    0.74
   4   2   5   19.97    1.13
   4   2   5   19.05    1.05
  -4   2  -5   19.99    1.03
  -5  -2  -5    5.09    0.93
   5  -2   5    3.88    0.56
   5  -2   5    5.71    0.65
   5  -2   5    5.79    0.62
  -5  -2  -5    5.94    0.91
   5   2   5    6.09    0.87
   5   2   5    5.31    0.67
  -5   2  -5    5.75    0.95
   6  -2   5    0.80    0.72
   6  -2   5    0.85    0.50
  -6  -2  -5    1.00    0.55
  -6  -2  -5    2.37    0.88
   6   2   5    1.90    0.52
   6   2   5    1.91    0.46
  -6   2  -5    0.75    1.18
   7  -2   5    2.79    0.78
  -7  -2  -5    3.08    0.76
  -7  -2  -5    3.89    0.66
   7   2   5    2.70    0.59
   7   2   5    1.37    0.68
   8  -2   5    3.24    0.86
  -8  -2  -5    3.65    1.18
  -8  -2  -5    3.54    0.85
   8   2   5    2.38    0.89
   8   2   5    3.39    0.78
  -9  -2  -5    3.87    1.29
   9  -2   5    1.89    0.91
   9   2   5    1.49    0.97
  10  -2   5    0.17    1.18
  10   2   5   -1.68    1.34
  10  -3  -5   -0.07    1.25
 -10  -3   5   -0.62    0.91
 -10  -3   5    1.63    1.21
  10   3  -5   -1.35    1.08
 -10   3   5    3.01    1.29
   9  -3  -5    0.43    1.01
  -9  -3   5    1.52    1.04
  -9  -3   5   -1.06    0.57
   9   3  -5    2.23    0.89
   8  -3  -5   -1.39    0.67
  -8  -3   5    1.18    0.82
  -8  -3   5    0.15    0.46
  -8   3   5    0.55    0.69
   8   3  -5    0.35    0.71
  -8   3   5    0.08    0.99
  -7  -3   5    1.54    0.39
  -7  -3   5    0.98    0.60
   7  -3  -5    1.44    0.58
  -7   3   5    1.87    0.59
   7   3  -5    1.73    0.51
   7   3  -5    1.45    0.69
  -7   3   5    0.71    0.76
  -6  -3   5    3.48    0.58
  -6  -3   5    4.76    0.50
   6  -3  -5    4.70    0.79
  -6   3   5    3.72    0.62
  -6   3   5    3.86    0.54
   6   3  -5    5.08    0.70
   6   3  -5    3.48    0.52
   5  -3  -5    6.47    0.52
  -5  -3   5    7.43    0.75
  -5  -3   5    6.66    0.50
   5  -3  -5    6.63    0.82
  -5  -3   5    6.27    0.83
   5   3  -5    6.07    0.56
  -5   3   5    6.61    0.82
   5   3  -5    5.46    0.95
   5   3  -5    6.58    0.96
  -5   3   5    6.64    0.88
   4  -3  -5   29.51    0.97
  -4  -3   5   31.00    1.02
   4  -3  -5   30.79    1.35
  -4  -3   5   30.77    0.96
  -4  -3   5   28.97    1.55
   4   3  -5   30.58    1.32
  -4   3   5   30.92    1.44
  -4   3   5   30.73    1.26
   4   3  -5   30.64    1.04
   4   3  -5   31.84    1.31
  -3  -3   5   63.56    1.52
   3  -3  -5   64.27    2.18
  -3  -3   5   62.15    1.51
   3  -3  -5   64.84    1.77
  -3  -3   5   65.00    1.86
   3  -3  -5   66.56    1.35
   3   3  -5   63.68    1.69
  -3   3   5   62.07    1.90
   3   3  -5   65.86    1.87
   3   3  -5   64.17    1.94
  -3   3   5   62.72    1.80
  -3   3   5   63.09    1.58
   2  -3  -5    0.54    0.34
   2  -3  -5    0.92    0.20
   2  -3  -5    1.04    0.39
  -2  -3   5    0.94    0.31
  -2  -3   5    1.02    0.23
  -2   3   5    0.29    0.31
   2   3  -5    0.87    0.36
  -2   3   5    0.80    0.36
   2   3  -5    1.16    0.36
   2   3  -5    0.73    0.32
  -1  -3   5    0.02    0.29
   1  -3  -5    0.02    0.32
  -1  -3   5    0.11    0.19
  -1  -3   5    0.13    0.30
   1  -3  -5    0.22    0.33
  -1  -3   5    0.26    0.25
  -1   3   5   -0.33    0.28
  -1   3   5    0.01    0.23
  -1   3   5   -0.09    0.26
   1   3  -5   -0.01    0.28
   1   3  -5    0.28    0.33
  -1   3   5    0.10    0.31
   1   3  -5    0.13    0.29
   0  -3   5    2.49    0.43
   0  -3   5    3.22    0.44
   0  -3  -5    2.39    0.39
   0  -3   5    3.08    0.51
   0  -3   5    2.89    0.42
   0  -3  -5    2.44    0.44
   0   3  -5    2.70    0.44
   0   3   5    2.42    0.39
   0   3  -5    2.15    0.41
   0   3   5    3.93    0.45
   0   3   5    2.79    0.40
   0   3   5    2.34    0.39
   0   3  -5    2.53    0.41
  -1  -3  -5    0.36    0.32
  -1  -3  -5    0.07    0.39
   1  -3   5    0.46    0.26
   1  -3   5    1.06    0.53
   1  -3   5    1.05    0.34
   1  -3   5    0.33    0.45
   1   3   5    0.41    0.31
   1   3   5    0.34    0.35
   1   3   5    0.32    0.33
  -1   3  -5    0.87    0.38
  -1   3  -5    1.35    0.35
   1   3   5    0.36    0.34
   2  -3   5    0.46    0.27
   2  -3   5    0.13    0.39
  -2  -3  -5    0.53    0.46
   2  -3   5    0.32    0.30
  -2   3  -5    0.24    0.45
   2   3   5    0.42    0.30
  -2   3  -5    0.19    0.34
   2   3   5    0.47    0.36
   2   3   5   -0.34    0.32
   3  -3   5    8.32    0.71
   3  -3   5    7.63    0.79
  -3  -3  -5    8.43    0.88
   3  -3   5    7.50    0.68
  -3  -3  -5    7.71    0.80
  -3   3  -5    6.87    0.75
  -3   3  -5    7.22    0.86
   3   3   5    6.61    0.81
   3   3   5    8.16    0.76
   3   3   5    5.77    0.60
   3   3   5    8.73    0.86
  -4  -3  -5   50.20    1.76
   4  -3   5   47.20    1.58
   4  -3   5   48.24    1.64
  -4  -3  -5   48.43    1.76
   4  -3   5   46.80    1.70
  -4   3  -5   47.06    1.72
   4   3   5   48.09    1.74
   4   3   5   47.19    1.52
   4   3   5   48.22    1.68
  -4   3  -5   47.82    1.65
   5  -3   5   84.43    2.79
   5  -3   5   79.74    2.45
  -5  -3  -5   84.21    2.54
  -5  -3  -5   84.28    2.48
   5  -3   5   78.44    3.33
   5   3   5   85.77    2.48
  -5   3  -5   85.25    2.56
   5   3   5   83.98    2.45
   6  -3   5    1.05    0.54
  -6  -3  -5    1.24    0.57
   6  -3   5    1.55    0.55
  -6  -3  -5    1.24    0.66
   6   3   5    1.50    0.63
   6   3   5    0.62    0.54
  -6   3  -5    0.49    0.76
  -7  -3  -5   -2.37    1.18
   7  -3   5    0.63    0.71
  -7  -3  -5    0.23    0.70
   7   3   5    0.25    1.54
   7   3   5   -0.88    0.73
  -8  -3  -5   -0.31    0.91
  -8  -3  -5    1.16    1.12
   8  -3   5    0.10    0.79
   8   3   5   -0.27    1.24
   9  -3   5    0.38    1.04
   9   3   5   -1.86    1.06
 -10  -4   5    9.13    1.13
 -10  -4   5    7.57    1.81
  10   4  -5    7.46    1.47
  -9  -4   5    2.99    0.72
   9  -4  -5    5.11    1.32
  -9  -4   5    2.97    1.26
   9   4  -5    6.17    1.08
  -9   4   5    3.38    1.26
  -8  -4   5    0.31    0.58
  -8  -4   5    0.98    1.01
   8   4  -5    1.08    0.86
  -8   4   5    0.25    1.02
   8   4  -5   -1.35    0.71
  -8   4   5    0.82    0.96
  -7  -4   5   18.93    1.19
   7  -4  -5   16.64    2.07
  -7  -4   5   22.27    1.77
   7   4  -5   17.91    1.21
   7   4  -5   20.61    1.51
  -7   4   5   20.54    1.58
  -7   4   5   20.75    1.53
   6  -4  -5    1.20    0.59
  -6  -4   5   -0.15    0.37
  -6  -4   5   -0.21    0.62
  -6   4   5    0.57    0.56
   6   4  -5   -1.25    0.59
  -6   4   5   -0.14    0.59
   6   4  -5   -0.04    0.74
  -5  -4   5    2.95    0.62
   5  -4  -5    3.31    0.59
  -5  -4   5    2.58    0.36
   5   4  -5    2.29    0.57
  -5   4   5    2.42    0.56
   5   4  -5    1.81    0.47
   5   4  -5    2.95    0.53
  -5   4   5    1.59    0.55
   4  -4  -5    1.00    0.48
  -4  -4   5    1.19    0.47
  -4  -4   5    2.14    0.46
   4   4  -5    1.15    0.48
   4   4  -5    1.46    0.46
  -4   4   5   -0.20    0.55
  -4   4   5    1.38    0.53
  -4   4   5    1.13    0.46
   4   4  -5    0.24    0.41
  -3  -4   5   16.71    1.29
  -3  -4   5   16.17    0.75
   3  -4  -5   17.18    1.12
   3  -4  -5   16.40    1.53
   3  -4  -5   17.56    0.75
   3   4  -5   16.17    0.99
   3   4  -5   17.70    1.00
  -3   4   5   16.77    1.09
   3   4  -5   17.02    1.01
  -3   4   5   16.98    1.04
  -3   4   5   17.48    0.95
   2  -4  -5   44.73    1.58
  -2  -4   5   46.83    1.58
   2  -4  -5   44.33    1.66
  -2  -4   5   44.61    1.34
   2  -4  -5   46.89    1.21
   2   4  -5   45.66    1.62
  -2   4   5   46.48    1.66
  -2   4   5   45.18    1.58
   2   4  -5   45.52    1.61
  -2   4   5   44.91    1.52
  -1  -4   5   12.70    0.71
   1  -4  -5   13.19    0.91
  -1  -4   5   13.42    0.83
   1  -4  -5   13.68    0.99
   1  -4  -5   12.66    0.69
  -1  -4   5   12.65    0.82
   1   4  -5   13.49    0.90
  -1   4   5   13.08    0.72
  -1   4   5   13.04    0.97
  -1   4   5   15.07    0.96
   1   4  -5   13.71    0.93
   1   4  -5   13.29    1.08
   0  -4  -5   18.97    1.08
   0  -4   5   19.17    0.87
   0  -4   5   17.55    0.96
   0   4  -5   16.19    0.98
   0   4   5   18.08    1.07
   0   4   5   19.05    0.89
   0   4  -5   19.14    1.01
   0   4  -5   18.43    0.99
   0   4   5   17.81    1.08
   0   4   5   19.24    1.15
   1  -4   5   10.18    0.73
   1  -4   5    8.80    0.77
   1  -4   5   10.12    0.73
  -1  -4  -5   10.70    0.91
  -1  -4  -5    9.98    0.91
  -1   4  -5    9.34    0.83
   1   4   5   10.86    0.92
   1   4   5    8.07    0.92
  -1   4  -5   10.58    0.89
   1   4   5    9.49    0.88
   1   4   5   10.32    0.80
   2  -4   5   43.27    1.51
   2  -4   5   44.72    1.51
  -2  -4  -5   41.26    1.83
  -2  -4  -5   42.00    1.63
   2   4   5   42.60    1.81
  -2   4  -5   43.11    1.54
   2   4   5   41.85    1.78
   2   4   5   43.71    1.61
  -2   4  -5   41.70    1.61
   3  -4   5    0.20    0.40
  -3  -4  -5    1.27    0.50
   3   4   5    0.60    0.50
  -3   4  -5    1.16    0.49
   3   4   5    0.62    0.44
   3   4   5    0.13    0.48
  -3   4  -5    0.04    0.48
  -4  -4  -5    3.19    0.61
   4  -4   5    3.43    0.56
   4  -4   5    2.72    0.55
  -4  -4  -5    3.89    0.63
   4  -4   5    3.35    0.53
   4   4   5    2.67    0.56
  -4   4  -5    3.07    0.62
   4   4   5    2.46    0.59
  -4   4  -5    3.71    0.66
   4   4   5    2.71    0.59
   5  -4   5    2.04    0.96
   5  -4   5    1.50    0.74
   5  -4   5    0.17    0.52
  -5  -4  -5    1.24    0.58
  -5  -4  -5    0.33    0.73
   5   4   5    0.84    0.63
   5   4   5    1.34    0.59
  -5   4  -5    0.81    0.66
  -6  -4  -5    0.95    0.90
  -6  -4  -5   -0.21    0.70
   6  -4   5    1.09    0.65
   6   4   5    0.67    0.73
   6   4   5   -0.56    0.71
  -6   4  -5   -0.50    0.82
   7  -4   5   -0.81    0.77
  -7  -4  -5    0.03    0.89
  -7  -4  -5   -0.12    1.07
  -7   4  -5   -2.01    1.36
   7   4   5   -0.88    0.85
   7   4   5   -0.12    0.92
  -8  -4  -5   -0.29    1.15
   8  -4   5   -1.45    0.92
   8   4   5   -0.35    1.07
   8   4   5    1.64    1.05
  -9  -4  -5    2.41    1.69
   9  -4   5    1.63    1.29
  -9  -5   5   -2.17    1.55
  -9  -5   5   -1.65    0.86
   9  -5  -5    0.71    2.01
   9   5  -5   -1.65    1.28
   8  -5  -5   25.32    2.29
  -8  -5   5   25.40    3.68
  -8  -5   5   18.39    1.50
  -8   5   5   24.83    2.49
   8   5  -5   17.57    2.00
   8   5  -5   25.75    1.85
   7  -5  -5    8.05    1.34
  -7  -5   5    9.13    1.34
  -7  -5   5   10.65    1.53
  -7   5   5    8.64    1.35
   7   5  -5    9.69    1.56
   7   5  -5    8.21    1.49
   6  -5  -5    0.98    1.35
  -6  -5   5    1.31    0.91
   6   5  -5    1.24    0.75
  -6   5   5    0.68    0.82
   5  -5  -5    1.07    0.73
  -5  -5   5    0.16    0.68
  -5  -5   5   -0.59    0.45
  -5   5   5   -0.50    0.69
   5   5  -5   -1.24    0.89
   5   5  -5    0.72    0.71
  -5   5   5   -0.44    0.65
  -4  -5   5    1.65    0.44
   4  -5  -5    2.03    0.65
  -4  -5   5    2.62    0.66
   4   5  -5    2.23    0.53
  -4   5   5    2.62    0.79
   4   5  -5    1.91    0.59
   4   5  -5    2.98    0.69
  -4   5   5    2.14    0.66
   3  -5  -5    0.35    0.56
  -3  -5   5   -0.05    0.35
  -3  -5   5    0.10    0.51
   3   5  -5    0.05    0.56
  -3   5   5   -0.42    0.71
   3   5  -5    1.17    0.49
  -3   5   5    0.78    0.63
  -3   5   5   -0.31    0.51
   3   5  -5   -1.00    0.47
   2  -5  -5   20.18    1.24
  -2  -5   5   17.67    1.24
  -2  -5   5   20.67    0.97
  -2  -5   5   18.51    1.15
  -2   5   5   19.33    1.36
   2   5  -5   20.80    1.13
   2   5  -5   19.78    1.10
  -2   5   5   21.56    1.19
   2   5  -5   16.78    1.34
  -2   5   5   18.87    1.41
   1  -5  -5    7.84    1.11
   1  -5  -5    9.16    0.79
   1  -5  -5    8.00    1.01
  -1  -5   5    9.40    0.73
  -1  -5   5    8.76    1.03
   1   5  -5    9.05    0.88
   1   5  -5    7.26    0.85
   1   5  -5   10.19    0.95
  -1   5   5   10.75    0.91
  -1   5   5    8.27    1.01
  -1   5   5   10.44    0.92
   0  -5   5    4.05    0.71
   0  -5   5    4.35    0.65
   0  -5  -5    5.25    0.74
   0  -5   5    4.99    0.71
   0   5   5    3.50    0.57
   0   5   5    3.15    0.67
   0   5  -5    5.74    0.84
   0   5  -5    4.01    0.59
   0   5   5    6.01    0.79
   1  -5   5    5.58    0.76
  -1  -5  -5    7.09    0.95
  -1   5  -5    5.25    0.90
  -1   5  -5    5.15    0.77
   1   5   5    4.98    0.82
   1   5   5    4.37    0.64
   2  -5   5    2.12    0.47
   2  -5   5    1.24    0.49
  -2  -5  -5    0.73    0.60
  -2  -5  -5    1.91    0.64
  -2   5  -5    0.77    0.58
   2   5   5    0.78    0.72
   2   5   5    1.37    0.52
  -2   5  -5    1.42    0.55
   2   5   5    1.18    0.63
   3  -5   5    2.73    0.57
  -3  -5  -5    1.41    0.61
  -3  -5  -5    0.85    0.98
   3  -5   5    2.82    0.61
  -3   5  -5    1.78    0.68
   3   5   5    1.73    0.54
   3   5   5    2.00    0.66
   3   5   5    2.43    0.63
  -3   5  -5    2.34    0.61
  -4  -5  -5    1.46    0.85
   4  -5   5    2.37    0.58
  -4  -5  -5    2.69    0.66
   4  -5   5    1.29    0.62
   4  -5   5    1.59    0.65
   4   5   5    2.66    0.75
  -4   5  -5    2.42    0.74
  -4   5  -5   -0.19    0.87
   4   5   5    1.76    0.73
   5  -5   5    2.42    0.79
  -5  -5  -5    2.63    1.01
  -5  -5  -5    1.21    0.76
   5  -5   5    3.76    0.79
   5   5   5    2.24    0.92
   5   5   5    3.05    0.96
  -5   5  -5    3.19    1.46
  -6  -5  -5   -0.12    1.24
   6   5   5   -1.42    0.93
   6   5   5    0.00    1.00
  -6   5  -5    0.49    1.17
  -7  -5  -5   -0.82    1.24
  -7  -5  -5   -1.36    1.14
   7  -5   5   -0.19    0.98
  -7   5  -5   -0.23    1.44
   7   5   5   -1.42    1.09
   7   5   5   -2.49    1.27
  -8  -5  -5    4.01    1.76
   8  -5   5    5.34    1.24
   8   5   5    5.17    1.59
   8   5   5    1.24    1.28
  -8  -6   5    1.14    1.60
  -8  -6   5   -0.12    1.12
   8  -6  -5    0.77    3.18
   8   6  -5   -0.66    1.81
  -8   6   5   -2.08    1.72
   8   6  -5   -0.38    1.28
   7  -6  -5    1.25    1.40
  -7  -6   5    0.27    0.75
  -7  -6   5   -0.12    1.24
   7   6  -5   -1.88    1.13
   7   6  -5    1.24    1.11
  -7   6   5    2.23    1.29
  -6  -6   5    0.75    1.15
   6  -6  -5    2.22    1.17
  -6   6   5   -0.06    1.06
   6   6  -5    0.84    0.91
   6   6  -5    2.11    1.05
   5  -6  -5    2.35    1.12
  -5  -6   5    3.79    1.23
  -5  -6   5    4.60    0.72
  -5   6   5    5.22    1.05
   5   6  -5    4.12    0.93
   5   6  -5    4.64    1.03
  -4  -6   5   44.26    1.80
  -4  -6   5   46.57    2.57
   4  -6  -5   41.76    2.86
   4   6  -5   43.59    1.89
  -4   6   5   47.88    2.38
   4   6  -5   44.64    2.11
   4   6  -5   44.98    2.23
  -3  -6   5    0.25    0.78
  -3  -6   5    1.33    0.95
   3  -6  -5    2.61    0.91
  -3  -6   5    1.73    0.77
   3   6  -5   -0.78    0.86
   3   6  -5    1.29    0.91
  -3   6   5    2.33    0.98
  -3   6   5    3.94    0.87
   3   6  -5    0.66    0.84
  -2  -6   5    2.57    0.81
  -2  -6   5    2.50    0.73
  -2  -6   5    2.52    0.60
   2  -6  -5    1.80    0.86
  -2   6   5    2.56    0.77
  -2   6   5    2.57    0.80
   2   6  -5    2.00    0.69
   2   6  -5    1.15    0.78
   2   6  -5    2.35    0.76
  -1  -6   5    0.14    0.72
   1  -6  -5   -0.04    0.73
  -1  -6   5   -0.16    0.64
  -1  -6   5    0.33    0.51
   1   6  -5    0.39    0.73
  -1   6   5    0.65    0.69
  -1   6   5    0.32    0.75
   1   6  -5    0.22    0.68
   1   6  -5   -0.07    0.71
   0  -6  -5    1.01    0.84
   0  -6   5    0.17    0.55
   0  -6   5   -1.24    0.61
   0   6   5    0.54    0.71
   0   6   5    0.38    0.67
   0   6  -5    0.70    0.71
  -1  -6  -5    1.93    0.93
   1  -6   5    2.29    0.69
  -1  -6  -5    2.77    0.75
   1   6   5    1.12    0.98
   1   6   5    1.06    0.69
   1   6   5    3.15    0.84
  -1   6  -5    2.46    0.79
  -1   6  -5    1.88    0.73
   2  -6   5    1.37    0.70
  -2  -6  -5   -0.21    0.75
   2  -6   5    0.89    0.66
   2   6   5    1.32    0.88
   2   6   5   -0.55    0.69
  -2   6  -5   -0.18    1.01
   2   6   5    0.12    1.03
   3  -6   5    2.62    1.30
  -3  -6  -5    2.01    0.99
  -3  -6  -5    0.14    0.78
  -3   6  -5   -0.60    0.90
  -3   6  -5    3.17    1.45
   3   6   5    2.09    1.00
   3   6   5    1.47    0.86
   4  -6   5    1.03    0.90
   4  -6   5    0.28    0.78
  -4  -6  -5   -1.41    1.34
   4  -6   5    0.30    0.86
  -4  -6  -5    0.12    0.93
  -4   6  -5    1.04    1.20
   4   6   5   -1.23    1.24
  -4   6  -5    1.94    1.14
  -5  -6  -5    5.20    1.21
   5  -6   5    3.61    0.96
  -5  -6  -5    2.78    1.20
   5   6   5    3.62    1.23
   5   6   5    5.92    1.32
  -5   6  -5    5.78    1.24
  -6  -6  -5    7.27    1.49
   6  -6   5    9.44    1.21
  -6   6  -5    7.75    1.52
   6   6   5    8.72    1.54
   6   6   5    8.82    1.35
  -6  -7   5    0.54    1.02
  -6  -7   5    2.00    1.76
   6  -7  -5    2.43    1.80
   6   7  -5   -0.05    1.30
  -6   7   5   -0.21    1.59
  -5  -7   5   -0.41    1.25
  -5  -7   5   -2.42    1.41
  -5  -7   5    1.71    0.86
   5  -7  -5    1.21    1.41
   5   7  -5    1.05    1.22
   5   7  -5   -2.07    1.03
  -5   7   5    0.84    1.24
  -4  -7   5   -1.22    1.38
  -4  -7   5   -0.21    1.35
   4  -7  -5    1.12    1.40
  -4  -7   5   -1.26    0.78
   4   7  -5   -1.35    0.99
   4   7  -5    1.05    1.59
  -4   7   5   -0.39    1.09
  -3  -7   5    0.01    0.79
  -3  -7   5   -0.03    1.40
   3  -7  -5   -2.26    1.13
  -3  -7   5    0.19    1.13
   3   7  -5    0.07    1.08
  -3   7   5    1.88    1.08
   3   7  -5   -1.40    1.00
   3   7  -5   -1.34    1.32
  -2  -7   5    2.31    0.73
  -2  -7   5    2.46    0.97
   2  -7  -5    2.54    1.16
  -2   7   5    1.65    1.11
  -2   7   5    3.83    1.36
   2   7  -5    2.19    1.09
   2   7  -5    3.21    0.96
   2   7  -5    1.97    0.95
  -1  -7   5    2.74    0.92
   1  -7  -5    4.79    1.19
  -1  -7   5    4.47    0.80
  -1   7   5    2.98    1.19
  -1   7   5    2.82    0.98
   1   7  -5    2.54    1.02
   0  -7  -5    2.06    1.30
   0  -7   5    0.11    0.80
   0  -7   5    1.10    0.85
   0   7   5   -0.33    0.99
   0   7   5   -0.16    0.92
   0   7  -5    0.82    0.94
   0   7  -5    0.64    0.91
   1  -7   5    6.63    1.10
  -1  -7  -5    6.79    1.28
   1  -7   5    7.59    1.01
  -1   7  -5   10.84    1.71
   1   7   5    9.85    1.20
  -1   7  -5    7.38    1.36
   1   7   5    6.23    1.18
  -2  -7  -5    3.77    1.23
   2  -7   5    2.44    0.97
   2  -7   5    2.79    0.97
   2   7   5    3.87    1.33
   2   7   5    2.30    1.12
  -2   7  -5    2.99    1.17
  -2   7  -5    3.91    1.32
  -3  -7  -5    2.34    1.30
   3  -7   5    0.29    1.02
   3  -7   5   -0.31    1.05
   3   7   5   -0.57    1.09
  -3   7  -5   -0.42    1.14
  -3   7  -5    2.73    1.43
   4  -7   5   -2.60    1.26
  -4  -7  -5    2.28    1.51
   4   7   5    1.97    1.26
  -4   7  -5   -1.42    1.31
   2  -8  -5    4.64    1.92
  -2  -8   5    4.91    1.39
   2   8  -5    2.99    2.08
  -2   8   5    3.95    2.17
   2   8  -5    6.52    1.46
  -1  -8   5    1.10    1.13
   1  -8  -5    1.35    1.70
  -1  -8   5    2.44    1.25
  -1   8   5   -1.00    1.41
  -1   8   5    4.44    1.71
   1   8  -5    2.41    1.44
   1   8  -5    1.80    1.40
   0  -8   5    1.59    1.20
   0  -8  -5    0.21    1.64
   0  -8   5    1.04    1.25
   0   8  -5   -0.58    1.42
   0   8   5   -1.48    1.41
   0   8  -5    2.79    1.49
   0   8   5    2.65    1.61
 -11   0   6   -0.20    1.17
 -11   0   6   -0.58    0.86
  11   0  -6    0.33    1.15
 -10   0   6    1.73    1.31
  10   0  -6    2.82    0.82
  10   0  -6    1.52    0.96
   9   0  -6    1.54    0.77
   9   0  -6    1.32    0.58
   8   0  -6    0.64    0.46
   8   0  -6   -0.81    0.90
  -7   0   6   -0.08    0.30
   7   0  -6   -0.41    0.41
   7   0  -6   -0.81    0.44
  -6   0   6    7.24    0.63
   6   0  -6    7.31    0.64
   6   0  -6    7.75    0.74
  -6   0   6    7.01    1.01
  -6   0   6    6.98    0.54
  -5   0   6    0.33    0.24
  -5   0   6    0.08    0.21
   5   0  -6    0.19    0.26
  -5   0   6   -0.14    0.25
   5   0  -6   -0.36    0.17
   5   0  -6    0.42    0.35
  -4   0   6  147.40    3.05
  -4   0   6  138.18    2.96
  -4   0   6  147.02    2.85
   4   0  -6  148.28    3.26
   4   0  -6  154.49    3.00
   4   0  -6  148.60    2.85
  -4   0   6  149.20    2.87
   3   0  -6   -0.28    0.22
   3   0  -6   -0.09    0.18
  -3   0   6   -0.11    0.17
   3   0  -6    0.14    0.16
  -3   0   6    0.01    0.16
  -3   0   6   -0.07    0.16
  -3   0   6   -0.31    0.13
   3   0  -6    0.03    0.19
  -2   0   6    1.52    0.24
  -2   0   6    1.27    0.21
  -2   0   6    1.06    0.14
  -2   0   6    1.11    0.22
   2   0  -6    1.29    0.24
  -2   0   6    1.17    0.21
   2   0  -6    0.94    0.23
  -1   0   6    0.06    0.17
  -1   0   6    0.10    0.15
   1   0  -6    0.20    0.17
  -1   0   6    0.10    0.14
  -1   0   6    0.02    0.11
   1   0  -6    0.01    0.17
   0   0   6   17.71    0.68
   0   0  -6   18.27    0.59
   0   0   6   17.56    0.59
   0   0   6   18.13    0.62
   0   0  -6   17.67    0.68
   0   0   6   18.84    0.63
   1   0   6   -0.36    0.16
   1   0   6   -0.24    0.18
  -1   0  -6   -0.24    0.19
  -1   0  -6    0.05    0.17
   1   0   6   -0.03    0.22
   2   0   6    1.62    0.28
  -2   0  -6    2.41    0.35
   2   0   6    1.40    0.28
  -2   0  -6    1.95    0.31
   2   0   6    1.80    0.27
  -3   0  -6   -0.05    0.25
   3   0   6   -0.06    0.27
   3   0   6   -0.13    0.25
   3   0   6   -0.28    0.26
  -3   0  -6   -0.39    0.24
  -4   0  -6    6.10    0.73
  -4   0  -6    5.65    0.57
   4   0   6    5.95    0.85
   4   0   6    6.26    0.64
  -5   0  -6   -0.21    0.41
  -5   0  -6    0.22    0.57
   5   0   6    0.01    0.49
   5   0   6    0.02    0.35
   6   0   6   45.88    1.55
  -6   0  -6   44.74    1.82
   6   0   6   44.45    1.76
  -6   0  -6   44.43    1.67
   7   0   6    0.10    0.56
   7   0   6    0.10    0.50
  -7   0  -6    0.59    0.78
   8   0   6   44.18    2.10
   9   0   6   -1.08    0.84
  10   0   6    0.13    1.27
 -11  -1   6    8.23    1.01
  11  -1  -6    8.82    1.47
 -11  -1   6    7.25    1.39
  11   1  -6    7.71    1.33
  11   1  -6    7.29    1.16
 -10  -1   6    0.23    0.67
  10  -1  -6   -1.96    0.94
 -10  -1   6   -1.14    0.98
  10   1  -6   -0.15    1.86
  -9  -1   6   21.28    1.28
   9  -1  -6   20.29    1.59
  -9  -1   6   17.20    1.55
   9   1  -6   16.54    2.64
   9   1  -6   16.90    1.36
  -9   1   6   21.27    1.55
   8  -1  -6    0.49    0.50
   8  -1  -6    0.06    0.55
  -8  -1   6    0.10    0.56
   8   1  -6    1.08    0.51
  -8   1   6   -0.17    0.45
   8   1  -6    0.05    0.54
   7  -1  -6   69.85    1.90
   7  -1  -6   68.42    2.19
   7   1  -6   67.73    2.20
   7   1  -6   68.46    2.06
  -7   1   6   67.30    1.91
  -7   1   6   70.60    1.93
  -6  -1   6   51.05    1.34
  -6  -1   6   54.26    1.44
   6  -1  -6   52.70    1.79
   6   1  -6   52.11    1.68
   6   1  -6   50.45    1.35
   6   1  -6   51.09    1.75
  -6   1   6   51.86    1.57
  -6   1   6   50.89    1.52
  -5  -1   6    7.44    0.70
  -5  -1   6    6.94    0.46
  -5  -1   6    6.52    0.46
   5  -1  -6    6.10    0.73
   5  -1  -6    6.79    0.48
  -5   1   6    6.22    0.59
   5   1  -6    7.12    0.47
  -5   1   6    6.84    0.61
   5   1  -6    6.77    0.78
  -5   1   6    6.44    0.71
   5   1  -6    7.19    0.61
  -4  -1   6    7.07    0.49
   4  -1  -6    7.67    0.61
  -4  -1   6    7.60    0.33
  -4  -1   6    8.08    0.33
   4  -1  -6    7.62    0.40
   4   1  -6    7.31    0.60
  -4   1   6    7.68    0.50
   4   1  -6    7.64    0.48
  -4   1   6    7.07    0.55
  -4   1   6    7.68    0.39
   4   1  -6    6.72    0.60
  -4   1   6    7.30    0.57
   4   1  -6    7.77    0.47
   3  -1  -6    4.28    0.47
   3   1  -6    4.10    0.41
  -3   1   6    4.52    0.35
  -3   1   6    4.33    0.37
   3   1  -6    3.43    0.37
  -3   1   6    4.82    0.44
   3   1  -6    4.61    0.39
   3   1  -6    4.39    0.44
   2  -1  -6    1.03    0.24
   2   1  -6    0.95    0.21
   2   1  -6    0.69    0.31
   2   1  -6    0.44    0.20
   2   1  -6    0.56    0.21
  -2   1   6    0.47    0.21
  -2   1   6    0.81    0.23
  -2   1   6    0.84    0.19
  -2   1   6    0.58    0.21
  -1  -1   6   39.72    0.88
  -1  -1   6   38.35    1.06
   1  -1  -6   38.76    1.11
  -1  -1   6   40.12    1.11
   1  -1  -6   37.90    1.02
  -1  -1   6   38.13    0.86
   1   1  -6   39.53    1.11
  -1   1   6   38.92    0.82
   1   1  -6   37.99    1.11
  -1   1   6   37.93    1.02
  -1   1   6   37.87    1.12
  -1   1   6   39.06    1.06
   1   1  -6   38.09    1.49
   1   1  -6   40.12    1.19
  -1   1   6   38.82    1.06
   0  -1   6   80.44    1.69
   0  -1   6   80.96    1.89
   0  -1   6   80.98    1.84
   0  -1  -6   78.76    1.83
   0   1   6   76.45    1.85
   0   1  -6   80.33    1.89
   0   1  -6   80.61    1.51
   0   1  -6   77.87    1.88
   0   1   6   77.55    1.86
   0   1   6   81.86    1.82
  -1  -1  -6   59.97    1.49
   1  -1   6   57.65    1.54
  -1  -1  -6   60.70    1.50
   1   1   6   59.04    1.50
   1   1   6   58.75    1.42
  -1   1  -6   57.67    1.40
  -1   1  -6   57.64    1.55
   1   1   6   59.12    1.55
  -2  -1  -6   49.47    1.41
  -2  -1  -6   47.16    1.32
   2  -1   6   46.92    1.32
   2  -1   6   47.80    1.39
   2  -1   6   47.84    1.37
   2   1   6   47.32    1.28
   2   1   6   49.14    1.43
   2   1   6   47.57    1.47
   2   1   6   48.58    1.38
  -2   1  -6   47.14    1.34
  -2   1  -6   49.80    1.34
   3  -1   6   16.59    0.79
   3  -1   6   16.17    0.81
  -3  -1  -6   17.09    0.88
   3  -1   6   17.74    0.88
  -3  -1  -6   16.47    1.18
   3   1   6   17.26    0.86
  -3   1  -6   16.82    0.53
   3   1   6   17.52    0.84
   3   1   6   16.85    0.84
   3   1   6   17.31    0.70
  -3   1  -6   17.44    0.80
  -3   1  -6   16.82    0.87
  -4  -1  -6    1.04    0.40
   4  -1   6    1.71    0.39
   4  -1   6    1.13    0.37
  -4  -1  -6    1.08    0.40
   4  -1   6    1.69    0.47
   4   1   6    1.22    0.29
   4   1   6    1.89    0.40
  -4   1  -6    1.72    0.48
  -4   1  -6    1.69    0.40
   4   1   6    0.83    0.41
   4   1   6    1.84    0.53
  -4   1  -6    1.45    0.32
   5  -1   6    0.99    0.38
   5  -1   6    0.92    0.45
  -5  -1  -6    0.45    0.53
   5  -1   6    0.67    0.43
  -5  -1  -6    0.09    0.48
  -5   1  -6    0.69    0.51
  -5   1  -6   -0.47    0.39
   5   1   6    0.23    0.31
   5   1   6   -0.05    0.36
   5   1   6   -0.67    0.45
  -5   1  -6    0.70    0.46
   5   1   6    0.36    0.37
   6  -1   6    1.01    0.43
  -6  -1  -6    1.04    0.69
   6  -1   6    0.98    0.46
  -6  -1  -6    1.46    0.60
   6   1   6    1.65    0.45
  -6   1  -6    0.56    0.69
   6   1   6    1.45    0.52
   7  -1   6   -0.21    0.57
   7  -1   6   -0.20    0.52
  -7  -1  -6    0.15    0.68
  -7  -1  -6    0.35    0.72
   7   1   6   -0.30    0.59
   7   1   6    0.33    0.54
   8  -1   6    8.96    1.23
  -8  -1  -6    7.51    0.98
   8   1   6    8.32    1.14
   8   1   6    5.91    0.95
   9  -1   6   15.16    1.51
   9   1   6   14.18    1.83
  10  -1   6    1.05    1.24
  10   1   6    0.07    1.28
  11  -2  -6   -0.53    1.33
 -11  -2   6   -0.71    1.48
 -11  -2   6   -0.12    0.95
  11   2  -6    0.49    1.50
 -10  -2   6    2.29    1.17
  10  -2  -6    0.80    1.05
 -10  -2   6    3.10    0.69
  10   2  -6    2.65    0.99
  10   2  -6    1.90    1.03
   9  -2  -6    3.44    1.78
   9   2  -6    4.71    0.87
  -9   2   6    4.05    0.90
   9   2  -6    4.35    0.96
  -8  -2   6    4.64    0.76
   8  -2  -6    5.41    0.81
  -8  -2   6    4.42    0.87
   8   2  -6    5.21    0.72
   8   2  -6    4.55    0.84
  -8   2   6    6.74    1.04
  -7  -2   6    0.16    0.29
   7  -2  -6    0.22    0.50
  -7  -2   6    0.34    0.52
   7   2  -6   -0.82    0.45
   7   2  -6    0.45    0.47
   7   2  -6    0.04    0.44
  -7   2   6   -0.54    0.38
   6  -2  -6   15.20    0.72
  -6  -2   6   16.19    1.07
  -6  -2   6   14.90    0.74
   6  -2  -6   15.95    0.98
  -6  -2   6   15.73    0.80
   6   2  -6   15.64    0.99
  -6   2   6   16.37    1.16
   6   2  -6   16.35    0.88
  -6   2   6   15.15    0.89
   6   2  -6   15.00    0.99
   5  -2  -6    6.27    0.45
  -5  -2   6    5.90    0.46
  -5  -2   6    6.55    0.84
   5  -2  -6    6.40    0.79
  -5   2   6    6.06    0.73
   5   2  -6    6.16    0.50
   5   2  -6    6.45    0.86
   5   2  -6    6.09    0.90
   5   2  -6    6.18    0.60
  -4  -2   6    1.11    0.18
  -4  -2   6    0.61    0.35
  -4  -2   6    1.00    0.17
   4  -2  -6    0.83    0.39
   4   2  -6    0.96    0.27
   4   2  -6    0.85    0.33
  -4   2   6    0.86    0.37
  -4   2   6    0.87    0.31
   4   2  -6    0.64    0.30
  -4   2   6    0.92    0.28
   4   2  -6    0.87    0.36
   3  -2  -6    0.02    0.30
  -3  -2   6   -0.09    0.25
   3  -2  -6    0.84    0.33
  -3   2   6    0.34    0.25
   3   2  -6    0.01    0.24
   3   2  -6   -0.29    0.29
  -3   2   6    0.06    0.29
   3   2  -6    0.42    0.26
  -3   2   6   -0.25    0.22
  -2  -2   6   -0.05    0.23
   2  -2  -6    0.28    0.28
  -2  -2   6    0.03    0.14
  -2  -2   6    0.09    0.11
  -2   2   6    0.48    0.25
   2   2  -6    0.06    0.23
   2   2  -6    0.12    0.21
   2   2  -6   -0.04    0.24
  -2   2   6    0.10    0.22
   1  -2  -6  183.22    3.61
  -1  -2   6  173.77    3.36
  -1  -2   6  181.89    3.71
   1  -2  -6  175.07    3.75
  -1  -2   6  185.22    3.46
  -1  -2   6  169.46    3.48
   1   2  -6  176.19    3.70
  -1   2   6  180.08    3.85
   1   2  -6  178.09    3.71
  -1   2   6  175.37    3.62
  -1   2   6  179.18    3.75
  -1   2   6  178.97    3.22
   1   2  -6  180.37    3.72
   0  -2  -6  128.46    2.90
   0  -2   6  126.84    2.63
   0  -2   6  125.99    2.83
   0  -2   6  130.79    2.42
   0  -2  -6  131.86    2.81
   0  -2   6  128.60    2.64
   0   2   6  132.58    2.88
   0   2  -6  129.03    2.88
   0   2   6  127.44    2.84
   0   2   6  131.20    2.56
   0   2  -6  128.87    2.87
   0   2   6  132.17    2.84
   1  -2   6   -0.21    0.19
   1  -2   6    0.10    0.23
  -1  -2  -6   -0.37    0.35
   1  -2   6    0.04    0.30
   1  -2   6    0.19    0.23
   1   2   6    0.43    0.25
   1   2   6    0.30    0.23
  -1   2  -6    0.17    0.28
   1   2   6   -0.01    0.23
   1   2   6   -0.22    0.25
  -1   2  -6    0.28    0.26
   2  -2   6    2.95    0.51
  -2  -2  -6    3.40    0.58
  -2  -2  -6    2.78    0.43
   2  -2   6    3.89    0.46
   2  -2   6    4.20    0.53
  -2   2  -6    3.36    0.47
   2   2   6    3.98    0.55
   2   2   6    3.25    0.45
   2   2   6    4.02    0.55
   2   2   6    4.66    0.55
  -2   2  -6    3.40    0.53
   3  -2   6   90.51    2.28
  -3  -2  -6   89.29    2.34
  -3  -2  -6   91.06    2.39
   3  -2   6   90.89    2.32
   3  -2   6   88.94    3.10
   3   2   6   91.35    2.34
   3   2   6   90.89    2.32
  -3   2  -6   92.52    2.36
   4  -2   6   30.71    1.29
  -4  -2  -6   31.25    1.31
   4  -2   6   29.58    1.19
   4  -2   6   29.51    1.28
   4   2   6   30.17    1.02
  -4   2  -6   32.59    1.34
   4   2   6   30.73    1.30
   4   2   6   29.73    1.30
   5  -2   6    0.18    0.49
  -5  -2  -6    0.07    0.52
  -5  -2  -6    0.50    0.55
   5  -2   6   -0.07    0.39
   5  -2   6    1.26    0.51
   5   2   6    0.63    0.44
   5   2   6    0.90    0.41
  -5   2  -6    0.41    0.59
  -6  -2  -6   -0.58    0.59
  -6  -2  -6    1.01    0.64
   6  -2   6    0.58    0.80
   6  -2   6    0.68    0.50
   6  -2   6    1.35    0.47
  -6   2  -6    1.28    0.72
   6   2   6    0.01    0.97
   6   2   6    0.66    0.50
   7  -2   6    2.52    0.71
  -7  -2  -6    0.74    0.71
  -7  -2  -6    2.47    0.79
   7   2   6    1.11    0.73
   7   2   6    2.32    0.63
  -8  -2  -6    2.78    1.08
   8   2   6    1.61    0.82
   8   2   6    2.28    0.91
  -9  -2  -6   -0.19    1.90
   9  -2   6    0.75    0.91
   9   2   6    0.26    1.01
 -10  -3   6    0.21    0.69
  10  -3  -6    0.75    1.23
 -10  -3   6    1.41    1.23
 -10   3   6   -0.69    1.11
  10   3  -6   -1.40    1.28
  -9  -3   6   -0.56    0.56
  -9  -3   6    0.11    0.96
   9  -3  -6    0.57    1.02
   9   3  -6   -0.24    0.85
  -9   3   6   -0.53    0.98
  -8  -3   6    1.87    0.97
   8  -3  -6    2.77    0.84
  -8  -3   6    1.89    0.63
  -8   3   6    2.46    0.89
  -8   3   6    1.39    0.74
   8   3  -6    4.16    1.14
   7  -3  -6   -0.53    0.87
  -7  -3   6   -0.09    0.34
  -7  -3   6    1.42    0.59
  -7   3   6    0.90    0.55
  -7   3   6    0.11    0.67
   7   3  -6    0.87    0.49
   7   3  -6    0.35    0.54
   6  -3  -6    1.54    0.49
  -6  -3   6    1.29    0.29
  -6  -3   6    1.64    0.50
   6   3  -6    1.63    0.50
  -6   3   6    1.54    0.45
   6   3  -6    0.33    0.43
  -6   3   6    2.67    0.87
  -5  -3   6    8.81    0.52
  -5  -3   6    9.22    0.69
   5  -3  -6    9.50    0.87
  -5  -3   6    9.10    0.85
   5   3  -6    9.35    0.87
   5   3  -6    8.17    1.21
  -5   3   6    8.95    0.81
   5   3  -6    8.72    0.64
  -5   3   6    9.76    0.85
  -4  -3   6   27.35    0.89
   4  -3  -6   28.44    1.27
  -4  -3   6   28.14    0.86
  -4  -3   6   26.89    1.55
   4   3  -6   29.88    1.25
  -4   3   6   27.85    0.96
   4   3  -6   27.95    1.03
  -4   3   6   28.92    1.29
  -4   3   6   29.54    1.29
   3  -3  -6   11.77    1.12
   3  -3  -6   14.57    0.81
  -3  -3   6   13.49    0.85
  -3  -3   6   11.30    0.59
   3   3  -6   11.96    0.86
  -3   3   6   12.27    0.67
  -3   3   6   11.30    0.83
   3   3  -6   11.58    0.74
   2  -3  -6   28.74    1.11
   2  -3  -6   27.40    1.25
  -2  -3   6   28.86    0.92
  -2  -3   6   28.75    0.88
  -2  -3   6   28.82    1.07
   2   3  -6   28.32    1.22
   2   3  -6   28.31    1.12
   2   3  -6   27.50    1.17
  -2   3   6   27.88    1.12
  -2   3   6   27.88    1.21
  -2   3   6   27.91    1.07
  -1  -3   6    2.72    0.47
  -1  -3   6    2.85    0.47
   1  -3  -6    2.45    0.48
  -1  -3   6    2.73    0.39
  -1  -3   6    2.64    0.39
   1  -3  -6    2.52    0.44
   1   3  -6    3.35    0.56
   1   3  -6    2.81    0.46
   1   3  -6    2.73    0.47
  -1   3   6    3.71    0.55
  -1   3   6    2.57    0.40
  -1   3   6    2.89    0.48
   0  -3   6   -0.14    0.26
   0  -3   6    0.53    0.34
   0  -3  -6   -0.36    0.36
   0  -3  -6    0.02    0.35
   0  -3   6    0.26    0.37
   0  -3   6    0.64    0.25
   0   3  -6    0.25    0.35
   0   3   6    0.25    0.28
   0   3   6   -0.28    0.31
   0   3   6    0.63    0.34
   0   3  -6    0.13    0.34
   0   3   6    0.43    0.33
   1  -3   6    0.26    0.28
   1  -3   6    0.67    0.26
   1  -3   6   -0.01    0.44
  -1  -3  -6   -0.09    0.35
  -1  -3  -6    0.67    0.44
   1   3   6    0.87    0.41
   1   3   6    0.57    0.34
  -1   3  -6    1.04    0.54
   1   3   6    0.68    0.34
  -1   3  -6    0.57    0.39
  -2  -3  -6    1.36    0.45
   2  -3   6    1.41    0.40
  -2  -3  -6    1.29    0.73
   2  -3   6    1.34    0.44
   2  -3   6    1.45    0.40
  -2   3  -6    0.98    0.47
   2   3   6    1.31    0.40
   2   3   6    1.46    0.42
   2   3   6    0.93    0.41
   2   3   6    0.98    0.40
  -2   3  -6    0.94    0.47
  -3  -3  -6    4.76    0.76
  -3  -3  -6    5.14    0.79
   3  -3   6    4.31    0.66
   3  -3   6    4.08    0.67
   3   3   6    4.79    0.63
  -3   3  -6    4.64    0.63
  -3   3  -6    3.95    0.83
   3   3   6    4.56    0.66
   3   3   6    3.89    0.63
  -4  -3  -6    0.71    0.56
  -4  -3  -6    2.29    0.51
   4  -3   6    1.58    0.42
   4  -3   6    1.52    0.46
   4  -3   6    1.31    0.54
   4   3   6    1.53    0.49
   4   3   6    1.53    0.41
  -4   3  -6    2.13    0.59
   5  -3   6    4.58    0.73
  -5  -3  -6    4.05    0.63
   5  -3   6    3.34    0.50
   5  -3   6    5.47    0.91
  -5  -3  -6    3.34    0.62
   5   3   6    3.17    0.53
  -5   3  -6    2.81    0.62
   5   3   6    3.05    0.59
   6  -3   6   22.21    1.09
   6  -3   6   26.50    1.73
  -6  -3  -6   21.40    1.57
  -6  -3  -6   23.17    1.41
  -6   3  -6   23.58    1.41
   6   3   6   22.52    1.43
   6   3   6   23.93    1.36
   7  -3   6   17.60    1.61
  -7  -3  -6   14.64    1.54
  -7  -3  -6   17.25    1.80
   7   3   6   18.04    1.74
   7   3   6   22.67    1.56
  -8  -3  -6    6.51    1.25
   8  -3   6    3.35    0.91
   8   3   6    1.17    1.01
   8   3   6    5.79    1.06
  -9  -3  -6   -1.27    1.43
   9  -3   6   -0.56    1.07
   9   3   6   -1.20    1.22
 -10  -4   6   -0.34    1.59
 -10  -4   6    3.57    0.90
  10  -4  -6    2.40    1.85
  10   4  -6    2.00    1.26
 -10   4   6    4.66    1.54
  -9  -4   6   -0.74    1.19
   9  -4  -6    2.27    1.16
  -9  -4   6   -0.26    0.65
  -9   4   6    2.17    1.20
   9   4  -6    0.42    0.97
  -8  -4   6    0.65    0.57
  -8  -4   6   -0.53    1.02
   8  -4  -6   -0.91    0.90
  -8   4   6   -0.42    1.59
  -8   4   6    1.35    1.01
   8   4  -6   -1.11    0.76
   8   4  -6   -0.31    0.85
  -7  -4   6    8.47    1.44
   7  -4  -6    5.20    1.01
  -7  -4   6    5.44    0.97
   7   4  -6    4.67    0.84
   7   4  -6    5.36    0.91
  -7   4   6    4.72    0.82
  -7   4   6    3.17    0.84
  -6  -4   6    2.76    0.69
  -6  -4   6    2.17    0.43
   6  -4  -6    3.34    0.71
   6   4  -6    3.55    0.59
  -6   4   6    1.91    0.60
   6   4  -6    3.21    0.68
  -6   4   6    2.67    0.65
   5  -4  -6    0.24    0.55
  -5  -4   6    0.97    0.30
  -5  -4   6    1.41    0.54
  -5   4   6    1.84    0.53
   5   4  -6    2.39    0.54
   5   4  -6    0.92    0.47
  -5   4   6    0.88    0.60
   5   4  -6    1.58    0.51
  -4  -4   6   -0.11    0.49
  -4  -4   6   -0.06    0.26
   4  -4  -6    0.19    0.49
  -4   4   6    0.12    0.45
   4   4  -6   -0.07    0.43
  -4   4   6    0.32    0.51
   4   4  -6   -0.41    0.46
  -4   4   6    0.44    0.63
  -3  -4   6    0.07    0.24
   3  -4  -6   -0.08    0.57
  -3   4   6    0.45    0.41
   3   4  -6   -0.18    0.54
   3   4  -6    0.08    0.43
  -3   4   6   -0.04    0.42
  -3   4   6    0.65    0.51
   3   4  -6    0.42    0.43
   2  -4  -6   11.58    0.93
  -2  -4   6   11.26    0.82
  -2  -4   6   11.09    1.45
   2  -4  -6   11.78    0.93
  -2  -4   6   11.54    0.65
  -2   4   6   11.32    0.96
  -2   4   6   10.91    1.04
  -2   4   6   12.20    0.94
   2   4  -6   11.40    0.99
   2   4  -6   11.26    0.89
   2   4  -6   10.79    0.83
  -1  -4   6    0.16    0.38
   1  -4  -6    0.03    0.45
  -1  -4   6    0.04    0.41
   1  -4  -6    0.45    0.33
   1  -4  -6   -0.65    0.44
   1   4  -6   -0.32    0.61
  -1   4   6    0.20    0.52
   1   4  -6   -0.26    0.38
  -1   4   6   -0.22    0.44
  -1   4   6    0.58    0.42
  -1   4   6   -0.04    0.37
   1   4  -6   -0.19    0.41
   0  -4   6    4.78    0.63
   0  -4  -6    4.45    0.59
   0  -4   6    4.86    0.57
   0  -4   6    5.26    0.67
   0  -4  -6    5.21    0.87
   0   4   6    4.67    0.75
   0   4   6    6.50    0.74
   0   4  -6    4.46    0.98
   0   4  -6    5.49    0.81
   0   4   6    7.17    0.80
  -1  -4  -6    3.14    0.80
   1  -4   6    3.46    0.51
  -1  -4  -6    3.26    0.57
   1  -4   6    2.91    0.49
  -1   4  -6    4.45    0.73
   1   4   6    3.16    0.54
   1   4   6    3.20    0.55
  -1   4  -6    3.70    0.56
   1   4   6    3.02    0.60
   1   4   6    3.72    0.54
  -2  -4  -6    4.42    0.65
   2  -4   6    5.31    0.68
   2  -4   6    4.85    0.70
  -2  -4  -6    6.72    0.85
  -2   4  -6    5.50    0.78
   2   4   6    6.48    0.74
   2   4   6    5.02    0.88
   2   4   6    4.84    0.84
  -2   4  -6    5.66    0.93
  -3  -4  -6    3.27    0.62
   3  -4   6    3.35    0.58
   3  -4   6    3.59    0.68
   3  -4   6    4.32    0.71
  -3  -4  -6    3.14    0.79
  -3   4  -6    3.46    0.57
   3   4   6    2.84    0.83
   3   4   6    2.58    0.56
  -3   4  -6    4.13    0.79
  -4  -4  -6   30.52    1.55
   4  -4   6   32.72    1.45
  -4  -4  -6   31.90    1.55
   4  -4   6   30.80    1.28
   4   4   6   32.05    1.49
   4   4   6   31.83    1.53
  -4   4  -6   33.50    1.57
   4   4   6   29.53    1.74
  -4   4  -6   31.75    1.45
   5  -4   6    6.53    0.70
   5  -4   6    7.98    0.88
  -5  -4  -6    5.37    0.73
  -5  -4  -6    5.83    0.99
   5  -4   6    5.25    0.79
  -5   4  -6    5.57    0.85
   5   4   6    6.16    0.87
   5   4   6    5.30    0.81
  -6  -4  -6    1.89    0.96
  -6  -4  -6    0.36    1.16
  -6   4  -6   -0.74    0.90
   6   4   6    0.39    1.02
   6   4   6   -0.19    1.05
   7  -4   6   -0.51    0.85
  -7  -4  -6    0.02    1.81
  -7  -4  -6   -0.04    1.26
   7   4   6   -0.38    0.96
   7   4   6    1.81    1.00
  -8  -4  -6   -1.21    1.59
   8  -4   6    1.00    1.03
   8   4   6    2.42    1.17
   8   4   6   -1.09    1.16
   9  -5  -6    5.02    1.67
  -9  -5   6    6.28    1.67
  -9  -5   6    6.43    1.00
   9   5  -6    1.99    1.44
   8  -5  -6   18.78    2.12
  -8  -5   6   18.45    1.65
  -8  -5   6   13.42    2.24
   8   5  -6   14.82    1.88
   8   5  -6   13.35    1.80
  -8   5   6   16.45    2.23
   7  -5  -6    8.85    1.31
  -7  -5   6    8.62    1.10
  -7  -5   6    9.32    1.34
  -7   5   6   10.35    1.44
   7   5  -6    9.50    1.51
  -6  -5   6    1.43    0.57
   6  -5  -6    1.56    1.70
  -6  -5   6    2.52    1.10
   6   5  -6    2.69    0.76
  -6   5   6    2.17    0.82
  -6   5   6    1.13    1.30
   6   5  -6    1.82    0.93
  -5  -5   6    8.73    1.29
   5  -5  -6    7.68    1.36
  -5  -5   6   11.08    0.99
   5   5  -6    8.73    1.29
  -5   5   6   12.19    1.26
   5   5  -6    8.19    1.11
  -5   5   6    8.27    1.27
  -4  -5   6    2.18    0.45
   4  -5  -6    2.31    0.73
  -4  -5   6    2.17    0.65
   4   5  -6    3.30    0.57
  -4   5   6    1.26    0.70
   4   5  -6    1.62    0.74
   4   5  -6    1.81    0.66
  -4   5   6    3.49    0.98
   3  -5  -6    1.07    0.70
  -3  -5   6    1.24    0.69
  -3  -5   6    0.87    0.40
  -3   5   6    0.79    0.83
  -3   5   6    1.41    0.55
   3   5  -6    0.71    0.53
  -3   5   6    1.53    0.65
   3   5  -6    2.13    0.52
   3   5  -6    0.09    0.56
   2  -5  -6    8.13    1.07
  -2  -5   6    6.83    0.68
  -2  -5   6    7.12    1.08
  -2  -5   6    9.14    0.94
  -2   5   6    6.20    0.83
  -2   5   6    7.27    0.89
   2   5  -6    5.87    0.85
   2   5  -6    6.89    0.87
   1  -5  -6    2.89    0.62
  -1  -5   6    2.98    0.43
  -1  -5   6    3.86    0.57
  -1  -5   6    2.09    0.74
   1   5  -6    3.20    0.55
  -1   5   6    2.51    0.52
   1   5  -6    3.04    0.55
   1   5  -6    1.80    0.55
   0  -5  -6    1.98    0.57
   0  -5  -6    0.34    0.66
   0  -5   6    1.20    0.58
   0  -5   6    1.52    0.47
   0   5   6    0.77    0.51
   0   5  -6    0.52    0.66
   0   5   6    1.94    0.69
   0   5  -6    1.41    0.54
   0   5   6    1.35    0.53
  -1  -5  -6    3.60    0.91
   1  -5   6    3.47    0.56
  -1  -5  -6    3.56    0.66
   1  -5   6    3.39    0.51
   1   5   6    4.07    0.57
   1   5   6    3.09    0.61
   1   5   6    3.40    1.01
  -1   5  -6    2.96    0.58
  -1   5  -6    2.35    0.61
   2  -5   6    2.16    0.49
  -2  -5  -6    0.53    0.65
  -2  -5  -6    0.75    0.64
  -2   5  -6    1.74    0.59
   2   5   6    2.10    0.53
  -2   5  -6    1.52    0.63
   2   5   6    0.41    0.57
   2   5   6    1.60    0.64
   3  -5   6    4.16    0.73
  -3  -5  -6    3.69    0.72
   3  -5   6    3.81    0.59
  -3  -5  -6    2.54    0.82
   3   5   6    7.13    1.17
  -3   5  -6    4.00    0.82
   3   5   6    3.73    0.79
   3   5   6    4.18    0.62
   4  -5   6    6.99    0.90
   4  -5   6    8.63    1.26
  -4  -5  -6   11.48    1.80
   4  -5   6    7.89    1.05
  -4  -5  -6    9.33    1.27
  -4   5  -6    7.10    0.96
  -4   5  -6   10.50    1.52
   4   5   6    8.77    1.35
   4   5   6    9.19    1.34
   5  -5   6    2.28    0.77
   5  -5   6    0.67    0.79
  -5  -5  -6    1.11    0.83
   5  -5   6    2.88    1.14
  -5  -5  -6    0.63    1.44
  -5   5  -6    4.12    1.26
   5   5   6    2.00    0.86
   6  -5   6    1.10    0.91
  -6  -5  -6   -0.35    1.07
   6   5   6    0.22    0.98
  -6   5  -6   -0.24    1.15
   6   5   6    1.40    1.07
  -7  -5  -6    0.58    1.36
   7  -5   6    1.02    1.07
  -7   5  -6    2.18    1.65
   7   5   6    1.44    1.21
   7   5   6    2.62    1.15
   8  -6  -6    0.29    1.74
   8   6  -6   -0.32    1.31
  -8   6   6   -0.46    1.77
   7  -6  -6   -0.42    1.25
  -7  -6   6    2.27    1.28
  -7  -6   6    0.85    0.76
   7   6  -6    0.29    1.20
   7   6  -6   -1.16    1.08
  -7   6   6    0.46    1.31
  -6  -6   6    1.75    0.69
   6  -6  -6    1.47    1.36
  -6  -6   6    1.57    1.31
   6   6  -6   -1.01    0.92
   6   6  -6   -0.36    1.17
  -6   6   6   -0.18    0.99
  -5  -6   6   18.87    2.03
   5  -6  -6   22.01    2.09
  -5  -6   6   22.90    2.14
  -5   6   6   23.06    1.90
   5   6  -6   22.12    2.00
   5   6  -6   20.19    1.64
  -4  -6   6   11.70    1.55
  -4  -6   6    6.35    2.14
  -4  -6   6    8.25    1.17
   4  -6  -6    8.65    1.47
  -4   6   6    9.22    1.74
   4   6  -6   10.54    1.58
   4   6  -6    8.17    1.31
   4   6  -6    9.92    1.43
   3  -6  -6    0.53    1.55
  -3  -6   6    1.22    0.91
  -3   6   6    2.01    0.89
   3   6  -6    0.85    0.74
  -3   6   6    0.39    1.39
   3   6  -6   -0.46    1.32
   2  -6  -6   13.35    1.70
  -2  -6   6   12.97    1.90
  -2  -6   6   13.83    1.46
  -2  -6   6   13.06    1.50
   2   6  -6   12.30    1.34
  -2   6   6   12.49    1.47
  -2   6   6   11.59    1.34
   2   6  -6   12.75    1.49
   2   6  -6   13.29    2.07
  -1  -6   6   -0.06    0.70
   1  -6  -6    1.82    0.85
   1   6  -6    0.27    0.75
   1   6  -6    0.39    0.77
  -1   6   6    0.57    0.76
   1   6  -6    1.63    0.80
  -1   6   6   -0.53    0.70
   0  -6   6    0.82    0.57
   0  -6  -6    0.50    0.98
   0  -6   6    1.09    0.67
   0   6  -6   -1.58    0.79
   0   6   6   -0.98    0.84
   0   6  -6    0.36    0.77
   0   6   6    1.05    0.75
   1  -6   6    0.28    0.62
  -1  -6  -6    0.36    1.18
   1  -6   6    2.09    0.77
   1   6   6    1.65    0.78
  -1   6  -6    1.37    1.22
   1   6   6    0.56    0.79
  -1   6  -6    0.49    0.79
  -2  -6  -6    0.16    0.94
   2  -6   6    1.43    0.71
   2   6   6    0.50    0.90
  -2   6  -6    1.18    0.89
   2   6   6    1.30    0.77
  -2   6  -6    0.91    0.87
   3  -6   6   -0.36    0.78
  -3  -6  -6    0.77    1.00
   3  -6   6   -1.34    0.81
   3   6   6   -0.57    0.98
   3   6   6    0.72    0.91
  -3   6  -6    1.11    0.91
  -3   6  -6   -0.89    1.05
   3   6   6   -1.07    1.05
   4  -6   6   -0.46    1.12
  -4  -6  -6    0.31    1.07
   4  -6   6    1.05    0.86
  -4   6  -6    0.99    1.02
   4   6   6   -0.08    0.91
   4   6   6    0.52    1.52
   5  -6   6   -1.11    0.91
   5   6   6   -1.26    1.09
   5   6   6   -0.55    1.40
  -5   6  -6    0.11    1.25
   6  -6   6    7.54    1.22
  -6  -6  -6    5.70    2.25
   6   6   6    6.79    1.40
   6   6   6    7.24    1.68
  -6   6  -6    4.74    1.67
  -6  -7   6   -1.65    1.80
   6  -7  -6    1.85    1.79
   6   7  -6    0.15    1.41
  -6   7   6    5.41    1.90
  -5  -7   6    3.85    1.29
  -5  -7   6    3.67    1.42
   5  -7  -6    5.80    1.53
  -5  -7   6    4.49    1.76
  -5   7   6    2.44    1.37
   5   7  -6    3.09    1.44
  -4  -7   6    0.72    1.09
   4  -7  -6    0.11    1.33
  -4  -7   6    1.69    0.75
   4   7  -6   -0.09    1.02
   4   7  -6   -2.21    1.15
  -4   7   6    0.79    1.16
  -3  -7   6   -0.49    0.97
   3   7  -6   -1.14    1.04
  -3   7   6   -1.18    1.05
   3   7  -6   -1.59    0.94
  -2  -7   6    2.51    1.02
  -2  -7   6    1.17    0.70
   2  -7  -6    2.35    1.14
   2   7  -6    1.40    1.06
  -2   7   6    2.95    1.36
   2   7  -6    0.52    1.02
  -2   7   6    1.10    1.18
   2   7  -6    2.79    1.12
  -1  -7   6    4.89    0.86
   1  -7  -6    4.91    1.27
  -1  -7   6    4.03    0.98
  -1   7   6    3.50    1.08
   1   7  -6    4.20    1.02
   1   7  -6    3.37    1.07
  -1   7   6    5.71    1.25
   0  -7  -6    0.56    1.10
   0  -7   6    2.97    0.84
   0  -7   6    1.87    0.94
   0   7   6    2.19    0.99
   0   7  -6    1.20    0.96
   0   7   6    2.85    1.08
   0   7  -6    3.53    1.02
  -1  -7  -6   23.55    2.26
   1  -7   6   21.33    1.84
   1  -7   6   26.06    1.84
   1   7   6   19.74    2.01
   1   7   6   26.54    1.98
  -1   7  -6   23.58    2.02
  -1   7  -6   24.03    2.48
  -2  -7  -6   -2.51    1.25
   2  -7   6   -1.18    1.40
   2  -7   6    0.34    0.94
  -2   7  -6    2.29    1.13
   2   7   6   -0.97    1.06
   2   7   6   -0.97    1.05
  -2   7  -6    0.60    1.19
   3  -7   6    3.51    1.10
   3  -7   6    3.32    1.05
  -3  -7  -6    5.10    1.52
  -3   7  -6    2.50    2.20
   3   7   6    4.82    1.27
  -3   7  -6    6.61    1.28
   4  -7   6    4.99    1.22
  -4  -7  -6    5.44    1.70
  -4   7  -6    4.88    1.52
   4   7   6    4.56    1.52
  11   0  -7   25.37    2.26
  10   0  -7    1.55    0.92
   9   0  -7    0.25    0.60
   9   0  -7   -0.58    0.74
   8   0  -7   -0.09    0.55
  -8   0   7    0.27    0.40
   8   0  -7    0.04    0.49
  -7   0   7    4.77    0.64
   7   0  -7    3.40    0.59
   7   0  -7    4.20    0.84
  -6   0   7   -0.03    0.24
   6   0  -7   -0.18    0.37
  -6   0   7    0.00    0.35
  -6   0   7   -0.25    0.47
   6   0  -7   -0.53    0.32
   5   0  -7    0.35    0.44
  -5   0   7    0.50    0.34
  -5   0   7    1.10    0.30
   5   0  -7    0.44    0.28
  -5   0   7    0.27    0.27
  -5   0   7    1.02    0.27
  -4   0   7    0.22    0.16
  -4   0   7   -0.20    0.18
   4   0  -7    0.39    0.23
  -4   0   7    0.08    0.20
  -4   0   7   -0.06    0.23
   4   0  -7    0.01    0.26
   3   0  -7  137.25    3.20
  -3   0   7  140.02    2.66
  -3   0   7  136.22    3.17
  -3   0   7  139.97    2.81
   3   0  -7  142.61    2.75
  -3   0   7  137.78    2.65
  -2   0   7    0.08    0.13
   2   0  -7   -0.09    0.20
  -2   0   7    0.00    0.17
  -2   0   7    0.01    0.19
  -2   0   7    0.00    0.19
  -1   0   7    8.63    0.44
  -1   0   7    8.08    0.47
   1   0  -7    8.15    0.46
  -1   0   7    8.79    0.44
   0   0   7    0.08    0.17
   0   0  -7   -0.10    0.23
   0   0   7   -0.08    0.18
   0   0   7   -0.15    0.20
   0   0  -7   -0.01    0.19
   0   0   7   -0.02    0.20
   1   0   7    5.03    0.44
   1   0   7    5.87    0.41
   1   0   7    5.16    0.44
  -1   0  -7    5.34    0.45
  -2   0  -7   -0.02    0.23
  -2   0  -7   -0.16    0.31
   2   0   7    0.00    0.23
  -2   0  -7   -0.30    0.24
   2   0   7   -0.16    0.24
   2   0   7   -0.25    0.24
   3   0   7    0.39    0.34
  -3   0  -7   -0.37    0.38
  -3   0  -7   -0.03    0.28
   3   0   7    0.27    0.38
  -3   0  -7   -0.10    0.32
   3   0   7    0.15    0.28
   4   0   7   -0.33    0.34
  -4   0  -7    0.08    0.35
  -4   0  -7   -0.66    0.43
   4   0   7    0.24    0.35
  -4   0  -7    0.10    0.36
   5   0   7    0.93    0.38
   5   0   7    1.64    0.52
  -5   0  -7    0.86    0.47
   5   0   7    0.53    0.41
   5   0   7    0.92    0.42
  -5   0  -7    1.37    0.51
   6   0   7    0.56    0.44
  -6   0  -7    0.97    0.88
   6   0   7    0.82    0.48
   7   0   7   11.25    0.92
   7   0   7    9.59    1.17
   8   0   7    1.13    0.83
   9   0   7   38.90    2.17
  11  -1  -7    6.34    1.46
 -11  -1   7    1.98    1.30
 -11  -1   7    3.99    0.97
  11   1  -7    6.09    1.25
  10  -1  -7    0.02    1.03
 -10  -1   7   -1.64    0.97
 -10  -1   7   -0.16    0.65
  10   1  -7   -0.17    0.91
  -9  -1   7   11.17    1.70
   9  -1  -7   11.37    1.52
   9   1  -7   10.98    1.10
   9   1  -7    9.94    1.91
  -9   1   7   13.17    1.33
   8  -1  -7    2.19    0.67
   8   1  -7    3.38    0.68
  -8   1   7    3.95    0.54
   8   1  -7    5.25    0.85
   7  -1  -7   13.07    0.97
   7  -1  -7   13.17    0.81
   7   1  -7   12.22    0.99
   7   1  -7   13.01    0.97
  -7   1   7   13.76    1.01
  -7   1   7   14.44    0.82
   6  -1  -7   89.45    2.52
  -6  -1   7   88.40    2.06
  -6  -1   7   91.62    2.02
   6  -1  -7   90.24    2.06
  -6   1   7   87.81    2.27
   6   1  -7   87.71    2.00
  -6   1   7   87.07    2.29
   6   1  -7   87.11    2.49
   6   1  -7   89.01    2.35
   5  -1  -7    3.33    0.77
  -5  -1   7    4.21    0.38
   5  -1  -7    3.77    0.43
  -5  -1   7    3.52    0.46
  -5  -1   7    3.91    0.55
   5   1  -7    3.52    0.70
   5   1  -7    3.26    0.44
  -5   1   7    4.09    0.56
   5   1  -7    4.70    0.55
  -5   1   7    3.63    0.80
  -5   1   7    3.54    0.56
   4  -1  -7    7.94    0.39
   4  -1  -7    8.62    0.67
  -4   1   7    8.11    0.63
  -4   1   7    7.94    0.54
  -4   1   7    7.69    0.58
   4   1  -7    6.98    0.57
   4   1  -7    7.02    0.50
   4   1  -7    7.45    0.61
  -4   1   7    7.96    0.47
   3  -1  -7    1.41    0.31
   3   1  -7    1.64    0.33
  -3   1   7    1.24    0.35
   3   1  -7    1.87    0.28
  -3   1   7    1.73    0.26
   3   1  -7    1.59    0.35
  -3   1   7    1.51    0.24
   3   1  -7    1.61    0.28
  -3   1   7    1.57    0.30
   2  -1  -7   17.66    0.91
  -2  -1   7   16.55    0.68
  -2   1   7   16.67    0.63
   2   1  -7   16.69    0.68
  -2   1   7   17.17    0.66
   2   1  -7   17.90    0.68
   2   1  -7   17.19    0.73
  -2   1   7   17.72    0.69
  -2   1   7   17.75    0.76
  -1  -1   7    0.84    0.23
  -1  -1   7    0.67    0.22
  -1  -1   7    0.93    0.15
   1  -1  -7    0.63    0.24
  -1  -1   7    1.00    0.23
   1   1  -7    1.02    0.25
   1   1  -7    0.83    0.25
  -1   1   7    1.04    0.24
  -1   1   7    1.00    0.27
  -1   1   7    0.78    0.18
  -1   1   7    0.84    0.22
  -1   1   7    0.92    0.18
   1   1  -7    1.00    0.25
   0  -1   7   61.04    1.42
   0  -1  -7   60.93    1.55
   0  -1   7   61.76    1.71
   0   1  -7   60.68    1.62
   0   1   7   59.63    1.59
   0   1   7   60.72    1.59
   0   1  -7   60.80    1.60
   0   1  -7   63.44    1.24
   0   1   7   60.86    1.39
   0   1   7   61.32    1.72
  -1  -1  -7    6.42    0.53
   1  -1   7    6.89    0.46
   1  -1   7    7.04    0.54
  -1  -1  -7    7.07    0.71
  -1  -1  -7    7.00    0.51
   1  -1   7    6.96    0.54
   1   1   7    6.68    0.52
   1   1   7    6.88    0.51
   1   1   7    7.51    0.48
  -1   1  -7    7.04    0.56
  -2  -1  -7   14.84    0.81
  -2  -1  -7   14.18    0.71
   2  -1   7   14.34    0.78
   2  -1   7   14.35    0.75
  -2  -1  -7   14.62    0.76
   2  -1   7   14.73    0.71
   2   1   7   14.01    0.71
  -2   1  -7   14.93    0.77
   2   1   7   14.18    0.78
   2   1   7   13.19    0.86
   2   1   7   14.49    0.67
  -3  -1  -7   28.27    1.06
   3  -1   7   26.37    1.34
   3  -1   7   30.39    1.15
   3  -1   7   29.88    1.15
  -3  -1  -7   28.88    1.19
   3   1   7   29.43    1.16
   3   1   7   28.39    0.99
  -3   1  -7   28.98    1.11
  -3   1  -7   27.15    1.37
   3   1   7   28.86    1.19
   3   1   7   29.64    1.17
  -4  -1  -7    2.08    0.44
   4  -1   7    1.32    0.42
   4  -1   7    2.08    0.46
  -4  -1  -7    1.62    0.50
  -4   1  -7    1.77    0.62
   4   1   7    1.13    0.34
   4   1   7    1.59    0.48
   4   1   7    2.28    0.46
  -4   1  -7    1.83    0.48
   4   1   7    1.64    0.42
   5  -1   7    5.48    0.68
   5  -1   7    5.07    0.68
  -5  -1  -7    8.31    1.00
  -5  -1  -7    6.34    0.97
   5  -1   7    7.32    0.69
   5   1   7    6.47    0.63
   5   1   7    6.78    0.72
  -5   1  -7    5.78    0.95
   5   1   7    6.31    0.92
   6  -1   7    2.23    0.57
  -6  -1  -7    0.26    0.78
  -6  -1  -7    0.58    0.62
   6  -1   7    2.03    0.52
   6   1   7    2.07    0.56
   6   1   7    2.01    0.48
  -7  -1  -7   -0.48    0.76
   7  -1   7    0.61    0.71
   7  -1   7    0.46    0.56
   7   1   7    0.13    0.70
   7   1   7    1.58    0.61
   8  -1   7    0.72    0.76
   8   1   7   -0.07    0.80
   8   1   7    0.83    0.86
   9  -1   7    4.36    1.03
   9   1   7    4.15    1.06
 -11  -2   7   -0.56    0.83
 -11  -2   7    0.90    1.52
  11  -2  -7   -0.86    1.36
  11   2  -7    0.45    1.20
  11   2  -7    0.47    1.35
 -10  -2   7    5.06    0.86
  10  -2  -7    4.37    1.14
 -10  -2   7    4.50    1.48
  10   2  -7    2.38    1.75
  10   2  -7    5.52    1.10
 -10   2   7    4.18    1.05
   9  -2  -7    9.56    1.38
  -9  -2   7   11.41    1.70
  -9  -2   7   10.64    1.14
   9   2  -7   10.90    1.47
   9   2  -7   12.52    1.48
   8  -2  -7   -0.23    0.68
  -8  -2   7    0.23    0.71
  -8  -2   7    0.29    0.39
  -8   2   7    1.30    0.56
   8   2  -7   -0.75    0.63
   8   2  -7    0.44    0.61
  -7  -2   7    2.33    0.57
  -7  -2   7    3.39    0.51
   7  -2  -7    2.23    0.55
   7   2  -7    3.32    0.53
   7   2  -7    2.53    0.55
  -7   2   7    2.42    0.70
   7   2  -7    3.31    0.56
  -7   2   7    2.87    0.49
   6  -2  -7    8.30    0.80
  -6  -2   7    9.65    0.75
  -6  -2   7    9.40    0.90
  -6  -2   7    9.46    0.64
  -6  -2   7    9.01    0.51
   6   2  -7   10.06    0.77
   6   2  -7    8.84    0.69
  -6   2   7    7.72    0.92
   6   2  -7    8.59    0.84
   6   2  -7    8.47    0.79
  -5  -2   7   24.51    0.73
   5  -2  -7   24.30    1.17
  -5  -2   7   25.33    1.38
  -5  -2   7   23.76    0.75
   5   2  -7   23.90    0.91
   5   2  -7   25.32    1.03
  -5   2   7   25.39    1.22
   5   2  -7   24.07    1.19
  -5   2   7   24.15    1.03
  -4  -2   7    1.88    0.45
  -4   2   7    1.32    0.37
  -4   2   7    2.33    0.33
   4   2  -7    2.21    0.40
   4   2  -7    2.37    0.43
   4   2  -7    1.88    0.42
  -4   2   7    2.11    0.45
   4   2  -7    1.93    0.42
  -3  -2   7    0.45    0.28
   3  -2  -7    0.13    0.33
  -3   2   7    0.10    0.48
   3   2  -7    0.33    0.28
   3   2  -7    0.35    0.27
   3   2  -7    0.72    0.31
  -3   2   7    0.37    0.25
  -3   2   7    0.39    0.27
   3   2  -7    0.33    0.26
  -3   2   7    0.34    0.32
  -2  -2   7    1.65    0.26
  -2  -2   7    1.94    0.22
   2  -2  -7    1.69    0.56
  -2  -2   7    2.00    0.35
  -2  -2   7    2.07    0.33
   2  -2  -7    1.83    0.38
  -2   2   7    1.68    0.38
   2   2  -7    1.86    0.28
   2   2  -7    1.58    0.33
  -2   2   7    1.28    0.37
  -2   2   7    1.74    0.30
   2   2  -7    2.46    0.46
  -1  -2   7   23.83    0.93
  -1  -2   7   25.21    0.79
   1  -2  -7   24.64    1.00
  -1  -2   7   24.10    0.76
  -1  -2   7   24.08    0.71
   1   2  -7   25.46    0.98
  -1   2   7   24.60    0.92
   1   2  -7   24.91    0.95
  -1   2   7   24.89    0.92
  -1   2   7   23.71    0.98
   1   2  -7   24.44    0.97
   0  -2  -7   21.31    0.88
   0  -2   7   20.47    0.89
   0  -2   7   20.42    0.79
   0  -2   7   19.48    0.72
   0   2   7   21.48    0.87
   0   2   7   20.68    0.90
   0   2   7   20.60    0.88
   0   2   7   21.40    0.71
   0   2  -7   21.69    0.91
  -1  -2  -7   13.73    0.83
   1  -2   7   12.79    0.73
   1  -2   7   12.70    0.75
   1  -2   7   13.81    0.81
  -1  -2  -7   12.17    0.80
   1  -2   7   13.37    0.67
   1   2   7   12.36    0.85
  -1   2  -7   13.26    0.76
   1   2   7   11.80    0.75
  -1   2  -7   12.87    0.79
   1   2   7   13.16    0.64
   1   2   7   13.68    0.73
  -2  -2  -7   53.09    1.63
   2  -2   7   50.85    1.69
  -2  -2  -7   53.40    1.67
   2  -2   7   52.96    1.55
   2  -2   7   53.49    1.81
  -2   2  -7   53.24    1.61
   2   2   7   53.54    1.52
   2   2   7   50.40    1.71
  -2   2  -7   53.49    1.67
   2   2   7   52.07    1.50
  -3  -2  -7   35.21    1.36
   3  -2   7   36.88    1.36
   3  -2   7   34.17    1.43
   3  -2   7   35.32    1.33
  -3  -2  -7   37.66    1.44
   3   2   7   37.09    1.39
   3   2   7   36.44    1.18
  -3   2  -7   34.41    1.67
   3   2   7   34.45    1.34
   4  -2   7    4.84    0.65
   4  -2   7    6.55    0.97
   4  -2   7    5.95    0.73
  -4  -2  -7    8.17    1.28
  -4  -2  -7    6.82    0.85
   4   2   7    5.59    0.78
   4   2   7    6.23    0.78
  -4   2  -7    5.64    0.92
   4   2   7    6.33    0.60
   5  -2   7    6.56    0.75
  -5  -2  -7    5.00    0.67
   5  -2   7    3.44    0.68
  -5  -2  -7    5.12    0.76
   5  -2   7    4.22    0.69
   5   2   7    4.39    0.62
   5   2   7    5.42    0.72
  -5   2  -7    4.96    0.70
   6  -2   7    6.35    0.85
  -6  -2  -7    9.64    1.21
  -6  -2  -7    9.86    1.24
   6  -2   7    7.62    1.02
   6  -2   7    9.92    0.82
  -6   2  -7    8.52    1.12
   6   2   7    8.02    0.96
   6   2   7    8.24    1.08
  -7  -2  -7    2.66    0.87
   7   2   7    1.37    0.72
  -8  -2  -7   -1.10    1.27
   8  -2   7    0.82    0.88
   8   2   7   -0.40    0.92
   9  -2   7    2.27    1.22
   9   2   7   -0.26    1.13
 -10  -3   7    2.59    1.33
  10  -3  -7    0.50    1.18
 -10   3   7   -0.06    1.19
  10   3  -7   -1.12    1.09
   9  -3  -7    0.98    0.99
  -9  -3   7   -0.49    0.54
  -9  -3   7    0.65    1.91
   9   3  -7    0.95    0.88
  -9   3   7   -0.29    0.91
   8  -3  -7    2.05    0.88
  -8   3   7    2.42    0.85
  -8   3   7    2.81    0.88
   8   3  -7    2.95    0.80
  -7  -3   7    1.05    0.35
   7  -3  -7    0.57    0.60
  -7  -3   7   -0.13    0.62
   7   3  -7   -0.62    0.55
  -7   3   7   -0.44    0.71
   7   3  -7    0.60    0.51
  -7   3   7    0.71    0.58
   7   3  -7    1.23    0.59
  -6  -3   7    2.12    0.42
  -6  -3   7    1.48    0.53
   6  -3  -7    1.39    0.52
  -6   3   7    2.11    0.65
   6   3  -7    1.22    0.48
   6   3  -7    1.02    0.51
   6   3  -7    2.07    0.48
  -6   3   7    2.73    0.48
  -5  -3   7    2.32    0.28
   5  -3  -7    3.13    0.51
  -5  -3   7    2.52    0.41
  -5  -3   7    2.65    0.80
   5   3  -7    1.91    0.42
  -5   3   7    2.46    0.48
  -5   3   7    2.20    0.56
   5   3  -7    2.48    0.48
   5   3  -7    1.88    0.46
  -4  -3   7    4.15    0.39
  -4  -3   7    4.30    0.48
   4  -3  -7    4.22    0.70
   4   3  -7    4.44    0.72
  -4   3   7    4.83    0.78
   4   3  -7    3.73    0.58
  -4   3   7    4.40    0.61
  -4   3   7    4.60    0.76
   4   3  -7    4.14    0.52
  -3  -3   7  127.26    2.61
  -3  -3   7  130.97    3.06
   3  -3  -7  135.74    3.32
  -3  -3   7  129.21    2.61
  -3   3   7  133.50    3.25
   3   3  -7  129.41    3.03
  -3   3   7  129.05    2.85
   3   3  -7  130.43    3.39
  -3   3   7  132.75    3.13
  -2  -3   7  178.69    3.93
   2  -3  -7  175.17    4.40
   2  -3  -7  183.09    3.86
  -2  -3   7  172.84    3.45
  -2   3   7  173.44    3.86
  -2   3   7  173.60    4.25
   2   3  -7  177.46    3.87
  -2   3   7  172.64    3.72
  -1  -3   7   59.51    1.50
  -1  -3   7   59.29    2.51
   1  -3  -7   60.24    1.75
   1  -3  -7   60.15    2.62
  -1   3   7   58.99    1.74
  -1   3   7   53.22    2.29
  -1   3   7   61.04    1.32
  -1   3   7   58.00    1.72
   1   3  -7   61.01    1.83
   0  -3  -7    0.99    0.41
   0  -3   7    0.16    0.42
   0  -3  -7    0.82    0.74
   0  -3   7    0.05    0.29
   0   3   7    0.20    0.39
   0   3   7    0.68    0.34
   0   3  -7   -0.54    0.43
   0   3   7    0.39    0.46
   0   3   7    0.37    0.32
   0   3  -7    0.59    0.68
   1  -3   7    1.34    0.35
  -1  -3  -7    1.20    0.68
   1  -3   7    1.99    0.45
  -1  -3  -7    1.06    0.43
   1   3   7    0.50    0.44
   1   3   7    1.71    0.37
   1   3   7    1.47    0.42
  -1   3  -7    1.50    0.48
   1   3   7    1.42    0.39
  -1   3  -7    1.47    0.68
   2  -3   7    2.83    0.48
   2  -3   7    2.96    0.54
   2  -3   7    2.60    0.48
  -2  -3  -7    3.74    0.61
  -2  -3  -7    2.50    0.48
   2   3   7    4.26    0.67
   2   3   7    3.31    0.50
   2   3   7    2.94    0.51
  -2   3  -7    2.60    0.55
  -2   3  -7    3.14    0.52
  -3  -3  -7    0.47    0.50
  -3  -3  -7   -0.63    0.48
   3  -3   7   -0.01    0.38
   3  -3   7    0.44    0.38
   3  -3   7    0.86    0.38
   3   3   7    0.63    0.59
   3   3   7   -0.27    0.52
  -3   3  -7    0.18    0.47
   3   3   7    0.56    0.43
   3   3   7    0.32    0.53
  -3   3  -7    0.24    0.44
   4  -3   7    1.87    0.47
  -4  -3  -7    2.95    0.57
   4  -3   7    1.87    0.50
   4  -3   7    2.58    0.46
  -4  -3  -7    3.29    0.68
   4   3   7    2.30    0.51
   4   3   7    3.88    0.59
  -4   3  -7    2.19    0.54
   4   3   7    2.62    0.51
  -5  -3  -7    1.62    0.63
   5  -3   7    2.17    0.49
   5  -3   7    2.15    0.55
  -5  -3  -7    3.39    0.68
   5  -3   7    1.10    0.54
   5   3   7    2.43    0.60
  -5   3  -7    2.01    0.64
   5   3   7    3.09    0.67
   6  -3   7    5.79    0.87
  -6  -3  -7    4.73    0.90
   6  -3   7    3.35    0.77
  -6  -3  -7    5.00    0.90
  -6   3  -7    3.74    0.85
   6   3   7    4.10    0.84
  -7  -3  -7    3.03    1.24
   7   3   7    3.27    0.98
   7   3   7    2.54    1.55
  -8  -3  -7   10.02    1.39
   8  -3   7    9.93    1.47
   8   3   7    8.26    1.19
   8   3   7    9.51    1.45
   9  -3   7   -1.60    1.22
   9   3   7    1.09    1.71
 -10  -4   7    0.67    1.72
 -10  -4   7    1.07    0.91
 -10   4   7    0.35    1.50
  -9  -4   7    8.30    1.84
   9  -4  -7    8.77    1.38
  -9  -4   7    5.74    0.80
  -9   4   7    5.98    1.23
   9   4  -7    4.75    1.09
  -8  -4   7   27.90    1.42
  -8  -4   7   33.10    2.16
   8  -4  -7   32.69    2.17
   8   4  -7   29.00    1.95
  -8   4   7   30.96    2.17
   8   4  -7   26.42    2.09
   7  -4  -7    0.21    0.79
  -7  -4   7    1.68    0.87
  -7  -4   7   -0.01    0.58
  -7   4   7   -0.43    0.73
   7   4  -7    0.14    0.76
  -7   4   7   -1.63    1.24
  -6  -4   7   -0.37    0.71
   6  -4  -7   -0.17    0.65
  -6  -4   7    0.42    0.36
  -6   4   7    0.04    0.59
   6   4  -7   -1.23    0.64
   6   4  -7    0.25    0.55
  -6   4   7   -0.14    0.63
  -5  -4   7   -0.09    0.52
   5  -4  -7    1.37    0.56
   5   4  -7   -0.08    0.54
   5   4  -7   -0.08    0.48
   5   4  -7   -0.36    0.58
  -5   4   7    1.20    0.52
  -5   4   7    0.27    0.52
  -4  -4   7    6.03    0.91
  -4  -4   7    7.13    0.55
   4  -4  -7    7.24    0.95
   4   4  -7    6.52    0.82
   4   4  -7    9.32    0.83
   4   4  -7    8.60    0.83
  -4   4   7    6.52    0.84
  -4   4   7    8.24    0.94
  -4   4   7    5.97    0.90
   3  -4  -7    7.80    0.92
  -3  -4   7    7.15    0.73
   3   4  -7    5.27    0.76
   3   4  -7    8.16    0.79
  -3   4   7    7.26    0.79
  -3   4   7    7.60    0.88
  -3   4   7    5.23    1.08
  -2  -4   7   -0.36    0.43
  -2  -4   7    0.85    0.41
   2  -4  -7   -0.70    0.46
  -2  -4   7    0.47    0.26
   2   4  -7   -0.66    0.42
   2   4  -7    0.19    0.43
   2   4  -7   -0.52    0.38
  -2   4   7    0.39    0.53
  -2   4   7    0.21    0.42
  -1  -4   7    3.28    0.50
  -1  -4   7    4.52    0.71
   1  -4  -7    4.71    0.99
  -1  -4   7    4.04    0.49
   1  -4  -7    4.14    0.62
  -1   4   7    2.77    0.54
   1   4  -7    4.04    0.64
   1   4  -7    3.93    0.66
  -1   4   7    4.39    0.74
  -1   4   7    3.58    0.51
   1   4  -7    2.88    0.50
   0  -4  -7   15.27    1.11
   0  -4   7   16.26    0.93
   0  -4  -7   16.08    1.06
   0  -4   7   15.30    0.77
   0   4   7   14.17    0.96
   0   4   7   14.03    1.02
   0   4   7   13.91    0.93
   0   4  -7   15.66    0.93
   0   4  -7   14.83    0.96
   1  -4   7    5.43    0.68
   1  -4   7    3.42    0.64
  -1  -4  -7    5.46    0.82
  -1  -4  -7    3.84    0.65
   1   4   7    5.10    0.77
   1   4   7    4.39    0.61
   1   4   7    4.43    0.72
  -1   4  -7    3.65    0.54
  -1   4  -7    4.82    0.72
   1   4   7    4.42    0.62
  -2  -4  -7    1.73    0.61
   2  -4   7    1.48    0.44
   2  -4   7    2.56    0.41
  -2   4  -7    2.21    0.54
   2   4   7    2.74    0.50
   2   4   7    1.93    0.51
  -2   4  -7    2.22    0.49
  -3  -4  -7    0.37    0.59
  -3  -4  -7    0.16    0.70
   3  -4   7    0.08    0.46
   3  -4   7    0.23    0.43
   3  -4   7   -0.06    0.46
  -3   4  -7    1.04    0.52
   3   4   7   -0.26    0.49
  -3   4  -7    1.84    0.75
  -4  -4  -7   32.30    1.66
   4  -4   7   31.67    1.54
   4  -4   7   34.07    1.47
   4  -4   7   34.75    1.41
  -4  -4  -7   29.13    1.71
   4   4   7   31.68    1.64
   4   4   7   35.89    1.58
  -4   4  -7   32.70    1.48
  -4   4  -7   33.86    1.68
   5  -4   7   30.55    1.50
  -5  -4  -7   26.05    1.69
  -5  -4  -7   29.02    2.45
   5  -4   7   29.30    1.32
   5   4   7   27.93    1.67
  -5   4  -7   26.75    1.70
   5   4   7   27.43    2.55
  -6  -4  -7    0.39    0.99
   6  -4   7    0.07    0.76
  -6   4  -7   -0.01    1.02
   6   4   7    1.30    0.86
   6   4   7    1.12    1.02
  -7  -4  -7   -0.42    1.20
   7  -4   7   -0.02    0.84
   7   4   7    0.46    0.96
   7   4   7    1.44    1.07
  -8  -4  -7    2.95    1.45
   8  -4   7    2.02    1.16
   8   4   7   -0.37    1.34
   8   4   7   -0.55    1.30
   9  -5  -7    3.10    1.62
  -9  -5   7    1.64    1.77
  -9  -5   7    3.30    0.96
   9   5  -7    0.98    1.42
  -8  -5   7    0.22    0.67
  -8  -5   7    0.41    1.23
   8  -5  -7    1.69    1.16
   8   5  -7   -1.32    1.07
   8   5  -7   -0.49    1.70
  -8   5   7    0.60    1.34
   7  -5  -7    6.61    1.16
  -7  -5   7    6.73    1.08
  -7  -5   7    7.77    1.27
   7   5  -7   10.17    1.50
  -7   5   7    6.53    1.18
  -7   5   7    5.32    1.14
   7   5  -7    6.46    1.12
   6  -5  -7    1.28    1.62
  -6  -5   7    1.66    1.40
  -6  -5   7    0.78    0.53
  -6   5   7   -0.59    0.81
   6   5  -7    0.84    0.91
   6   5  -7    0.99    0.84
  -5  -5   7    9.99    1.38
   5  -5  -7    9.65    1.41
  -5  -5   7   10.31    1.03
  -5   5   7   11.62    1.39
   5   5  -7    9.05    1.28
   5   5  -7   15.19    1.56
  -5   5   7   13.62    1.38
  -4  -5   7    0.55    0.69
   4  -5  -7    0.14    0.75
  -4  -5   7   -0.29    0.39
   4   5  -7    0.46    0.94
  -4   5   7    1.31    0.70
   4   5  -7    0.48    0.66
   4   5  -7    0.75    0.56
  -4   5   7   -0.26    0.66
   3  -5  -7    1.60    0.68
  -3  -5   7    2.58    0.68
  -3  -5   7    1.77    0.43
  -3  -5   7    2.59    0.64
   3   5  -7    1.09    0.65
  -3   5   7    3.01    0.79
   3   5  -7    1.76    0.61
  -3   5   7    1.51    0.64
  -3   5   7    1.49    0.61
  -2  -5   7    1.64    0.75
  -2  -5   7    2.03    0.40
   2  -5  -7    0.66    0.89
  -2  -5   7    1.34    0.69
   2   5  -7    1.97    0.69
   2   5  -7    0.72    0.57
  -2   5   7    1.53    0.57
  -2   5   7    2.42    0.57
   2   5  -7    2.23    0.62
  -1  -5   7    0.27    0.37
   1  -5  -7    1.58    0.61
  -1  -5   7    1.23    0.51
   1   5  -7    0.81    0.56
  -1   5   7    0.97    0.54
   1   5  -7    1.22    0.54
   1   5  -7    1.01    0.53
  -1   5   7    1.10    0.52
   0  -5  -7    0.15    0.62
   0  -5   7   -0.21    0.38
   0  -5   7   -0.65    0.48
   0   5  -7    0.54    0.53
   0   5  -7    0.26    0.50
   0   5   7    0.06    0.56
   0   5   7    0.37    0.58
   1  -5   7    8.62    0.98
   1  -5   7    9.96    1.03
  -1  -5  -7    9.09    1.13
  -1   5  -7    9.50    1.08
   1   5   7   11.46    1.19
   1   5   7   11.11    1.52
   1   5   7   11.07    0.97
  -1   5  -7   11.14    1.07
  -2  -5  -7    5.66    0.92
   2  -5   7    6.37    0.91
   2  -5   7    4.68    0.72
  -2   5  -7    4.10    0.80
  -2   5  -7    5.78    0.99
   2   5   7    4.71    0.82
   3  -5   7    0.76    0.58
  -3  -5  -7    2.04    0.88
   3  -5   7    1.09    0.58
  -3   5  -7    1.87    0.83
  -3   5  -7    0.18    0.68
   3   5   7    0.31    0.74
   3   5   7    1.78    0.76
   3   5   7    1.87    0.60
   4  -5   7    7.44    1.12
   4  -5   7    5.61    0.87
   4   5   7   10.49    1.52
   4   5   7    9.95    1.40
  -4   5  -7    6.67    1.54
  -4   5  -7    6.92    1.04
  -5  -5  -7    2.23    1.08
   5  -5   7   -1.07    0.82
   5  -5   7    1.10    0.85
   5  -5   7   -1.16    0.76
   5   5   7    0.28    0.87
  -5   5  -7   -0.69    1.03
   6  -5   7    3.88    1.04
  -6  -5  -7    2.91    1.23
   6   5   7    2.47    1.07
  -6   5  -7    2.26    1.26
   6   5   7    1.75    2.25
   7  -5   7   -0.93    1.08
  -7  -5  -7   -1.23    1.51
  -7   5  -7    1.02    2.14
   7   5   7   -0.84    1.39
   7   5   7    0.92    1.17
  -7  -6   7    0.13    0.94
  -7  -6   7    2.07    1.37
   7  -6  -7    1.45    1.32
   7   6  -7    2.47    1.19
   7   6  -7   -1.38    1.09
  -7   6   7    0.54    1.21
  -6  -6   7    0.97    0.67
   6  -6  -7    3.14    1.20
   6   6  -7    1.62    1.35
  -6   6   7   -0.27    1.46
   5  -6  -7    0.82    1.06
  -5  -6   7    0.60    0.63
  -5  -6   7    1.00    1.24
   5   6  -7    0.73    0.89
  -5   6   7   -0.32    0.96
   5   6  -7   -1.58    1.39
  -4  -6   7    5.54    0.74
  -4  -6   7    7.44    1.15
   4  -6  -7    5.30    1.17
  -4  -6   7    5.24    2.14
  -4   6   7    4.88    1.03
   4   6  -7    4.89    0.88
   4   6  -7    5.38    1.05
   4   6  -7    5.48    0.94
   3  -6  -7    3.59    1.10
  -3  -6   7    1.78    1.10
  -3  -6   7    1.80    0.60
  -3  -6   7    2.37    0.93
   3   6  -7    2.72    0.81
   3   6  -7    1.88    0.81
  -3   6   7    2.49    0.94
   3   6  -7    2.11    0.90
  -3   6   7    2.21    1.13
  -2   6   7   -0.17    0.81
   2   6  -7   -0.49    0.80
   2   6  -7    1.20    1.28
  -1  -6   7   11.65    1.37
   1   6  -7   14.06    1.42
  -1   6   7   13.45    1.45
  -1   6   7   14.84    1.51
   0  -6   7    0.65    0.63
   0   6  -7    0.22    1.23
   0   6  -7    1.12    0.96
   0   6   7    1.08    0.84
   0   6   7    0.51    0.79
   1  -6   7    0.55    1.05
  -1  -6  -7    1.25    0.97
   1  -6   7    0.31    0.71
  -1   6  -7    0.22    1.14
   1   6   7   -1.02    0.80
  -1   6  -7    1.10    0.83
   2  -6   7    1.44    0.80
  -2  -6  -7    2.97    1.04
   2   6   7    2.85    0.94
  -2   6  -7    3.88    1.00
   2   6   7    5.52    1.05
   3  -6   7    0.59    0.85
  -3  -6  -7    0.76    1.10
   3  -6   7    0.49    0.82
   3  -6   7   -1.39    0.83
   3   6   7    1.18    0.92
  -3   6  -7   -1.28    1.02
  -3   6  -7    0.37    1.16
   4  -6   7   -1.01    0.95
   4  -6   7    1.07    1.02
  -4  -6  -7    0.05    1.45
   4  -6   7   -0.02    0.90
  -4   6  -7   -0.48    1.34
   4   6   7    0.92    1.88
   4   6   7    0.98    1.00
  -4   6  -7    0.63    1.09
   5  -6   7   -0.48    0.97
  -5   6  -7    2.08    1.26
   5   6   7    2.31    1.71
   5   6   7    2.39    1.16
  -6  -6  -7   10.64    2.04
   6   6   7    8.74    2.02
  -6   6  -7    6.90    1.77
   5  -7  -7   18.96    2.70
  -5  -7   7   21.21    2.31
  -5  -7   7   22.10    1.79
  -5   7   7   19.74    2.56
   5   7  -7   18.84    2.18
   5   7  -7   17.80    2.56
  -4  -7   7    2.65    0.78
  -4  -7   7    0.71    1.13
   4  -7  -7    3.53    1.30
  -4   7   7    0.29    1.22
   4   7  -7    0.43    1.04
   4   7  -7    2.25    1.21
  -3  -7   7    1.18    0.70
  -3  -7   7   -0.31    1.09
   3  -7  -7   -0.12    1.24
  -3   7   7    1.51    1.65
   3   7  -7    1.11    1.15
   3   7  -7    0.47    1.06
   3   7  -7   -1.06    0.98
  -2  -7   7   -0.49    0.82
   2  -7  -7   -0.18    1.23
  -2  -7   7   -1.13    1.11
   2   7  -7   -1.25    0.96
  -2   7   7    2.36    1.49
  -2   7   7    3.11    1.52
   2   7  -7   -1.11    1.10
   2   7  -7    0.02    1.07
  -1  -7   7    1.26    1.17
   1  -7  -7    2.83    1.35
  -1  -7   7    0.76    0.92
  -1   7   7   -0.26    1.08
  -1   7   7   -1.10    1.09
   1   7  -7    0.85    1.16
   1   7  -7   -0.81    0.97
   0  -7   7   -0.10    0.78
   0  -7   7    0.88    0.97
   0  -7  -7   -0.46    1.20
   0   7  -7    0.74    1.03
   0   7  -7   -0.13    0.99
   0   7   7    0.07    1.09
   0   7   7   -1.31    1.07
   1  -7   7   22.01    2.45
   1  -7   7   24.72    3.09
  -1  -7  -7   23.47    2.36
  -1   7  -7   22.40    1.96
  -1   7  -7   25.54    2.14
   1   7   7   23.90    2.64
   1   7   7   23.66    2.08
   2  -7   7    8.22    1.10
  -2  -7  -7    8.33    1.82
   2  -7   7    8.55    1.21
   2   7   7    7.80    1.20
  -2   7  -7    7.28    1.34
   2   7   7    9.35    1.35
  -2   7  -7    9.03    1.47
   3  -7   7    1.37    1.14
   3  -7   7    1.55    1.13
  -3  -7  -7    0.59    1.51
   3  -7   7    1.45    1.17
  -3   7  -7    2.41    1.59
  -3   7  -7    2.82    1.35
   3   7   7    0.82    1.28
   4  -7   7    4.58    1.40
  11   0  -8    1.03    1.23
 -11   0   8   -0.06    1.20
  10   0  -8    7.79    1.19
   8   0  -8    4.94    0.65
   8   0  -8    5.23    0.78
  -8   0   8    4.61    0.57
  -7   0   8    0.17    0.46
   7   0  -8    0.17    0.45
   7   0  -8    0.29    0.69
  -7   0   8    0.54    0.54
  -6   0   8    0.22    0.37
  -6   0   8   -0.19    0.44
   6   0  -8    0.28    0.38
  -6   0   8    0.27    0.23
   6   0  -8   -0.22    0.34
   5   0  -8   -0.20    0.37
   5   0  -8   -0.53    0.29
  -5   0   8   -0.07    0.30
  -5   0   8   -0.12    0.27
  -5   0   8   -0.13    0.27
   4   0  -8    3.04    0.51
  -4   0   8    3.02    0.41
  -4   0   8    2.33    0.38
   4   0  -8    3.19    0.76
  -4   0   8    2.44    0.39
  -4   0   8    2.93    0.35
  -3   0   8   -0.07    0.15
   3   0  -8   -0.05    0.24
  -3   0   8    0.33    0.23
  -3   0   8   -0.04    0.20
   3   0  -8   -0.15    0.28
  -3   0   8    0.06    0.25
   3   0  -8    0.13    0.21
  -3   0   8   -0.13    0.19
  -2   0   8    0.43    0.23
  -2   0   8    0.33    0.16
  -2   0   8    0.59    0.24
  -2   0   8    0.13    0.23
   2   0  -8    0.36    0.24
   2   0  -8    0.19    0.23
   1   0  -8   -0.11    0.21
  -1   0   8   -0.17    0.22
   1   0  -8   -0.23    0.23
  -1   0   8    0.07    0.20
  -1   0   8   -0.44    0.21
  -1   0   8    0.10    0.14
  -1   0   8   -0.15    0.19
   0   0  -8  149.20    3.25
   0   0   8  151.47    3.08
   0   0   8  151.11    3.11
   0   0   8  151.48    3.27
   0   0   8  146.98    3.22
   0   0   8  146.22    3.04
   0   0  -8  152.79    2.97
  -1   0  -8    0.23    0.23
   1   0   8   -0.02    0.25
   1   0   8   -0.15    0.19
  -1   0  -8   -0.11    0.26
   1   0   8    0.04    0.24
  -1   0  -8    0.06    0.32
   2   0   8    3.70    0.56
   2   0   8    4.41    0.51
   2   0   8    3.88    0.60
  -2   0  -8    3.74    0.55
  -2   0  -8    3.31    0.44
  -2   0  -8    3.59    0.61
  -3   0  -8    0.01    0.31
   3   0   8   -0.02    0.32
  -3   0  -8   -0.11    0.36
   3   0   8    0.36    0.41
  -3   0  -8   -0.58    0.43
   4   0   8    1.34    0.40
  -4   0  -8    0.93    0.40
   4   0   8    2.15    0.46
  -4   0  -8    2.10    0.50
   4   0   8    1.35    0.41
   4   0   8    0.41    0.41
   5   0   8    1.03    0.41
  -5   0  -8    0.01    0.57
   5   0   8   -0.20    0.44
   5   0   8    0.47    0.54
   5   0   8    0.03    0.45
   6   0   8    1.31    0.57
   6   0   8    1.26    0.51
   7   0   8   -0.05    0.98
   8   0   8   84.32    3.03
   9   0   8    0.04    1.09
 -11  -1   8    0.43    0.86
 -11  -1   8    1.77    1.35
  11  -1  -8   -1.22    1.21
  11   1  -8    0.84    1.22
 -10  -1   8   -1.08    0.97
 -10  -1   8    0.71    0.66
  10  -1  -8   -0.26    0.97
  10   1  -8    0.22    0.98
  10   1  -8    1.12    0.97
  -9  -1   8    2.86    1.17
   9   1  -8    2.30    0.73
   9   1  -8    3.50    1.26
   8  -1  -8   -0.38    0.61
   8   1  -8   -0.01    0.61
  -8   1   8   -0.28    0.45
   8   1  -8    0.88    0.53
   7  -1  -8    1.05    0.48
  -7   1   8    0.90    0.35
  -7   1   8   -0.34    0.60
   7   1  -8    1.22    0.49
   7   1  -8    0.13    0.44
   6  -1  -8   28.44    1.32
  -6  -1   8   29.91    1.00
  -6  -1   8   28.60    1.06
   6  -1  -8   30.55    0.98
  -6  -1   8   29.76    1.12
  -6   1   8   30.31    1.27
  -6   1   8   29.12    1.08
   6   1  -8   30.48    1.27
   6   1  -8   30.06    1.31
   5  -1  -8    0.38    0.26
  -5  -1   8    0.68    0.20
   5  -1  -8    0.40    0.37
  -5  -1   8    0.59    0.20
  -5  -1   8    0.48    0.33
   5   1  -8    0.85    0.77
   5   1  -8    0.48    0.31
   5   1  -8    0.15    0.35
  -5   1   8    0.77    0.38
   5   1  -8    0.85    0.28
  -5   1   8    0.39    0.26
  -4  -1   8   21.50    0.86
  -4  -1   8   20.58    0.88
   4  -1  -8   21.22    1.03
  -4   1   8   21.73    0.97
   4   1  -8   20.98    0.88
   4   1  -8   20.51    0.81
  -4   1   8   21.26    0.75
  -4   1   8   21.58    0.92
   4   1  -8   21.20    0.99
  -4   1   8   21.10    0.86
   4   1  -8   21.60    0.89
   3  -1  -8   19.54    0.90
  -3  -1   8   18.91    0.80
  -3   1   8   20.38    0.89
  -3   1   8   19.21    0.75
   3   1  -8   18.93    1.00
  -3   1   8   20.12    0.83
   3   1  -8   20.71    0.83
  -3   1   8   19.30    0.74
   3   1  -8   19.17    0.83
  -2  -1   8    6.08    0.29
  -2  -1   8    5.56    0.48
  -2  -1   8    5.95    0.32
   2  -1  -8    5.78    0.54
  -2  -1   8    6.02    0.48
   2   1  -8    6.04    0.52
  -2   1   8    6.18    0.55
   2   1  -8    5.63    0.46
   2   1  -8    6.01    0.48
  -2   1   8    5.70    0.51
  -2   1   8    5.25    0.53
  -2   1   8    6.25    0.45
   2   1  -8    5.41    0.48
  -1  -1   8    9.11    0.58
  -1  -1   8    8.51    0.40
  -1   1   8    9.71    0.65
  -1   1   8    9.29    0.45
  -1   1   8    9.11    0.84
  -1   1   8    8.97    0.52
  -1   1   8    8.62    0.58
   1   1  -8    9.22    0.47
   1   1  -8    8.95    0.60
   1   1  -8    8.81    0.58
   0  -1   8   20.61    0.87
   0  -1   8   20.23    0.82
   0  -1  -8   21.24    0.84
   0  -1  -8   20.13    0.82
   0  -1   8   20.54    0.72
   0   1  -8   19.36    0.87
   0   1   8   20.88    0.71
   0   1   8   21.04    0.82
   0   1   8   20.90    0.87
   0   1   8   21.01    1.12
   0   1  -8   21.11    0.91
   0   1  -8   20.77    0.56
   1  -1   8   -0.04    0.22
   1  -1   8    0.17    0.27
  -1  -1  -8   -0.09    0.27
  -1  -1  -8    0.12    0.32
  -1  -1  -8   -0.31    0.27
   1  -1   8    0.15    0.26
   1   1   8   -0.09    0.27
   1   1   8    0.17    0.24
   1   1   8    0.12    0.23
  -1   1  -8    0.33    0.30
   1   1   8   -0.41    0.22
  -2  -1  -8   43.39    1.41
   2  -1   8   44.70    1.40
   2  -1   8   42.58    1.43
   2  -1   8   44.30    1.45
  -2  -1  -8   44.66    1.39
   2   1   8   43.47    1.50
   2   1   8   43.06    1.40
   2   1   8   42.37    1.34
   2   1   8   43.69    1.35
  -2   1  -8   43.37    1.43
   3  -1   8   91.56    2.37
  -3  -1  -8   90.14    2.23
   3  -1   8   89.18    2.40
  -3  -1  -8   89.32    2.37
   3  -1   8   89.75    2.73
   3   1   8   87.79    2.19
   3   1   8   90.11    2.44
   3   1   8   87.14    2.48
  -3   1  -8   89.97    2.33
   3   1   8   87.11    2.34
  -4  -1  -8    3.21    0.58
  -4  -1  -8    3.36    0.55
   4  -1   8    2.26    0.56
   4  -1   8    3.18    0.48
   4  -1   8    3.04    0.51
   4   1   8    2.80    0.50
   4   1   8    2.57    0.43
   4   1   8    2.46    0.49
  -4   1  -8    2.05    0.63
   4   1   8    2.55    0.52
   5  -1   8   14.89    1.02
   5  -1   8   16.60    0.92
  -5  -1  -8   12.51    1.27
  -5   1  -8   15.86    1.27
   5   1   8   14.94    0.93
   5   1   8   16.20    1.00
   5   1   8   16.91    1.21
   5   1   8   16.04    0.98
   6  -1   8   11.32    0.94
   6  -1   8    7.20    0.98
  -6  -1  -8    9.51    1.26
   6   1   8   11.70    0.96
   6   1   8   10.17    1.08
   7  -1   8   -0.47    0.81
   7  -1   8    1.07    0.68
   7   1   8   -0.34    0.67
   8  -1   8    0.82    0.87
   8   1   8    1.75    1.01
   8   1   8    3.02    0.94
   9  -1   8    0.64    1.09
   9   1   8    1.46    1.15
  11  -2  -8   -1.52    1.38
 -11  -2   8   -1.53    0.83
 -11  -2   8    0.47    1.61
  11   2  -8   -0.32    1.35
  11   2  -8    4.60    2.02
 -10  -2   8   -0.48    0.60
  10  -2  -8    1.12    1.13
 -10  -2   8    0.80    1.13
 -10   2   8    0.12    0.93
  10   2  -8   -1.43    0.95
  10   2  -8   -1.55    0.96
  -9  -2   8    5.76    0.85
  -9  -2   8    5.11    1.32
   9  -2  -8    4.59    1.08
  -9   2   8    6.59    0.93
   9   2  -8    8.25    1.36
   9   2  -8    6.57    1.09
  -8  -2   8    0.98    0.77
  -8  -2   8    0.10    0.40
   8  -2  -8   -0.23    0.69
   8   2  -8    1.36    0.62
  -8   2   8    0.37    0.58
   8   2  -8    0.62    0.66
  -7  -2   8   24.54    1.38
  -7  -2   8   24.20    0.89
   7  -2  -8   23.88    1.38
   7   2  -8   25.24    1.49
   7   2  -8   27.03    1.21
   7   2  -8   23.44    1.15
  -7   2   8   25.13    1.38
  -6  -2   8    1.28    0.48
  -6  -2   8    1.58    0.22
  -6  -2   8    1.84    0.34
  -6  -2   8    1.04    0.46
   6  -2  -8    1.97    0.48
   6   2  -8    0.75    0.42
   6   2  -8    1.00    0.42
  -6   2   8    0.27    0.71
  -6   2   8    1.48    0.36
   6   2  -8    0.34    0.39
  -5  -2   8    7.62    0.85
  -5  -2   8    6.87    0.70
   5  -2  -8    5.82    0.81
   5   2  -8    7.47    0.69
   5   2  -8    6.99    0.84
  -5   2   8    6.97    0.67
   5   2  -8    7.42    0.64
  -5   2   8    8.30    0.84
   5   2  -8    8.06    0.79
  -4  -2   8    4.35    0.64
   4  -2  -8    4.08    0.66
  -4   2   8    4.33    0.52
   4   2  -8    4.26    0.61
   4   2  -8    6.35    0.73
  -4   2   8    3.97    0.65
   4   2  -8    4.21    0.57
   4   2  -8    4.19    0.56
   3  -2  -8   21.26    1.11
  -3  -2   8   21.53    0.93
  -3   2   8   20.65    0.82
  -3   2   8   21.48    1.10
   3   2  -8   22.69    0.97
   3   2  -8   22.38    1.00
   3   2  -8   20.18    0.88
   3   2  -8   21.02    0.94
  -3   2   8   21.90    0.96
  -2  -2   8    0.64    0.32
   2  -2  -8    0.58    0.37
  -2  -2   8    0.48    0.28
  -2  -2   8    0.47    0.18
  -2  -2   8    0.30    0.15
   2   2  -8    0.30    0.31
   2   2  -8   -0.04    0.31
  -2   2   8   -0.06    0.35
  -2   2   8    0.34    0.30
   2   2  -8    0.08    0.32
   2   2  -8    0.03    0.24
  -2   2   8    0.54    0.28
  -1  -2   8    0.44    0.27
  -1  -2   8    0.54    0.28
  -1  -2   8    0.49    0.18
  -1  -2   8    0.84    0.31
   1   2  -8    0.51    0.34
   1   2  -8    0.30    0.32
  -1   2   8    1.00    0.34
  -1   2   8    0.20    0.28
  -1   2   8    0.62    0.22
  -1   2   8    0.94    0.29
   0  -2   8    1.72    0.38
   0  -2   8    1.27    0.35
   0  -2   8    1.56    0.37
   0  -2   8    1.71    0.28
   0  -2  -8    1.73    0.37
   0  -2  -8    1.23    0.40
   0   2   8    1.37    0.38
   0   2  -8    1.86    0.40
   0   2   8    1.66    0.36
   0   2   8    1.69    0.30
   0   2  -8    1.70    0.40
   0   2   8    1.27    0.31
   1  -2   8   13.23    0.75
   1  -2   8    9.64    1.28
  -1  -2  -8   15.18    0.90
   1  -2   8   12.06    0.83
  -1  -2  -8   14.48    0.85
   1   2   8   14.27    0.80
   1   2   8   13.57    0.81
   1   2   8   14.54    0.82
  -1   2  -8   14.04    0.92
  -1   2  -8   15.28    0.97
   1   2   8   13.64    0.90
   2  -2   8   37.18    1.55
  -2  -2  -8   36.84    1.40
   2  -2   8   37.49    1.49
  -2  -2  -8   36.51    1.38
   2   2   8   35.29    1.25
   2   2   8   35.53    1.36
   2   2   8   38.79    1.43
   2   2   8   36.29    1.27
  -2   2  -8   38.16    1.46
  -2   2  -8   36.16    1.61
  -3  -2  -8    9.78    1.01
  -3  -2  -8    9.16    0.91
   3  -2   8   10.16    0.86
   3  -2   8   10.29    0.77
   3  -2   8    9.52    0.72
  -3   2  -8   10.85    0.90
   3   2   8    9.23    0.87
   3   2   8    9.63    0.73
   4  -2   8    0.84    0.42
  -4  -2  -8    0.96    0.57
   4  -2   8    1.20    0.43
  -4  -2  -8    1.12    0.56
   4  -2   8    1.32    0.41
   4   2   8    1.42    0.47
  -4   2  -8    0.81    0.51
   4   2   8    0.84    0.45
   4   2   8    1.73    0.55
   4   2   8    1.27    0.43
   5  -2   8   10.63    1.01
   5  -2   8    9.96    1.04
  -5  -2  -8   12.98    1.38
   5  -2   8   13.70    0.88
  -5   2  -8   10.68    1.07
   5   2   8   12.55    1.25
   5   2   8   12.51    0.94
  -6  -2  -8    9.11    1.31
   6  -2   8    7.53    0.97
   6  -2   8    9.80    0.91
   6   2   8    6.88    1.07
  -6   2  -8    9.87    1.28
   6   2   8    9.05    1.23
  -7  -2  -8   -0.85    0.95
   7  -2   8   -0.40    0.77
   7   2   8    0.84    0.78
   7   2   8    0.77    0.87
   8  -2   8    1.36    0.91
   8   2   8    2.34    1.05
   8   2   8    0.84    0.96
   9  -2   8    1.27    1.15
   9   2   8   -0.01    1.34
 -10  -3   8    0.53    0.66
 -10  -3   8    0.85    1.31
  10  -3  -8    0.57    1.20
 -10   3   8    0.62    1.27
  10   3  -8    0.03    1.24
   9  -3  -8    0.39    1.02
  -9  -3   8   -0.71    1.00
  -9  -3   8    0.31    0.53
   9   3  -8    0.90    0.90
  -9   3   8   -0.19    1.20
  -8   3   8    0.02    0.82
  -8   3   8   -0.37    0.76
   8   3  -8    1.34    0.78
  -7  -3   8    5.39    0.87
   7  -3  -8    4.98    0.84
  -7  -3   8    4.60    0.65
  -7   3   8    3.41    0.92
   7   3  -8    7.64    1.02
   7   3  -8    4.27    0.67
  -7   3   8    4.77    0.63
   7   3  -8    6.61    0.86
   6  -3  -8    2.23    0.60
  -6  -3   8    1.93    0.57
  -6  -3   8    1.30    0.27
   6   3  -8    1.37    0.50
  -6   3   8    0.65    0.53
  -6   3   8    1.22    0.47
   6   3  -8    0.82    0.84
   6   3  -8    2.34    0.56
  -5  -3   8    1.81    0.77
  -5  -3   8    1.52    0.33
   5  -3  -8    1.10    0.47
  -5  -3   8    2.47    0.36
   5   3  -8    1.10    0.49
   5   3  -8    0.75    0.63
   5   3  -8    1.87    0.47
  -5   3   8    1.29    0.41
  -5   3   8    1.49    0.47
   5   3  -8    1.41    0.46
  -4  -3   8    0.07    0.19
   4  -3  -8    0.31    0.43
  -4  -3   8    0.42    0.25
  -4   3   8    0.68    0.50
  -4   3   8    1.50    0.42
   4   3  -8   -0.16    0.40
   4   3  -8    0.32    0.44
  -4   3   8    0.86    0.40
   4   3  -8    0.81    0.45
  -3  -3   8    8.80    0.47
  -3  -3   8    7.18    0.81
  -3  -3   8    9.10    0.59
   3  -3  -8    9.24    0.89
  -3  -3   8   10.12    0.81
   3   3  -8    9.25    0.81
  -3   3   8    9.03    0.80
  -3   3   8    7.50    1.00
   3   3  -8    8.58    0.89
  -3   3   8    8.86    0.71
   2  -3  -8    0.02    0.42
  -2  -3   8    0.15    0.41
  -2  -3   8    0.10    0.28
  -2  -3   8    0.13    0.21
  -2   3   8    0.13    0.37
   2   3  -8    0.48    0.44
  -2   3   8    0.19    0.36
   2   3  -8    0.51    0.61
  -2   3   8   -0.39    0.34
   2   3  -8    0.17    0.36
  -1  -3   8  104.59    2.33
  -1  -3   8   99.09    2.31
   1  -3  -8  105.16    2.80
  -1  -3   8   97.26    2.61
  -1  -3   8   97.92    2.24
   1   3  -8   99.61    2.60
  -1   3   8  100.27    2.57
  -1   3   8   98.91    2.56
  -1   3   8  103.36    2.69
   1   3  -8  101.64    2.66
   1   3  -8  102.96    2.66
   0  -3   8   57.24    1.81
   0  -3   8   57.30    1.55
   0  -3  -8   57.36    2.61
   0  -3  -8   57.72    1.92
   0   3  -8   57.16    1.84
   0   3  -8   57.80    1.81
   0   3   8   57.48    1.84
   0   3   8   57.58    1.79
   0   3   8   58.52    1.47
  -1  -3  -8    1.28    0.49
   1  -3   8    1.47    0.41
   1  -3   8    1.90    0.34
  -1  -3  -8    1.97    0.54
   1  -3   8    1.88    0.41
   1   3   8    1.10    0.43
   1   3   8    1.90    0.46
  -1   3  -8    1.74    0.43
   1   3   8    1.56    0.49
   1   3   8    1.24    0.45
  -1   3  -8    1.92    0.45
   2  -3   8    3.34    0.45
  -2  -3  -8    2.90    0.57
   2  -3   8    3.85    0.57
   2  -3   8    3.91    0.63
  -2  -3  -8    3.11    0.58
   2   3   8    5.75    0.78
   2   3   8    2.72    0.54
   2   3   8    3.67    0.54
  -2   3  -8    3.60    0.56
   3  -3   8    1.88    0.53
  -3  -3  -8    3.02    0.63
   3  -3   8    1.38    0.47
  -3  -3  -8    1.12    0.58
   3  -3   8    1.25    0.44
  -3   3  -8    1.44    0.47
   3   3   8    1.15    0.44
  -3   3  -8    2.24    0.50
   3   3   8    2.35    0.68
   3   3   8    2.27    0.57
   3   3   8    1.80    0.53
   4  -3   8    4.26    0.69
  -4  -3  -8    1.52    1.21
   4  -3   8    2.19    0.52
   4  -3   8    2.97    0.52
  -4  -3  -8    3.52    0.68
   4   3   8    3.29    0.65
   4   3   8    2.51    0.52
   4   3   8    3.26    0.60
  -4   3  -8    2.08    0.67
   5  -3   8    0.58    0.52
   5  -3   8    0.13    0.59
  -5  -3  -8    1.02    0.68
   5  -3   8   -0.74    0.55
   5   3   8    0.63    0.63
   5   3   8    0.03    0.63
  -5   3  -8    0.59    0.69
  -6  -3  -8    0.49    0.94
   6  -3   8   -0.37    0.91
   6  -3   8    0.48    0.75
   6   3   8    0.05    0.83
  -6   3  -8    0.69    0.87
   6   3   8    0.36    0.76
  -7  -3  -8    0.29    1.23
   7  -3   8    1.85    0.90
   7   3   8    2.74    1.01
   7   3   8    2.74    0.94
  -8  -3  -8    0.17    1.40
   8  -3   8    2.04    1.43
   8   3   8    3.68    1.11
   8   3   8    0.63    1.19
  10  -4  -8    0.65    1.56
 -10  -4   8    2.05    2.63
 -10  -4   8   -0.04    1.07
 -10   4   8   -3.00    1.52
  -9  -4   8    5.43    0.76
  -9  -4   8    6.12    1.79
   9  -4  -8    6.21    1.28
   9   4  -8    3.64    1.13
  -9   4   8    6.61    1.32
  -8  -4   8   31.31    1.41
   8  -4  -8   31.42    2.06
  -8  -4   8   30.73    2.23
  -8   4   8   22.38    3.16
   8   4  -8   31.34    2.01
  -8   4   8   29.16    2.24
  -7  -4   8    4.28    1.64
   7   4  -8    3.63    1.06
  -7   4   8    6.80    1.05
  -7   4   8    6.04    0.89
   7   4  -8    5.04    0.74
  -6  -4   8    3.36    0.45
   6  -4  -8    3.38    0.82
  -6  -4   8    2.43    0.74
   6   4  -8    2.85    0.61
  -6   4   8    1.56    0.69
  -6   4   8    4.21    0.69
   6   4  -8    2.82    0.75
   5  -4  -8    1.26    0.63
  -5  -4   8    2.54    0.43
  -5  -4   8    1.72    0.62
  -5   4   8    2.85    0.58
   5   4  -8    2.71    0.54
  -5   4   8    2.92    0.69
   5   4  -8    2.89    0.56
   5   4  -8    1.23    0.86
   4  -4  -8    5.03    0.70
  -4  -4   8    5.04    0.85
  -4  -4   8    4.29    0.57
   4   4  -8    5.55    0.91
   4   4  -8    5.00    0.63
  -4   4   8    7.22    0.86
  -4   4   8    5.40    0.84
  -4   4   8    4.29    0.95
   4   4  -8    6.20    0.83
   3  -4  -8    5.33    0.85
  -3  -4   8    3.57    0.59
  -3  -4   8    4.32    0.46
  -3   4   8    3.47    0.69
   3   4  -8    5.19    0.77
   3   4  -8    2.97    0.57
   3   4  -8    3.58    0.53
  -3   4   8    2.66    0.54
  -3   4   8    4.29    0.73
  -2  -4   8    0.44    0.46
   2  -4  -8   -0.04    0.50
  -2  -4   8    0.12    0.25
  -2  -4   8   -0.18    0.46
   2   4  -8    0.64    0.46
  -2   4   8    0.33    0.63
   2   4  -8    0.38    0.42
   2   4  -8    0.11    0.40
  -2   4   8   -0.05    0.41
  -2   4   8    0.53    0.53
  -1  -4   8    1.42    0.44
   1  -4  -8    0.24    0.46
  -1  -4   8    0.31    0.28
   1   4  -8    0.52    0.41
  -1   4   8    0.41    0.53
  -1   4   8    0.67    0.47
  -1   4   8    1.02    0.45
   1   4  -8    0.39    0.40
   1   4  -8    1.12    0.44
   0  -4   8    5.25    0.59
   0  -4   8    4.83    0.69
   0  -4  -8    4.84    0.81
   0   4   8    4.66    0.78
   0   4  -8    5.45    0.79
   0   4  -8    5.89    0.71
   0   4   8    5.22    0.71
   0   4   8    5.75    0.73
   1  -4   8    5.65    0.79
   1  -4   8    4.95    0.62
  -1  -4  -8    6.61    0.88
  -1   4  -8    5.29    0.80
  -1   4  -8    4.89    0.81
   1   4   8    3.57    0.65
   1   4   8    4.60    0.76
   1   4   8    5.88    0.75
   1   4   8    5.71    0.94
   2  -4   8    1.68    0.39
   2  -4   8    1.78    0.49
  -2  -4  -8    1.31    0.93
   2   4   8    1.90    0.50
  -2   4  -8    1.75    0.54
   2   4   8    1.96    0.47
   2   4   8    1.45    1.31
  -2   4  -8    1.77    0.57
   3  -4   8    3.94    0.58
  -3  -4  -8    3.31    0.71
   3  -4   8    2.87    0.60
   3  -4   8    3.11    0.57
   3   4   8    3.38    0.66
  -3   4  -8    1.71    1.22
   3   4   8    3.94    0.81
  -3   4  -8    4.00    0.64
   3   4   8    5.18    0.78
   4  -4   8    3.46    0.75
  -4  -4  -8    2.59    0.82
   4  -4   8    4.77    0.63
   4  -4   8    3.93    0.59
  -4   4  -8    3.49    0.81
   4   4   8    1.79    0.70
   4   4   8    3.27    0.78
  -4   4  -8    2.64    0.72
   5  -4   8   25.63    2.67
   5  -4   8   29.63    1.46
   5  -4   8   28.80    1.61
  -5  -4  -8   28.95    2.02
  -5   4  -8   28.45    1.89
   5   4   8   32.67    1.92
  -6  -4  -8   -1.39    1.05
   6   4   8    0.80    1.07
   6   4   8    0.79    0.89
  -6   4  -8    1.66    2.00
  -7  -4  -8   -0.68    1.26
   7  -4   8   -0.53    0.91
   7   4   8    2.27    1.25
   7   4   8   -1.69    1.08
  -8  -4  -8    0.63    1.60
   8  -4   8    0.45    1.35
   8   4   8   -0.20    1.50
   8   4   8   -0.65    1.34
  -9  -5   8   -1.93    1.03
  -9  -5   8   -0.77    1.68
   9  -5  -8    0.56    1.59
   9   5  -8   -2.15    1.46
   8  -5  -8    3.59    1.24
  -8  -5   8    2.84    1.30
  -8  -5   8    3.19    0.69
  -8   5   8   -2.43    2.19
   8   5  -8    3.24    1.14
  -8   5   8    2.93    2.26
   7  -5  -8    4.72    1.09
  -7  -5   8    3.71    1.21
  -7  -5   8    2.58    0.62
  -7   5   8    1.64    1.44
   7   5  -8    4.84    0.96
  -7   5   8    2.95    1.10
   7   5  -8    0.99    1.66
   6  -5  -8    3.61    1.06
  -6  -5   8    3.30    0.58
  -6   5   8    3.48    0.91
  -6   5   8    1.37    0.93
   6   5  -8    3.41    0.93
  -5  -5   8    3.87    0.76
  -5  -5   8    3.86    0.93
   5  -5  -8    6.39    1.53
   5   5  -8    4.10    0.76
  -5   5   8    2.85    0.93
   5   5  -8    3.84    1.19
  -5   5   8    4.96    0.82
   5   5  -8    3.74    0.79
   4  -5  -8    2.55    0.87
  -4  -5   8    1.71    0.72
  -4  -5   8    1.61    0.70
  -4  -5   8    1.82    0.48
  -4   5   8    2.94    0.70
   4   5  -8    2.47    0.62
  -4   5   8    3.19    1.18
   4   5  -8    1.64    0.67
   4   5  -8    1.08    0.73
   3  -5  -8    1.05    0.77
  -3  -5   8    0.71    0.63
  -3  -5   8    0.91    0.39
   3   5  -8    0.56    0.60
  -3   5   8   -0.02    0.66
  -3   5   8    1.53    0.70
   3   5  -8    0.26    0.66
   3   5  -8    0.76    0.57
  -3   5   8    0.88    0.77
  -2  -5   8    0.21    0.38
   2  -5  -8   -0.60    0.67
  -2  -5   8   -0.04    0.60
  -2   5   8    1.26    0.55
   2   5  -8    0.04    0.60
  -2   5   8    0.21    0.65
   2   5  -8    1.22    0.56
   2   5  -8    0.74    0.61
  -2   5   8    1.17    0.62
   1  -5  -8    0.59    0.66
  -1  -5   8    0.74    0.40
  -1  -5   8    0.27    0.58
  -1   5   8    0.94    0.60
   1   5  -8    1.06    0.61
  -1   5   8    0.13    0.70
   1   5  -8    0.47    0.54
   0  -5  -8   -0.85    0.68
   0  -5   8    0.84    0.65
   0  -5   8    0.35    0.42
   0   5  -8    0.11    0.64
   0   5  -8    1.07    0.59
   0   5   8    1.64    0.63
   0   5   8    0.39    0.57
   1  -5   8    6.30    0.99
   1  -5   8    7.22    0.90
  -1   5  -8    4.82    0.82
  -1   5  -8    4.75    0.81
  -2  -5  -8    7.98    1.07
   2  -5   8    7.86    1.06
   2  -5   8    8.39    1.18
   2   5   8    9.24    1.07
  -2   5  -8    8.47    1.24
   2   5   8    7.96    1.22
  -2   5  -8    7.90    1.27
   3  -5   8   -0.47    0.76
  -3  -5  -8   -1.09    1.46
   3  -5   8   -1.18    0.66
  -3   5  -8    0.61    1.16
   3   5   8    0.08    0.68
  -3   5  -8    0.18    0.80
   3   5   8   -0.44    0.82
   4  -5   8   20.37    1.50
  -4  -5  -8   18.08    1.91
   4  -5   8   14.26    1.37
   4   5   8   13.30    1.97
   4   5   8   14.69    1.73
  -4   5  -8   15.32    1.69
  -4   5  -8   15.03    1.91
   5  -5   8   -0.89    1.62
  -5  -5  -8    2.12    1.19
   5  -5   8    0.10    0.84
   5   5   8   -1.31    1.26
   5   5   8   -0.34    1.20
  -6  -5  -8   18.02    2.11
   6  -5   8   12.37    1.73
  -6   5  -8   14.34    1.86
   6   5   8   11.68    1.97
  -7  -5  -8    7.27    1.87
   7  -5   8    7.72    1.47
   7   5   8   10.15    1.91
   7   5   8    9.31    1.57
   7  -6  -8    3.28    1.41
  -7  -6   8   -2.24    1.38
  -7  -6   8   -0.82    0.78
  -7   6   8    1.71    1.30
   7   6  -8    0.82    1.09
   7   6  -8   -0.37    1.35
  -6  -6   8   -0.07    1.35
   6  -6  -8    0.95    1.14
  -6  -6   8    0.51    0.68
  -6   6   8    0.34    1.06
   6   6  -8    1.33    1.16
   6   6  -8   -0.61    0.98
  -5  -6   8    0.86    1.08
  -5  -6   8    1.51    1.47
  -5  -6   8   -0.76    0.62
   5  -6  -8    1.69    1.12
   5   6  -8    0.23    1.02
   5   6  -8    0.96    0.90
  -5   6   8    0.67    1.04
  -4  -6   8    0.06    0.89
  -4  -6   8    1.28    1.48
  -4  -6   8    0.63    0.79
   4  -6  -8   -0.20    1.03
   4   6  -8   -0.60    0.90
   4   6  -8   -1.23    0.80
  -4   6   8   -0.58    0.92
   4   6  -8    0.30    0.91
   3  -6  -8    2.20    1.03
  -3  -6   8   -0.26    0.87
  -3  -6   8    0.08    0.53
   3   6  -8    0.61    0.84
   3   6  -8   -0.26    0.88
   3   6  -8   -1.34    0.78
  -3   6   8   -0.38    0.83
  -2  -6   8   28.67    1.88
   2  -6  -8   28.38    2.28
  -2  -6   8   28.10    1.44
   2   6  -8   28.99    2.13
   2   6  -8   27.44    1.85
  -2   6   8   28.92    1.93
   2   6  -8   28.58    1.96
  -2   6   8   28.37    1.86
  -1  -6   8    1.22    0.81
  -1  -6   8    0.01    0.54
   1  -6  -8   -0.61    0.92
  -1   6   8   -0.02    0.86
   1   6  -8    0.28    0.83
  -1   6   8    1.13    0.99
   0  -6  -8    0.22    1.02
   0  -6   8    1.64    0.84
   0  -6   8   -0.06    0.61
   0   6  -8    1.73    0.88
   0   6   8   -1.16    1.21
   0   6  -8    1.45    0.84
   1  -6   8    2.68    0.74
   1  -6   8    3.53    0.90
  -1  -6  -8    5.30    1.04
   1   6   8    3.94    1.36
  -1   6  -8    3.31    0.90
  -1   6  -8    4.75    1.01
   1   6   8    3.55    0.97
   2  -6   8    1.70    0.73
  -2  -6  -8    0.92    1.06
   2  -6   8    0.25    0.85
  -2   6  -8    0.72    0.95
  -2   6  -8   -0.33    1.02
   2   6   8    0.69    0.90
   2   6   8    0.05    0.93
   3  -6   8    0.01    0.89
   3  -6   8    0.82    0.88
   3  -6   8    1.22    0.87
  -3   6  -8    0.46    1.10
  -3   6  -8   -0.72    1.00
   3   6   8   -1.21    0.99
   4  -6   8   -0.03    1.00
   4  -6   8   -1.34    1.00
   4  -6   8   -0.03    1.02
  -4   6  -8   -1.20    1.35
   4   6   8    1.66    1.07
  -4   6  -8    2.21    1.61
   5  -6   8    0.82    1.08
  -5  -6  -8   -2.94    1.50
  -5   6  -8    1.04    2.20
   5   6   8   -2.40    1.22
  -5  -7   8   16.19    2.55
  -5  -7   8   15.60    1.70
   5  -7  -8   11.97    1.93
   5   7  -8   13.46    1.84
  -5   7   8    9.68    1.77
   5   7  -8   14.47    2.19
   4  -7  -8   16.55    2.38
  -4  -7   8   15.21    1.47
   4   7  -8   15.92    1.99
  -4   7   8   16.30    2.28
   4   7  -8   13.72    1.68
   3  -7  -8    1.98    1.34
  -3  -7   8    0.58    0.73
  -3  -7   8   -0.53    1.14
   3   7  -8    1.68    1.09
  -3   7   8   -0.70    1.13
   3   7  -8    0.52    1.12
   3   7  -8    1.81    1.18
  -2  -7   8   -0.64    1.00
  -2  -7   8    0.66    0.73
   2  -7  -8    0.92    1.29
  -2   7   8    1.09    1.58
   2   7  -8   -1.68    1.08
   2   7  -8    2.17    1.03
  -1  -7   8    1.41    1.05
   1  -7  -8    0.96    1.20
  -1  -7   8    1.01    0.79
   1   7  -8   -0.13    1.12
  -1   7   8   -1.54    1.21
  -1   7   8    1.55    1.90
   1   7  -8    1.33    1.02
   0  -7   8    2.46    1.05
   0  -7   8    2.26    0.85
   0  -7  -8   -0.60    1.27
   0   7  -8    2.16    1.08
   0   7   8    0.79    1.12
   0   7   8   -0.26    1.46
   0   7  -8    3.71    1.86
  -1  -7  -8   11.28    2.25
   1  -7   8   10.03    1.66
   1   7   8    6.45    1.32
   1   7   8    5.80    1.44
  -1   7  -8    8.18    1.31
  -1   7  -8    7.86    1.25
  -2  -7  -8   10.19    1.65
   2  -7   8    8.92    1.22
   2  -7   8   11.80    1.90
  -2   7  -8    7.97    1.54
  -2   7  -8    7.47    1.41
   2   7   8   10.23    1.51
   3  -7   8    1.07    1.22
   3  -7   8    1.78    1.23
   3  -7   8    3.96    1.31
  -3  -7  -8    4.07    1.73
  -3   7  -8    4.83    1.54
   3   7   8    1.29    1.52
  -3   7  -8    2.91    1.76
  11   0  -9   11.18    1.58
 -11   0   9   10.63    2.11
  10   0  -9   -0.20    0.95
   9   0  -9   25.07    1.90
   8   0  -9   -0.83    0.59
  -8   0   9   -0.02    0.43
   7   0  -9   12.99    0.97
  -7   0   9   12.10    1.11
   7   0  -9   11.91    1.01
  -7   0   9   12.67    0.72
  -6   0   9   -0.13    0.43
   6   0  -9   -0.55    0.39
   6   0  -9    0.17    0.39
  -6   0   9   -0.23    0.24
  -5   0   9    2.36    0.35
   5   0  -9    1.92    0.35
  -5   0   9    2.82    0.49
  -5   0   9    2.76    0.40
  -5   0   9    2.60    0.38
  -4   0   9   -0.36    0.27
  -4   0   9    0.41    0.33
  -4   0   9    0.29    0.26
  -4   0   9    0.15    0.31
   4   0  -9   -0.20    0.25
  -4   0   9   -0.02    0.23
   4   0  -9   -0.21    0.35
  -3   0   9    3.25    0.34
  -3   0   9    3.57    0.44
  -3   0   9    3.61    0.40
  -3   0   9    3.24    0.43
  -3   0   9    3.36    0.51
   3   0  -9    3.04    0.43
   3   0  -9    3.71    0.65
  -2   0   9    0.10    0.24
   2   0  -9    0.47    0.30
  -2   0   9    0.01    0.22
  -2   0   9   -0.22    0.17
  -2   0   9    0.02    0.26
  -1   0   9   64.62    1.75
  -1   0   9   64.42    1.55
  -1   0   9   66.60    1.58
  -1   0   9   64.31    1.80
   1   0  -9   65.44    1.59
   1   0  -9   65.71    1.82
  -1   0   9   67.48    1.61
   0   0  -9    0.12    0.24
   0   0   9    0.39    0.33
   0   0   9    0.23    0.21
   0   0   9    0.28    0.28
   0   0   9    0.10    0.28
   0   0  -9   -0.07    0.30
   0   0   9    0.00    0.28
   1   0   9    5.07    0.53
   1   0   9    3.94    0.56
  -1   0  -9    4.82    0.48
   1   0   9    5.52    0.59
  -1   0  -9    4.57    0.60
   1   0   9    4.58    0.61
   2   0   9   -0.03    0.34
  -2   0  -9   -0.16    0.29
   2   0   9    0.01    0.30
   2   0   9   -0.11    0.35
  -2   0  -9   -0.16    0.37
   2   0   9   -0.02    0.34
  -3   0  -9    0.31    0.36
   3   0   9    0.57    0.35
   3   0   9    0.33    0.41
   3   0   9    0.49    0.41
   3   0   9    0.81    0.40
  -3   0  -9   -0.30    0.48
  -4   0  -9   -0.46    0.57
   4   0   9    0.29    0.39
   4   0   9    0.33    0.39
   4   0   9   -0.02    0.54
   4   0   9   -0.43    0.43
   5   0   9    1.86    0.49
   5   0   9    0.88    0.49
   5   0   9    2.54    0.69
   6   0   9   -0.74    0.61
   6   0   9    0.13    0.58
   7   0   9    0.96    0.85
   7   0   9   -1.10    0.70
   9   0   9   17.25    2.24
 -11  -1   9   -0.28    0.85
 -11  -1   9    2.15    1.39
  11  -1  -9   -1.08    1.34
  11   1  -9    1.02    1.27
 -10  -1   9   -0.18    0.61
 -10  -1   9   -0.92    0.96
  10  -1  -9   -0.27    1.02
  10   1  -9   -0.32    0.98
  -9  -1   9    2.23    0.91
   9  -1  -9    1.60    0.94
   9   1  -9    2.81    0.74
   9   1  -9    2.37    0.91
  -9   1   9    3.00    0.71
   8  -1  -9   -0.17    0.66
   8   1  -9    1.54    0.67
   8   1  -9    1.94    0.57
  -8   1   9    1.02    0.48
   7  -1  -9    0.37    0.49
   7   1  -9   -0.04    0.68
  -7   1   9    0.10    0.34
   7   1  -9   -0.27    0.48
  -7   1   9    0.20    0.69
   6  -1  -9    3.84    0.57
  -6  -1   9    3.94    0.63
  -6  -1   9    4.84    0.77
  -6  -1   9    5.03    0.42
  -6  -1   9    4.27    0.54
  -6   1   9    4.39    0.54
   6   1  -9    4.78    0.57
   6   1  -9    4.24    0.73
   6   1  -9    5.16    0.83
   5  -1  -9    1.76    0.46
  -5  -1   9    2.51    0.35
  -5  -1   9    2.39    0.40
  -5  -1   9    2.73    0.47
  -5  -1   9    2.48    0.32
  -5   1   9    2.62    0.64
  -5   1   9    2.22    0.34
  -5   1   9    2.32    0.40
   5   1  -9    2.12    0.45
   5   1  -9    2.56    0.36
   5   1  -9    2.71    0.53
   5   1  -9    2.35    0.46
  -4  -1   9   43.57    1.33
  -4  -1   9   43.81    1.42
  -4   1   9   45.02    1.37
   4   1  -9   43.84    1.33
  -4   1   9   42.12    1.48
   4   1  -9   44.15    1.49
  -4   1   9   42.04    1.42
   4   1  -9   43.29    1.31
   4   1  -9   43.45    1.41
  -4   1   9   44.03    1.22
  -3  -1   9    4.04    0.52
  -3  -1   9    4.16    0.48
   3  -1  -9    4.73    0.58
   3   1  -9    3.71    0.52
   3   1  -9    4.48    0.51
  -3   1   9    3.76    0.57
   3   1  -9    3.49    0.48
  -3   1   9    3.95    0.50
   3   1  -9    3.89    0.54
  -3   1   9    3.91    0.50
  -3   1   9    4.39    0.63
   2  -1  -9    2.09    0.39
  -2  -1   9    2.63    0.44
  -2  -1   9    2.30    0.36
  -2  -1   9    2.00    0.29
  -2  -1   9    2.27    0.33
  -2   1   9    2.50    0.41
   2   1  -9    1.92    0.39
  -2   1   9    2.39    0.43
   2   1  -9    2.31    0.33
  -2   1   9    2.81    0.33
   2   1  -9    1.96    0.34
  -2   1   9    1.65    0.30
  -2   1   9    2.34    0.40
   1  -1  -9   -0.26    0.31
  -1  -1   9    0.14    0.19
  -1  -1   9    0.25    0.27
  -1  -1   9    0.80    0.32
  -1   1   9    0.06    0.22
   1   1  -9   -0.10    0.22
  -1   1   9    0.08    0.24
  -1   1   9   -0.08    0.25
  -1   1   9   -0.16    0.34
   1   1  -9   -0.11    0.31
   1   1  -9   -0.37    0.29
  -1   1   9   -0.30    0.26
   0  -1   9   -0.06    0.28
   0  -1   9    0.00    0.20
   0  -1  -9   -0.10    0.35
   0  -1   9    0.44    0.27
   0   1   9   -0.01    0.25
   0   1  -9   -0.09    0.33
   0   1   9   -0.24    0.23
   0   1  -9    0.20    0.19
   0   1   9    0.64    0.31
   0   1   9    0.22    0.29
   1  -1   9    0.06    0.34
   1  -1   9    0.04    0.36
  -1  -1  -9   -0.42    0.32
  -1  -1  -9    0.59    0.48
  -1  -1  -9   -0.68    0.38
   1  -1   9   -0.11    0.26
   1   1   9    0.06    0.30
   1   1   9    0.27    0.28
  -1   1  -9   -0.28    0.37
   1   1   9    0.02    0.37
   1   1   9    0.15    0.28
   2  -1   9   43.33    1.52
  -2  -1  -9   43.70    1.35
  -2  -1  -9   42.31    1.47
   2  -1   9   40.86    1.58
   2   1   9   43.61    1.43
   2   1   9   43.27    1.42
   2   1   9   44.33    1.55
  -2   1  -9   41.71    1.84
   2   1   9   43.39    1.48
  -3  -1  -9   53.12    1.59
   3  -1   9   53.03    1.75
   3  -1   9   52.94    1.73
   3  -1   9   54.07    1.82
  -3   1  -9   51.92    2.05
   3   1   9   52.01    1.76
   3   1   9   54.56    1.78
   3   1   9   54.68    1.66
   3   1   9   50.19    2.06
  -4  -1  -9    5.90    0.92
   4  -1   9    5.70    0.73
   4  -1   9    4.96    0.66
   4  -1   9    5.91    0.66
   4   1   9    4.61    0.76
   4   1   9    5.42    0.70
   4   1   9    5.83    0.98
  -4   1  -9    5.22    0.89
   4   1   9    6.99    0.75
   5  -1   9   -0.56    0.43
   5  -1   9   -0.35    0.48
   5  -1   9    0.29    0.53
  -5   1  -9    0.78    0.79
   5   1   9    0.05    0.50
   5   1   9   -0.09    0.47
   5   1   9    0.47    0.87
   6  -1   9    4.91    0.82
   6  -1   9    3.93    0.63
   6   1   9    3.05    0.77
   6   1   9    4.11    0.69
   7  -1   9    2.30    0.80
   7  -1   9    3.21    0.87
   7   1   9    2.53    0.88
   7   1   9    3.22    0.83
   8  -1   9   11.76    1.64
   8   1   9    7.29    1.12
   8   1   9    9.89    1.31
   9  -1   9    1.50    1.26
   9   1   9    0.28    1.38
 -11  -2   9    0.19    0.86
  11  -2  -9    1.12    2.45
 -11  -2   9    3.92    1.82
  11   2  -9   -1.14    1.43
  10  -2  -9    0.19    1.12
 -10  -2   9    0.66    1.16
 -10  -2   9   -0.09    0.59
  10   2  -9   -1.20    1.01
  10   2  -9    0.95    1.01
 -10   2   9    1.30    0.99
  -9  -2   9    5.03    1.11
  -9  -2   9    4.34    0.59
   9  -2  -9    4.43    1.03
  -9   2   9    5.05    0.85
   9   2  -9    4.71    0.91
   9   2  -9    3.23    0.93
  -8  -2   9    5.14    0.74
   8  -2  -9    4.37    0.90
  -8  -2   9    4.39    0.93
  -8   2   9    5.86    1.32
   8   2  -9    4.57    0.72
   7  -2  -9   50.77    2.01
  -7  -2   9   49.29    1.78
  -7  -2   9   48.59    2.38
   7   2  -9   53.13    1.84
   7   2  -9   51.28    2.19
  -7   2   9   51.52    1.72
  -7   2   9   46.83    2.25
   6  -2  -9   41.91    1.68
  -6  -2   9   41.75    1.47
  -6  -2   9   42.52    1.67
   6   2  -9   40.32    1.54
   6   2  -9   41.93    1.60
   6   2  -9   40.94    1.70
  -6   2   9   43.89    1.45
   6   2  -9   40.57    1.44
  -6   2   9   40.29    1.75
   5  -2  -9    3.93    0.61
  -5  -2   9    3.74    0.61
  -5  -2   9    4.09    0.56
  -5   2   9    3.86    0.59
   5   2  -9    2.83    0.52
  -5   2   9    3.06    0.43
   5   2  -9    2.88    0.53
   5   2  -9    3.84    0.59
   5   2  -9    4.78    0.68
  -4  -2   9   19.95    1.13
   4  -2  -9   20.68    1.09
   4   2  -9   21.52    1.07
   4   2  -9   20.33    1.04
   4   2  -9   19.88    1.12
  -4   2   9   21.11    0.87
  -4   2   9   21.15    1.17
   4   2  -9   21.05    1.03
  -4   2   9   21.18    0.96
  -3  -2   9  111.81    2.64
  -3  -2   9  109.33    2.70
   3  -2  -9  113.30    2.95
   3   2  -9  111.50    2.75
  -3   2   9  111.39    2.53
   3   2  -9  112.31    2.73
  -3   2   9  109.68    2.66
  -3   2   9  115.00    2.90
   3   2  -9  112.81    2.60
   3   2  -9  113.24    2.76
  -2  -2   9   24.74    1.06
  -2  -2   9   24.62    0.72
  -2  -2   9   24.10    0.91
  -2  -2   9   23.99    0.73
   2   2  -9   24.30    1.08
  -2   2   9   23.58    0.99
  -2   2   9   24.03    1.32
   2   2  -9   23.46    1.09
   2   2  -9   22.85    0.84
   2   2  -9   24.04    1.10
  -2   2   9   23.27    1.20
   1  -2  -9    7.50    0.82
  -1  -2   9    8.47    0.71
  -1  -2   9    9.51    1.16
  -1  -2   9    8.33    0.60
  -1  -2   9    8.38    0.58
  -1   2   9    9.70    0.74
  -1   2   9    9.00    0.53
  -1   2   9    8.58    0.71
   0  -2   9   -0.20    0.41
   0  -2   9   -0.28    0.37
   0  -2  -9   -0.05    0.38
   0  -2   9   -0.23    0.36
   0  -2   9    0.33    0.38
   0   2   9    0.04    0.31
   0   2   9    0.05    0.29
   0   2   9   -0.56    0.40
   0   2  -9   -0.21    0.39
   0   2  -9    0.54    0.44
   0   2   9    0.08    0.38
   1  -2   9    2.94    0.50
  -1  -2  -9    0.89    0.45
   1  -2   9    1.91    0.42
   1  -2   9    1.05    0.34
   1   2   9    1.44    0.42
   1   2   9    1.74    0.40
  -1   2  -9    1.72    0.44
   1   2   9    2.01    0.48
   1   2   9    1.20    0.34
  -1   2  -9    1.86    0.47
  -2  -2  -9    6.52    0.89
   2  -2   9    5.77    0.69
   2  -2   9    5.77    0.75
   2  -2   9    5.36    0.61
  -2   2  -9    6.02    0.74
   2   2   9    6.84    0.71
   2   2   9    4.71    0.77
   2   2   9    4.85    0.72
   2   2   9    5.96    0.80
   3  -2   9    7.53    0.76
  -3  -2  -9    8.49    1.24
   3  -2   9    7.20    0.69
   3  -2   9    6.40    0.65
   3   2   9    7.98    0.76
   3   2   9    7.70    0.85
  -3   2  -9    6.37    0.87
   3   2   9    6.29    0.82
   3   2   9    6.24    0.97
  -4  -2  -9    0.11    0.58
   4  -2   9    0.54    0.42
   4  -2   9   -0.35    0.43
   4  -2   9   -0.07    0.43
   4   2   9   -0.14    0.61
   4   2   9   -0.31    0.44
   4   2   9    0.00    0.53
  -4   2  -9    0.29    0.51
   4   2   9    0.52    0.47
  -5  -2  -9   17.00    1.26
   5  -2   9   14.62    1.18
   5  -2   9   16.26    1.07
   5  -2   9   20.09    1.18
   5   2   9   14.45    1.57
  -5   2  -9   15.59    1.31
   5   2   9   15.43    1.13
  -6  -2  -9    4.14    0.83
   6  -2   9    5.68    0.91
  -6   2  -9    5.35    0.98
   6   2   9    3.37    0.73
   6   2   9    3.74    0.85
   7  -2   9    1.82    0.96
   7   2   9    0.69    0.89
   7   2   9    1.25    0.84
   8  -2   9    1.20    1.06
   8   2   9    0.36    1.12
   8   2   9   -1.44    1.03
  10  -3  -9    5.26    1.37
 -10  -3   9    6.70    0.80
 -10  -3   9    4.69    1.49
 -10   3   9    4.86    1.26
  10   3  -9    5.85    1.26
  -9  -3   9   26.35    2.23
  -9  -3   9   21.19    1.27
   9  -3  -9   23.97    1.99
   9   3  -9   23.43    1.94
  -9   3   9   30.76    2.05
   8  -3  -9    1.43    0.94
  -8  -3   9    2.58    0.55
  -8  -3   9    2.58    1.77
  -8   3   9    1.80    0.92
   8   3  -9    3.42    1.03
   8   3  -9    2.51    0.87
   7  -3  -9   -1.15    0.75
  -7  -3   9   -0.07    0.33
  -7  -3   9   -0.51    0.66
   7   3  -9    0.91    0.62
   7   3  -9   -0.31    0.52
  -7   3   9   -0.16    0.61
   7   3  -9   -0.63    0.67
  -7   3   9   -0.25    0.70
  -6  -3   9    2.20    0.61
  -6  -3   9    1.62    0.47
   6  -3  -9    1.81    0.61
  -6  -3   9    1.84    0.28
   6   3  -9    2.15    0.55
  -6   3   9    1.52    0.47
  -6   3   9    1.56    0.53
   6   3  -9    0.58    0.58
   6   3  -9    2.32    0.46
   5  -3  -9    0.75    0.47
  -5  -3   9    2.14    0.75
   5   3  -9    0.92    0.51
   5   3  -9    1.39    0.42
  -5   3   9    0.64    0.43
   5   3  -9    0.38    0.47
  -5   3   9    1.32    0.48
   5   3  -9    0.63    0.44
   4  -3  -9   -0.20    0.43
   4   3  -9   -0.03    0.44
   4   3  -9    0.05    0.39
  -4   3   9   -0.37    0.39
   4   3  -9    1.26    0.43
  -4   3   9    0.55    0.70
  -4   3   9   -0.71    0.37
  -3  -3   9    1.09    0.21
  -3  -3   9    1.17    0.27
   3  -3  -9    0.67    0.47
  -3  -3   9    1.53    0.47
  -3  -3   9    1.70    0.47
  -3   3   9    0.50    0.37
  -3   3   9    1.78    0.42
  -3   3   9    2.02    0.48
   3   3  -9    0.93    0.40
   3   3  -9    0.90    0.40
   3   3  -9    0.73    0.46
   2  -3  -9   24.69    1.27
  -2  -3   9   24.03    1.16
  -2  -3   9   23.36    0.88
  -2  -3   9   24.01    0.79
  -2   3   9   23.73    1.29
  -2   3   9   24.27    1.33
   2   3  -9   24.26    1.10
  -2   3   9   23.63    1.20
   2   3  -9   22.92    1.13
   1  -3  -9  100.82    2.73
  -1  -3   9   99.11    2.38
  -1  -3   9   99.57    2.21
  -1  -3   9   99.15    2.23
  -1  -3   9   99.26    2.61
  -1   3   9   98.00    2.61
  -1   3   9   96.91    2.80
   1   3  -9   95.77    2.61
  -1   3   9  100.47    2.68
   1   3  -9   99.48    2.64
   0  -3   9    0.00    0.25
   0  -3   9   -0.10    0.36
   0  -3   9    0.68    0.37
   0  -3  -9    0.15    0.48
   0   3   9    0.16    0.42
   0   3  -9    0.68    0.40
   0   3   9    0.34    0.42
   0   3  -9    0.00    0.56
   0   3   9    0.97    0.42
   0   3   9    0.61    0.40
  -1  -3  -9    0.62    0.50
   1  -3   9    1.24    0.38
   1  -3   9    1.68    0.41
   1  -3   9    1.65    0.39
   1   3   9    1.60    0.47
  -1   3  -9    1.23    0.44
   1   3   9    2.08    0.46
   1   3   9    1.78    0.47
   1   3   9    1.48    0.51
  -1   3  -9    0.41    0.42
   2  -3   9    0.40    0.38
   2  -3   9   -0.09    0.40
   2  -3   9    0.27    0.33
   2   3   9    0.67    0.55
   2   3   9    0.68    0.41
  -2   3  -9    0.33    0.46
   2   3   9    0.17    0.52
  -2   3  -9    0.55    0.41
   2   3   9    0.45    0.43
   3  -3   9    0.08    0.42
   3  -3   9   -0.06    0.39
  -3  -3  -9    0.04    0.57
   3  -3   9    0.12    0.43
   3   3   9   -0.14    0.46
   3   3   9    0.23    0.52
   3   3   9    0.10    0.61
   3   3   9    0.41    0.47
  -3   3  -9    0.25    0.52
   4  -3   9    0.80    0.53
  -4  -3  -9    1.25    0.66
   4  -3   9    2.04    0.62
   4  -3   9    0.91    0.50
   4   3   9    0.45    0.57
   4   3   9    0.50    0.56
   4   3   9    1.07    0.57
  -4   3  -9    1.81    0.64
   5  -3   9    0.73    0.68
   5  -3   9    1.64    0.61
  -5  -3  -9    1.75    0.84
   5  -3   9   -0.15    0.58
  -5   3  -9    0.86    0.76
   5   3   9    0.78    0.70
   5   3   9    0.35    0.67
  -6  -3  -9    0.17    1.07
   6  -3   9    0.98    0.78
   6  -3   9   -0.08    0.73
  -6   3  -9    0.81    1.08
   6   3   9    0.61    0.84
   6   3   9    1.24    1.16
  -7  -3  -9   -0.57    1.21
   7  -3   9    1.63    0.90
   7   3   9    1.26    1.07
   7   3   9    1.93    0.95
   8   3   9    1.73    1.38
  -9  -4   9    2.94    0.67
   9  -4  -9    1.00    1.22
  -9  -4   9    4.01    1.33
  -9   4   9   -0.42    1.33
   9   4  -9    2.26    2.03
  -8  -4   9    9.30    1.33
   8  -4  -9   10.25    1.66
  -8  -4   9   10.42    1.12
  -8   4   9    7.29    1.42
   8   4  -9    8.29    1.15
  -8   4   9   10.10    1.18
  -7  -4   9    1.87    1.13
   7  -4  -9    4.06    1.04
  -7  -4   9    3.70    0.54
   7   4  -9    2.71    0.72
  -7   4   9    4.49    0.95
  -7   4   9    3.81    0.98
  -6  -4   9    9.31    0.86
   6  -4  -9   13.32    1.57
  -6  -4   9   10.42    1.35
   6   4  -9    8.78    1.08
  -6   4   9    7.85    1.33
  -6   4   9    9.53    1.34
   6   4  -9   10.67    1.33
   5  -4  -9    6.57    1.13
  -5  -4   9    6.81    1.05
  -5  -4   9    7.68    0.61
   5   4  -9    7.64    0.86
  -5   4   9    8.23    1.04
  -5   4   9    5.97    0.89
   5   4  -9    8.58    1.01
   5   4  -9    6.29    1.01
  -4  -4   9   29.49    1.50
  -4  -4   9   28.97    0.96
   4  -4  -9   30.51    1.55
  -4  -4   9   30.72    1.50
  -4   4   9   30.92    1.37
   4   4  -9   28.88    1.29
   4   4  -9   29.29    1.35
  -4   4   9   30.30    1.98
  -3  -4   9    0.29    0.26
  -3  -4   9    0.66    0.78
   3  -4  -9    0.43    0.60
  -3  -4   9    0.90    0.70
   3   4  -9    0.26    0.45
  -3   4   9    0.36    0.50
  -3   4   9    0.71    0.66
  -3   4   9    1.57    0.47
   3   4  -9    0.38    0.46
   3   4  -9    0.68    0.53
  -2  -4   9    3.43    0.49
   2  -4  -9    4.11    0.67
  -2  -4   9    3.60    0.59
  -2  -4   9    3.26    0.65
   2   4  -9    2.88    0.52
  -2   4   9    3.30    0.57
  -2   4   9    5.27    0.84
   2   4  -9    4.00    0.72
  -2   4   9    3.68    0.56
  -1  -4   9    5.68    0.55
   1  -4  -9    4.74    0.75
  -1  -4   9    6.38    0.77
   1   4  -9    6.34    0.74
   1   4  -9    5.84    0.75
  -1   4   9    6.52    0.78
  -1   4   9    7.54    1.05
  -1   4   9    6.67    0.82
   0  -4   9    0.96    0.33
   0  -4  -9    1.06    0.57
   0  -4   9    1.49    0.49
   0   4  -9    1.32    0.49
   0   4   9    1.68    0.49
   0   4  -9    0.81    0.48
   0   4   9    1.18    0.46
   1  -4   9    0.15    0.35
   1  -4   9    0.46    0.46
  -1  -4  -9    1.60    0.72
   1  -4   9    0.41    0.46
  -1   4  -9    1.32    0.53
   1   4   9    1.50    0.50
  -1   4  -9    0.73    0.50
   1   4   9   -0.05    0.64
   1   4   9    1.01    0.50
   2  -4   9    0.71    0.42
   2  -4   9   -0.02    0.49
   2  -4   9   -0.12    0.48
  -2  -4  -9    0.76    0.65
  -2   4  -9    0.98    0.53
   2   4   9    1.05    0.58
   2   4   9    0.80    0.50
  -2   4  -9   -0.57    0.58
   2   4   9    1.50    0.86
   3  -4   9   10.76    1.04
  -3  -4  -9    8.68    1.35
   3  -4   9   11.21    1.20
   3  -4   9   10.45    1.06
   3   4   9   12.74    0.94
   3   4   9   12.64    1.16
  -3   4  -9   12.25    1.17
  -3   4  -9   12.18    1.33
   3   4   9   10.82    1.39
  -4  -4  -9   14.62    1.66
   4  -4   9   16.23    1.28
   4  -4   9   19.65    2.10
   4  -4   9   15.89    1.28
  -4   4  -9   21.68    1.78
   4   4   9   19.58    1.55
   4   4   9   15.71    1.50
   5  -4   9    2.41    0.76
   5  -4   9    3.74    0.85
   5  -4   9    0.96    0.78
   5   4   9    3.50    1.04
   5   4   9    1.74    0.88
  -6  -4  -9    0.08    1.18
   6  -4   9    0.16    0.84
   6   4   9    0.55    1.11
   6   4   9    1.10    0.96
  -6   4  -9    0.58    1.33
   7  -4   9   12.95    2.10
  -7  -4  -9    7.87    1.52
   7   4   9   10.85    1.65
   7   4   9   10.35    1.39
  -8  -5   9    2.54    0.67
  -8  -5   9    1.44    1.39
   8  -5  -9    2.38    1.27
   8   5  -9    2.35    1.21
  -8   5   9    4.13    1.37
  -8   5   9    2.06    1.64
   7  -5  -9    5.06    1.21
  -7  -5   9    5.19    1.33
  -7   5   9    2.33    1.11
   7   5  -9    4.68    0.98
  -7   5   9    2.21    1.31
   7   5  -9    5.22    1.20
   6  -5  -9    2.32    1.00
  -6  -5   9    1.99    0.54
  -6  -5   9    0.36    1.42
  -6   5   9    1.14    0.94
   6   5  -9    2.01    0.87
   6   5  -9    2.74    1.15
  -6   5   9   -0.42    0.90
  -5  -5   9    0.26    0.98
  -5  -5   9    1.29    0.60
   5  -5  -9    2.58    1.00
  -5  -5   9    1.32    0.92
   5   5  -9    1.42    0.71
   5   5  -9   -0.13    0.85
  -5   5   9    1.81    1.10
  -5   5   9   -0.22    0.79
   5   5  -9    1.54    0.84
  -4  -5   9    3.23    0.80
  -4  -5   9    0.98    0.46
  -4  -5   9    3.21    0.92
   4  -5  -9    1.50    0.90
   4   5  -9    0.95    0.82
   4   5  -9    2.84    0.75
  -4   5   9    0.86    0.79
  -4   5   9    1.50    0.73
   4   5  -9    1.92    0.78
  -3  -5   9    1.26    0.43
  -3  -5   9    1.91    0.80
   3  -5  -9    1.81    0.88
  -3   5   9    1.34    0.68
  -3   5   9    1.99    0.71
   3   5  -9    1.83    0.78
   3   5  -9    2.14    0.68
  -3   5   9    1.30    0.71
   3   5  -9    1.76    0.64
   2  -5  -9    4.88    0.88
  -2  -5   9    4.92    0.88
  -2  -5   9    4.50    0.56
  -2   5   9    4.38    0.76
  -2   5   9    4.45    0.83
   2   5  -9    3.44    0.74
   2   5  -9    5.19    0.80
   2   5  -9    4.50    0.73
  -2   5   9    3.70    0.70
   1  -5  -9    3.67    0.82
  -1  -5   9    2.90    0.50
  -1  -5   9    2.45    0.72
   1   5  -9    2.32    0.66
  -1   5   9    2.64    1.00
   1   5  -9    2.67    0.71
  -1   5   9    2.64    0.94
  -1   5   9    3.00    0.79
   0  -5   9   -0.05    0.59
   0  -5  -9    0.86    0.81
   0  -5   9   -0.91    0.43
   0   5  -9   -0.47    0.63
   0   5   9   -0.41    0.62
   0   5  -9    0.21    0.68
   0   5   9   -0.18    0.85
   1  -5   9    0.55    0.65
  -1  -5  -9    1.10    0.85
   1   5   9    0.79    0.66
  -1   5  -9    0.04    0.71
   1   5   9   -0.26    0.71
  -1   5  -9    0.81    0.74
   2  -5   9    7.07    1.44
   2  -5   9    7.74    1.13
  -2  -5  -9    8.83    1.59
   2  -5   9    8.82    1.17
   2   5   9    6.60    1.08
   2   5   9    7.16    1.13
  -2   5  -9    6.52    1.03
  -2   5  -9    5.94    1.11
   3  -5   9    2.69    0.88
   3  -5   9    3.43    0.86
   3  -5   9    2.37    1.15
  -3  -5  -9    2.93    1.10
   3   5   9    0.85    0.86
  -3   5  -9    1.54    1.00
   3   5   9    3.06    0.78
  -3   5  -9    3.03    1.03
   4  -5   9   13.09    1.72
  -4  -5  -9   14.09    2.21
   4  -5   9   13.30    1.73
   4  -5   9   12.10    1.58
   4   5   9   11.17    1.68
  -4   5  -9   12.55    1.60
   4   5   9   15.23    2.32
  -4   5  -9   12.21    1.99
   5  -5   9    1.32    1.11
  -5  -5  -9   -0.35    1.53
   5  -5   9    1.69    0.94
   5  -5   9    3.15    0.96
   5   5   9    1.21    1.03
   5   5   9    2.95    1.44
  -5   5  -9   -0.06    1.14
   6  -5   9   17.34    1.78
  -6  -5  -9   16.41    2.53
  -6   5  -9   22.89    2.81
   6   5   9   13.29    2.02
   6   5   9   15.57    2.80
   7  -6  -9    0.84    1.53
  -7  -6   9   -0.10    2.29
  -7  -6   9    0.15    0.81
  -7   6   9   -0.12    1.39
   7   6  -9    1.14    1.20
   7   6  -9   -0.55    1.37
  -6  -6   9   -0.86    1.45
  -6  -6   9    1.39    0.71
   6  -6  -9    0.87    1.18
  -6  -6   9    0.50    1.17
   6   6  -9    0.06    1.12
  -6   6   9   -1.13    1.13
   6   6  -9   -0.10    1.13
  -5  -6   9   -0.28    0.61
  -5  -6   9    3.05    1.14
   5  -6  -9   -0.63    1.61
  -5   6   9    2.66    1.03
   5   6  -9   -0.04    1.01
   5   6  -9    1.33    0.97
   4  -6  -9   -1.04    1.01
  -4  -6   9   -0.41    0.53
  -4  -6   9   -1.42    0.96
  -4   6   9   -0.73    0.90
   4   6  -9    0.73    0.97
   4   6  -9    2.19    1.21
  -3  -6   9   -0.39    0.95
   3  -6  -9   -0.10    1.08
  -3  -6   9    0.52    0.57
  -3   6   9    0.23    0.90
   3   6  -9    0.39    0.82
   3   6  -9    1.08    0.99
   3   6  -9    2.36    1.01
  -2  -6   9    0.07    0.55
  -2  -6   9   -1.39    0.92
   2   6  -9   -0.43    0.79
   2   6  -9    0.16    0.88
  -2   6   9    0.70    1.01
  -2   6   9    1.05    0.86
   1  -6  -9    3.45    1.08
  -1  -6   9    4.71    0.97
  -1  -6   9    4.60    0.66
   1   6  -9    2.38    0.89
  -1   6   9    5.15    0.97
   1   6  -9    4.17    0.99
   0  -6  -9   14.31    1.72
   0  -6   9   16.84    1.63
   0   6  -9   15.57    1.62
   0   6   9   14.46    1.73
   0   6  -9   15.55    1.58
   0   6   9   13.32    1.76
   1  -6   9    8.95    1.46
   1  -6   9    9.22    1.31
  -1  -6  -9    5.84    1.21
   1   6   9    8.16    1.15
  -1   6  -9    5.52    1.11
   1   6   9    6.19    1.08
  -1   6  -9    5.40    1.04
   2  -6   9    1.91    0.92
  -2  -6  -9    2.23    1.26
   2  -6   9    6.01    1.24
   2  -6   9    4.18    0.87
   2   6   9    4.36    1.11
   2   6   9    4.53    1.03
  -2   6  -9    6.94    1.18
  -2   6  -9    2.53    1.01
   3  -6   9   -1.82    0.97
   3  -6   9    1.13    0.98
   3  -6   9   -0.56    0.95
  -3   6  -9   -2.29    1.10
   3   6   9   -0.19    1.08
  -3   6  -9    0.61    1.39
   4  -6   9    0.23    1.05
   4  -6   9   -0.16    1.01
  -4  -6  -9    1.25    1.43
   4  -6   9    2.51    1.87
   4   6   9    0.47    1.11
  -4   6  -9    0.11    1.26
  -4   6  -9    0.17    2.29
  -5  -6  -9   -2.88    1.71
   5  -6   9   -0.36    1.31
  -5   6  -9   -1.98    1.54
   5   6   9   -0.70    2.08
   4  -7  -9    2.75    1.77
  -4  -7   9    4.35    0.89
  -4  -7   9    5.95    1.54
   4   7  -9    1.75    1.43
   4   7  -9    5.70    1.33
  -4   7   9    3.06    1.39
   3  -7  -9   -0.73    1.37
  -3  -7   9    0.58    0.77
  -3  -7   9   -0.32    1.17
   3   7  -9   -1.64    1.22
   3   7  -9    0.30    1.14
  -3   7   9   -2.29    1.26
   3   7  -9   -0.36    1.26
  -2  -7   9    0.38    0.74
  -2  -7   9    3.05    1.15
   2  -7  -9    1.96    1.39
  -2   7   9    1.08    1.17
   2   7  -9    2.09    1.22
  -1  -7   9   -2.30    1.09
  -1  -7   9    0.24    0.99
   1  -7  -9    0.74    1.38
  -1   7   9    0.56    1.40
   1   7  -9    2.13    1.13
  -1   7   9    1.01    1.17
   1   7  -9   -0.90    1.08
   0  -7   9    1.62    1.11
   0  -7  -9    2.34    1.44
   0  -7   9    1.64    0.84
   0   7  -9   -0.26    1.14
   0   7   9    1.70    1.21
   0   7   9   -1.06    1.40
   0   7  -9   -1.13    1.16
   1  -7   9    1.07    0.92
   1  -7   9    0.60    1.12
  -1  -7  -9    0.88    1.49
  -1   7  -9    0.09    1.31
  -1   7  -9    1.72    1.24
   1   7   9    0.52    1.19
   2  -7   9    3.97    1.20
  -2  -7  -9   -0.16    1.61
   2  -7   9   -0.13    1.21
   2  -7   9    2.50    1.14
  -2   7  -9    2.67    1.55
  -2   7  -9    1.04    1.37
   2   7   9   -2.30    1.38
 -11   0  10    0.77    1.39
  10   0 -10   10.57    1.84
   9   0 -10    0.41    0.86
   8   0 -10    1.75    0.79
  -8   0  10    1.19    0.46
   7   0 -10    0.38    0.51
  -7   0  10    0.56    0.72
  -7   0  10   -0.19    0.35
   6   0 -10    0.46    0.41
  -6   0  10    1.28    0.61
  -6   0  10    0.78    0.41
   5   0 -10   -0.06    0.39
  -5   0  10   -0.25    0.40
   5   0 -10    0.43    0.32
  -5   0  10    0.33    0.30
  -5   0  10   -0.13    0.21
   4   0 -10   -0.52    0.28
  -4   0  10    0.15    0.43
  -4   0  10    0.51    0.32
  -4   0  10    0.24    0.22
  -4   0  10    0.39    0.33
  -4   0  10    0.18    0.27
   4   0 -10   -0.02    0.42
  -3   0  10    0.16    0.28
   3   0 -10    0.23    0.39
  -3   0  10    0.01    0.29
  -3   0  10   -0.15    0.26
  -3   0  10   -0.28    0.35
   3   0 -10   -0.07    0.38
  -2   0  10    5.21    0.54
  -2   0  10    5.78    0.90
   2   0 -10    6.19    0.70
  -2   0  10    6.16    0.59
  -2   0  10    4.96    0.48
  -2   0  10    5.76    0.66
   2   0 -10    4.86    0.54
   1   0 -10   -0.01    0.36
  -1   0  10   -0.08    0.27
  -1   0  10    0.05    0.35
  -1   0  10   -0.41    0.34
   1   0 -10   -0.48    0.27
  -1   0  10    0.01    0.22
  -1   0  10   -0.14    0.32
   0   0  10   79.77    2.37
   0   0 -10   83.34    2.32
   0   0 -10   87.04    1.93
   0   0  10   85.84    2.22
   0   0  10   83.18    2.38
   0   0  10   86.90    2.05
  -1   0 -10    0.36    0.30
   1   0  10    0.07    0.37
   1   0  10    0.23    0.35
   2   0  10  146.85    3.51
   2   0  10  146.86    3.46
   2   0  10  143.35    3.41
  -2   0 -10  148.21    2.97
  -2   0 -10  153.22    3.56
  -3   0 -10    0.49    0.54
   3   0  10    0.18    0.44
   3   0  10    0.71    0.39
   3   0  10    0.65    0.44
   4   0  10    1.50    0.45
   4   0  10    1.16    0.48
   4   0  10    1.02    0.45
   4   0  10    1.00    0.46
  -4   0 -10    0.49    0.58
   5   0  10   -0.66    0.51
   5   0  10   -1.17    0.56
   5   0  10   -0.54    0.56
   5   0  10    0.16    0.54
  -5   0 -10   -0.37    0.75
   6   0  10    0.40    1.02
   6   0  10   -0.03    0.76
   7   0  10    0.53    0.88
   8   0  10    2.03    1.01
  11  -1 -10    3.51    1.48
 -11  -1  10    2.06    0.87
 -11  -1  10    3.72    1.57
  11   1 -10   -0.54    1.38
  10  -1 -10    2.83    1.08
 -10  -1  10    4.00    1.10
 -10   1  10    3.26    0.90
   9  -1 -10   -1.45    0.84
  -9   1  10    0.76    0.66
   9   1 -10    0.44    0.84
   8  -1 -10   -0.30    0.68
   8   1 -10   -0.86    0.65
   8   1 -10   -1.19    0.60
  -8   1  10    0.58    0.52
  -7  -1  10    2.86    0.66
   7  -1 -10    2.95    0.63
   7   1 -10    2.66    0.56
  -7   1  10    2.89    0.77
   7   1 -10    3.21    0.93
  -7   1  10    2.18    0.43
  -6  -1  10    9.60    1.03
  -6  -1  10   11.85    0.52
  -6  -1  10   11.09    0.65
  -6  -1  10   10.69    0.93
   6  -1 -10   10.92    0.99
   6   1 -10   11.26    0.74
  -6   1  10   12.62    0.95
   6   1 -10    9.34    0.99
  -6   1  10   11.02    0.70
   6   1 -10   11.65    0.89
   5  -1 -10   10.51    1.21
  -5  -1  10    9.86    1.48
  -5  -1  10   11.94    0.81
  -5   1  10   11.05    0.75
   5   1 -10    9.65    0.82
   5   1 -10   11.07    0.87
  -5   1  10   10.77    0.64
  -5   1  10   10.76    0.85
   5   1 -10   10.26    0.99
   5   1 -10   10.66    0.71
   4  -1 -10   18.13    1.03
  -4  -1  10   18.02    0.93
  -4  -1  10   18.67    1.03
  -4  -1  10   19.25    0.91
   4   1 -10   17.60    1.03
   4   1 -10   18.39    1.03
   4   1 -10   18.70    0.89
  -4   1  10   19.73    1.07
  -4   1  10   17.51    0.78
  -4   1  10   18.16    0.83
   4   1 -10   17.69    0.87
  -3  -1  10    3.36    0.56
  -3  -1  10    3.41    0.56
  -3  -1  10    3.16    0.42
  -3  -1  10    3.42    0.37
   3  -1 -10    3.75    0.65
  -3  -1  10    4.02    0.55
  -3   1  10    3.51    0.53
   3   1 -10    2.93    0.44
   3   1 -10    4.04    0.58
   3   1 -10    3.53    0.54
   3   1 -10    3.49    0.56
  -3   1  10    3.60    0.56
  -3   1  10    3.58    0.50
  -3   1  10    2.71    0.38
  -2  -1  10    0.35    0.24
  -2  -1  10    0.32    0.24
  -2  -1  10    1.05    0.34
  -2  -1  10    0.64    0.33
   2  -1 -10    0.49    0.37
   2   1 -10    0.42    0.28
  -2   1  10    0.66    0.32
  -2   1  10    0.89    0.27
  -2   1  10    0.39    0.41
   2   1 -10   -0.07    0.44
   2   1 -10    0.26    0.34
  -1  -1  10    4.55    0.56
  -1  -1  10    4.53    0.65
  -1  -1  10    4.14    0.66
   1  -1 -10    4.64    0.62
  -1   1  10    3.88    0.57
  -1   1  10    4.96    0.63
  -1   1  10    5.43    0.50
   1   1 -10    4.83    0.44
   0  -1  10    6.96    0.83
   0  -1  10    6.59    0.73
   0  -1 -10    6.04    0.64
   0  -1  10    5.31    0.62
   0   1 -10    8.48    0.58
   0   1 -10    7.17    0.80
   0   1  10    6.68    0.54
   1  -1  10    2.06    0.51
  -1  -1 -10    1.34    0.40
   1  -1  10    1.71    0.40
   1  -1  10    1.96    0.40
   1   1  10    1.51    0.38
   1   1  10    1.19    0.37
  -1   1 -10    1.39    0.50
   1   1  10    1.67    0.43
   2  -1  10   11.07    0.81
   2  -1  10   11.86    0.81
   2  -1  10   11.89    0.76
  -2  -1 -10   10.20    0.83
   2   1  10   10.06    1.11
   2   1  10   10.30    0.83
   2   1  10   10.70    0.86
  -2   1 -10   11.92    0.93
  -3  -1 -10   16.92    1.33
   3  -1  10   17.87    0.97
   3  -1  10   16.52    1.05
   3  -1  10   17.26    1.02
   3   1  10   19.26    1.04
  -3   1 -10   14.79    1.54
   3   1  10   15.35    1.02
   3   1  10   17.25    1.00
   3   1  10   18.16    1.64
   4  -1  10    0.50    0.46
   4  -1  10    0.39    0.45
  -4  -1 -10   -0.10    0.58
   4  -1  10    0.74    0.46
   4   1  10    0.21    0.49
   4   1  10    0.09    0.49
   4   1  10    0.50    0.59
  -4   1 -10    0.87    0.83
   4   1  10    0.12    0.44
   5  -1  10   13.80    1.18
   5  -1  10   18.61    1.20
   5  -1  10   16.42    1.18
   5   1  10   16.38    1.19
  -5   1 -10   17.39    1.44
   5   1  10   15.13    1.21
   6  -1  10   -0.06    0.67
   6   1  10    0.59    0.67
   6   1  10    0.27    0.78
   7  -1  10   13.89    1.52
   7  -1  10   14.15    1.56
   7   1  10   12.65    1.47
   7   1  10   11.86    1.83
   8  -1  10   17.38    1.83
   8   1  10   17.58    1.98
   8   1  10   19.12    2.04
 -10  -2  10    0.07    0.60
  10  -2 -10    0.91    1.12
 -10  -2  10    2.65    1.24
  10   2 -10   -0.72    1.04
 -10   2  10   -0.87    0.94
  -9  -2  10    0.84    1.62
   9  -2 -10   -0.44    0.88
  -9  -2  10    1.39    0.48
   9   2 -10   -1.18    0.89
   9   2 -10    0.41    0.94
  -9   2  10   -0.88    1.43
  -8  -2  10    1.03    0.84
  -8  -2  10    1.13    0.47
  -8   2  10    2.07    0.85
   8   2 -10    2.13    0.70
  -8   2  10    1.75    0.76
   8   2 -10    0.65    0.76
   7  -2 -10   28.15    1.56
  -7  -2  10   24.83    0.84
  -7  -2  10   24.76    1.50
  -7   2  10   23.64    1.25
   7   2 -10   27.74    1.36
   7   2 -10   26.88    1.48
  -7   2  10   28.02    1.51
   6  -2 -10   31.40    1.49
  -6  -2  10   31.85    1.51
   6   2 -10   30.47    1.44
   6   2 -10   29.63    1.29
   6   2 -10   32.25    1.33
  -6   2  10   32.65    1.27
   6   2 -10   28.95    1.56
  -6   2  10   31.59    1.44
   5  -2 -10    0.00    0.43
  -5  -2  10   -0.73    0.46
  -5  -2  10   -0.08    0.45
   5   2 -10   -0.20    0.42
  -5   2  10    0.58    0.33
  -5   2  10   -0.07    0.44
   5   2 -10   -0.14    0.45
   5   2 -10    0.61    0.47
   5   2 -10   -0.33    0.47
   4  -2 -10   -0.47    0.39
  -4  -2  10   -0.17    0.53
  -4  -2  10    0.29    0.52
   4   2 -10    0.77    0.47
  -4   2  10    0.45    0.37
  -4   2  10    0.06    0.41
   4   2 -10    0.84    0.45
   4   2 -10   -0.35    0.39
  -4   2  10    0.19    0.35
   4   2 -10   -0.52    0.57
   3  -2 -10   63.66    2.44
  -3  -2  10   63.71    2.02
  -3  -2  10   64.40    1.98
  -3  -2  10   65.96    1.83
   3   2 -10   64.65    1.77
   3   2 -10   67.01    1.98
   3   2 -10   65.51    2.00
  -3   2  10   67.26    1.81
  -3   2  10   64.94    2.03
   3   2 -10   65.03    2.06
  -3   2  10   64.62    1.81
  -2  -2  10   45.56    2.03
  -2  -2  10   44.35    1.11
  -2  -2  10   43.39    1.12
   2  -2 -10   41.37    1.88
  -2  -2  10   42.79    1.52
  -2  -2  10   44.41    1.31
  -2   2  10   44.31    1.48
   2   2 -10   45.45    1.59
   2   2 -10   43.48    1.24
   2   2 -10   44.37    1.54
  -2   2  10   44.06    1.56
  -1  -2  10    3.46    0.46
   1  -2 -10    2.73    0.60
  -1  -2  10    3.84    0.42
  -1  -2  10    2.86    0.74
  -1  -2  10    3.01    0.50
  -1  -2  10    3.70    0.57
  -1   2  10    2.90    0.54
   1   2 -10    3.51    0.50
  -1   2  10    3.83    0.52
  -1   2  10    3.41    0.58
   1   2 -10    4.19    0.60
   0  -2  10    1.40    0.49
   0  -2  10    1.70    0.41
   0  -2 -10    1.86    0.53
   0  -2  10    1.48    0.29
   0   2 -10    1.14    0.38
   0   2  10    1.78    0.40
   0   2 -10    1.70    0.44
   0   2  10    1.94    0.38
   0   2  10    1.53    0.44
   1  -2  10    1.34    0.38
  -1  -2 -10    1.33    0.55
   1  -2  10    2.13    0.35
   1  -2  10    1.75    0.45
  -1   2 -10    1.76    0.45
  -1   2 -10    1.71    0.54
   1   2  10    1.34    0.42
   1   2  10    2.17    0.46
   1   2  10    2.37    0.44
   1   2  10    1.92    0.58
   2  -2  10    0.74    0.31
   2  -2  10    0.56    0.41
   2  -2  10    0.00    0.35
  -2   2 -10    0.73    0.47
   2   2  10   -0.05    0.47
   2   2  10    0.10    0.37
   2   2  10    0.15    0.39
   3  -2  10    0.94    0.42
  -3  -2 -10   -0.32    0.56
   3  -2  10    0.32    0.41
   3  -2  10    0.98    0.40
   3   2  10   -0.41    0.50
   3   2  10    0.66    0.43
   3   2  10    0.07    0.44
  -3   2 -10    0.08    0.49
   4  -2  10    2.13    0.56
  -4  -2 -10    3.01    0.65
   4  -2  10    3.06    0.53
   4  -2  10    3.19    0.53
   4   2  10    1.24    0.51
   4   2  10    2.13    0.82
   4   2  10    2.48    0.58
   4   2  10    3.15    0.58
  -4   2 -10    1.97    0.62
   5  -2  10    3.62    0.65
  -5  -2 -10    5.12    0.77
   5  -2  10    3.54    0.63
   5  -2  10    3.78    0.77
   5   2  10    4.20    0.77
  -5   2 -10    4.84    0.84
   5   2  10    3.35    0.75
   6  -2  10    5.28    0.83
   6  -2  10    5.00    0.94
   7  -2  10   -0.35    0.87
   7   2  10   -2.02    0.96
   7   2  10   -0.94    0.93
   8  -2  10    0.11    1.16
   8   2  10    2.45    1.29
   8   2  10    1.97    1.22
  10  -3 -10    2.59    1.41
 -10  -3  10    4.56    0.75
 -10  -3  10    3.83    1.45
 -10   3  10    5.51    1.25
  10   3 -10    2.66    1.26
   9  -3 -10    5.15    1.16
  -9  -3  10    4.07    0.59
  -9  -3  10    1.41    1.06
  -9   3  10    5.12    1.01
   9   3 -10    3.66    0.98
   9   3 -10    3.57    1.05
   8  -3 -10    7.21    1.17
  -8  -3  10   10.17    1.39
  -8  -3  10   11.19    0.88
  -8   3  10    9.95    1.55
   8   3 -10   11.07    1.46
  -8   3  10    8.47    1.30
   8   3 -10    9.47    1.25
   7  -3 -10    4.82    1.07
  -7  -3  10    5.97    1.31
  -7   3  10    3.98    0.84
   7   3 -10    4.67    0.82
   7   3 -10    4.74    0.80
   7   3 -10    6.76    0.92
  -7   3  10    4.54    0.73
   6  -3 -10   -0.83    0.64
  -6  -3  10    1.61    0.63
  -6  -3  10    1.15    0.71
   6   3 -10    0.75    0.69
   6   3 -10    1.47    0.48
   6   3 -10    0.28    0.54
   6   3 -10   -0.75    0.53
  -6   3  10    0.14    0.58
  -6   3  10    0.24    0.50
   5  -3 -10    0.99    0.55
  -5  -3  10    0.35    0.51
  -5   3  10    0.71    0.52
   5   3 -10    0.24    0.47
   5   3 -10    1.05    0.47
  -5   3  10    1.29    0.46
   5   3 -10    0.99    0.45
   5   3 -10    0.61    0.51
  -4  -3  10    1.64    0.61
   4  -3 -10    0.58    0.50
  -4  -3  10    0.35    0.46
   4   3 -10   -0.28    0.48
  -4   3  10    1.33    0.42
  -4   3  10    0.92    0.45
   4   3 -10    0.70    0.46
   4   3 -10    0.93    0.49
  -4   3  10    0.79    0.55
   4   3 -10    0.97    0.41
   3  -3 -10    4.24    0.62
  -3  -3  10    3.15    0.63
  -3  -3  10    3.23    0.35
  -3  -3  10    3.28    0.51
  -3  -3  10    3.40    0.59
  -3   3  10    2.96    0.46
  -3   3  10    3.62    0.56
   3   3 -10    3.84    0.59
   3   3 -10    3.09    0.51
   3   3 -10    4.27    0.65
  -3   3  10    2.65    0.57
  -2  -3  10   -0.05    0.76
   2  -3 -10   -0.31    0.48
  -2  -3  10   -0.05    0.38
  -2  -3  10   -0.10    0.21
   2   3 -10    0.44    0.40
  -2   3  10   -0.15    0.39
   2   3 -10    0.24    0.41
  -2   3  10    0.20    0.40
   2   3 -10   -0.46    0.40
  -2   3  10   -0.08    0.49
  -1  -3  10    2.27    0.44
  -1  -3  10    2.04    0.87
   1  -3 -10    1.60    0.50
  -1  -3  10    2.81    0.42
  -1   3  10    2.89    0.53
  -1   3  10    2.34    0.48
  -1   3  10    2.58    0.48
   1   3 -10    2.50    0.47
   1   3 -10    2.76    0.47
   0  -3  10   19.16    1.04
   0  -3  10   19.95    0.85
   0  -3 -10   19.55    1.16
   0  -3  10   20.04    1.02
   0   3  10   20.66    1.09
   0   3  10   20.12    1.70
   0   3 -10   20.93    1.08
   0   3  10   19.06    1.04
   0   3 -10   21.93    1.10
   1  -3  10   29.71    1.28
   1  -3  10   28.57    1.26
   1  -3  10   28.20    1.11
  -1  -3 -10   29.98    2.11
   1   3  10   26.41    1.69
   1   3  10   29.37    1.23
  -1   3 -10   30.03    1.43
   1   3  10   28.80    1.55
   1   3  10   29.88    1.36
  -1   3 -10   29.55    1.31
   2  -3  10    7.62    0.73
  -2  -3 -10    7.75    1.00
   2  -3  10    7.01    1.05
   2  -3  10    9.45    0.91
  -2   3 -10    8.92    0.93
   2   3  10    7.45    0.77
   2   3  10    7.57    0.90
  -2   3 -10    6.84    0.83
   3  -3  10    0.50    0.64
   3  -3  10    0.86    0.43
  -3  -3 -10   -0.12    0.61
   3  -3  10   -0.12    0.48
  -3   3 -10    0.27    0.59
   3   3  10    0.68    0.51
   3   3  10   -0.34    0.54
   3   3  10   -0.24    0.59
   4  -3  10    1.09    0.53
   4  -3  10    1.24    0.57
  -4  -3 -10    0.54    0.75
   4  -3  10    0.57    0.64
   4   3  10    1.80    0.67
   4   3  10    1.34    0.64
  -4   3 -10    1.34    0.69
   5  -3  10   -0.19    0.65
   5  -3  10   -1.34    0.68
  -5  -3 -10   -0.23    0.91
   5  -3  10   -1.13    0.67
  -5   3 -10   -1.26    0.88
   5   3  10   -0.22    0.79
   6  -3  10    2.21    0.85
   6  -3  10    2.32    0.88
  -6  -3 -10    1.59    1.35
   6   3  10    0.83    0.89
   6   3  10    0.77    1.02
   7  -3  10   -0.10    0.95
   7   3  10   -0.37    1.18
   9  -4 -10   -0.54    1.20
  -9  -4  10    0.00    0.61
  -9  -4  10   -0.40    1.30
   9   4 -10    2.19    1.19
  -9   4  10    1.36    1.26
  -8  -4  10    0.45    0.99
  -8  -4  10    1.96    1.06
   8  -4 -10    1.02    1.06
  -8   4  10    0.76    1.00
  -8   4  10    0.96    1.19
   8   4 -10    0.86    1.06
   7  -4 -10    0.50    0.90
  -7  -4  10    0.54    0.46
  -7   4  10    0.72    1.06
   7   4 -10   -0.90    0.73
   7   4 -10   -0.10    0.88
  -6  -4  10    4.06    0.94
  -6  -4  10    5.72    0.66
   6   4 -10    4.40    0.88
  -6   4  10    3.25    0.80
   6   4 -10    5.20    0.74
  -6   4  10    5.30    0.99
   5  -4 -10    8.36    1.27
  -5  -4  10    6.14    0.88
  -5  -4  10    5.94    0.60
  -5   4  10    7.53    1.13
   5   4 -10    7.40    0.95
   5   4 -10    7.18    0.90
  -5   4  10    4.26    0.83
  -4  -4  10    1.66    0.83
  -4  -4  10    2.82    0.70
  -4  -4  10    2.51    0.33
   4  -4 -10    1.82    0.71
   4   4 -10    2.89    0.67
  -4   4  10    2.75    0.57
   4   4 -10    2.02    0.54
   4   4 -10    2.53    0.64
  -4   4  10    2.81    0.93
  -3  -4  10    3.27    0.51
  -3  -4  10    2.08    0.63
   3  -4 -10    3.19    0.71
  -3  -4  10    2.18    0.94
  -3   4  10    4.18    0.72
   3   4 -10    3.37    0.61
  -3   4  10    3.38    0.65
   3   4 -10    5.02    0.80
  -3   4  10    5.78    0.93
  -2  -4  10   41.43    1.28
   2  -4 -10   42.41    1.81
  -2  -4  10   41.05    1.68
  -2   4  10   42.13    1.66
  -2   4  10   42.09    1.66
  -2   4  10   39.37    1.68
   2   4 -10   42.26    1.59
   2   4 -10   41.05    1.64
   2   4 -10   43.73    1.66
  -1  -4  10   18.62    1.16
   1  -4 -10   18.72    1.25
  -1  -4  10   16.88    0.84
  -1   4  10   18.42    1.09
   1   4 -10   17.86    1.11
  -1   4  10   17.49    1.12
   1   4 -10   17.99    1.21
  -1   4  10   17.27    1.17
   0  -4  10    0.12    0.34
   0  -4  10    0.55    0.46
   0  -4 -10    0.28    0.60
   0  -4  10    0.51    0.60
   0   4 -10    0.83    0.54
   0   4 -10    0.38    0.52
   0   4  10    0.46    0.50
   0   4  10    0.64    0.56
   0   4  10    0.68    0.48
   1  -4  10   -0.47    0.47
  -1  -4 -10    0.56    0.64
   1  -4  10    0.94    0.96
   1  -4  10    0.11    0.40
   1   4  10    1.58    0.63
   1   4  10    0.67    0.53
  -1   4 -10   -0.14    0.56
  -1   4 -10    0.13    0.54
   1   4  10   -0.66    0.54
   2  -4  10    0.32    0.46
   2  -4  10   -0.06    0.55
   2  -4  10    1.49    0.61
  -2  -4 -10    0.04    0.72
   2   4  10    0.39    0.60
   2   4  10    1.54    0.61
  -2   4 -10   -0.06    0.68
  -2   4 -10   -0.72    0.60
  -3  -4 -10    0.55    0.87
   3  -4  10    1.59    0.73
   3  -4  10    1.01    0.57
   3  -4  10    0.94    0.65
   3   4  10    2.21    0.75
   3   4  10    2.16    0.80
   3   4  10    1.57    0.62
  -3   4 -10    0.42    0.93
  -3   4 -10    0.12    1.05
   4  -4  10   10.09    1.30
   4  -4  10    9.54    1.23
   4  -4  10    8.51    1.08
  -4  -4 -10   11.83    1.73
   4   4  10    8.24    1.12
   4   4  10    8.17    1.31
  -4   4 -10    7.44    1.54
   5  -4  10    0.70    0.82
  -5  -4 -10    2.18    1.18
   5   4  10    0.78    0.90
  -5   4 -10    2.43    1.18
   6  -4  10    0.92    0.94
  -6  -4 -10    3.04    1.36
  -6   4 -10    3.75    1.56
   6   4  10    0.92    1.30
   6   4  10    1.77    1.04
   7  -4  10    9.76    1.48
  -7  -4 -10    5.23    2.01
   7   4  10    6.62    1.46
   7   4  10    8.97    2.33
  -8  -5  10    2.35    1.54
  -8  -5  10    3.04    0.71
   8  -5 -10    3.86    1.40
   8   5 -10    3.43    1.27
  -8   5  10    2.63    1.48
  -8   5  10    3.08    1.35
  -7  -5  10    2.62    2.46
   7  -5 -10    0.12    1.24
   7   5 -10    1.27    1.28
   7   5 -10    0.62    0.93
  -7   5  10   -0.44    1.01
  -7   5  10   -0.36    1.09
  -6  -5  10    2.06    0.54
   6  -5 -10    2.47    1.07
  -6   5  10    1.94    0.96
   6   5 -10    1.87    0.86
   6   5 -10    0.71    0.92
  -6   5  10    0.24    1.32
  -5  -5  10    1.25    1.07
  -5  -5  10    2.47    0.53
  -5  -5  10    1.76    0.99
   5  -5 -10    1.44    1.21
  -5   5  10    0.90    0.90
   5   5 -10    2.67    0.78
   5   5 -10    3.05    0.98
  -5   5  10    0.72    0.89
   5   5 -10    1.80    0.78
   4  -5 -10    2.81    1.31
  -4   5  10    2.00    1.15
   4   5 -10    1.66    0.97
   4   5 -10    2.71    0.74
  -4   5  10    1.51    0.75
  -3  -5  10    4.66    0.98
   3  -5 -10    6.21    1.14
  -3  -5  10    4.22    1.02
  -3   5  10    4.90    1.00
   3   5 -10    4.19    1.24
  -3   5  10    4.84    0.78
  -3   5  10    5.08    0.86
   3   5 -10    5.16    0.95
   3   5 -10    4.24    0.78
  -2  -5  10    9.37    1.26
   2  -5 -10    7.41    1.08
  -2  -5  10    8.11    0.88
  -2   5  10    7.44    1.18
   2   5 -10   10.37    1.17
   2   5 -10    6.49    0.93
  -2   5  10    9.20    1.29
  -2   5  10    8.78    1.35
  -1  -5  10    6.51    0.96
   1  -5 -10    5.98    1.05
  -1  -5  10    5.33    0.86
  -1   5  10    4.89    0.85
   1   5 -10    5.64    1.26
  -1   5  10    8.88    1.21
  -1   5  10    5.64    0.93
   1   5 -10    5.12    0.99
   0  -5 -10    0.01    0.83
   0  -5  10    0.05    0.76
   0  -5  10    0.44    0.49
   0   5  10    0.13    0.71
   0   5  10    0.52    0.71
   0   5 -10    0.20    0.75
   0   5 -10    1.04    0.75
   1  -5  10    2.86    0.82
   1  -5  10    2.56    1.46
  -1  -5 -10    1.76    1.13
   1  -5  10    0.89    0.59
   1   5  10   -0.16    0.72
   1   5  10    3.03    0.84
  -1   5 -10    0.20    0.98
   2  -5  10   -0.22    0.76
  -2  -5 -10    0.05    1.07
  -2   5 -10    0.85    1.00
   2   5  10    1.47    0.84
   2   5  10    0.05    0.76
   3  -5  10    2.45    0.88
   3  -5  10    2.57    0.79
   3  -5  10    4.75    0.90
  -3  -5 -10    2.97    1.14
  -3   5 -10    1.76    0.99
  -3   5 -10    5.12    1.12
   3   5  10    2.72    1.23
  -4  -5 -10   19.99    2.21
   4  -5  10   15.75    1.71
   4  -5  10   18.50    1.71
   4  -5  10   18.30    1.69
  -4   5 -10   23.29    2.17
   4   5  10   19.22    1.83
  -5  -5 -10   11.42    1.58
   5  -5  10    9.42    1.39
   5  -5  10   10.44    1.69
   5  -5  10    6.73    1.09
  -5   5 -10   11.40    1.62
   5   5  10   10.07    1.34
  -6  -5 -10    5.59    1.77
   6  -5  10   11.27    1.64
   6   5  10    9.47    1.62
  -6   5 -10    8.74    2.00
  -7  -6  10   -0.93    2.19
   7  -6 -10   -1.68    1.72
  -7  -6  10    1.56    0.87
  -7   6  10    1.67    1.51
   7   6 -10   -1.45    1.19
   7   6 -10    2.47    1.85
  -6  -6  10   -0.16    0.67
  -6  -6  10    0.61    1.30
   6  -6 -10   -1.67    1.33
   6   6 -10   -0.01    1.22
  -6   6  10    1.54    1.23
   6   6 -10   -1.27    1.21
  -5  -6  10    3.76    1.18
   5  -6 -10    4.67    1.44
   5   6 -10    4.21    1.12
  -4  -6  10    2.03    0.59
  -4  -6  10    0.02    1.20
   4  -6 -10    0.86    1.18
   4   6 -10    0.67    1.06
   4   6 -10    1.27    1.13
   4   6 -10    0.80    1.01
  -4   6  10   -0.51    0.99
   3  -6 -10    1.29    1.12
  -3  -6  10   -0.69    0.91
  -3  -6  10   -0.87    0.54
   3   6 -10   -0.43    0.98
  -3   6  10   -0.75    0.91
   3   6 -10   -1.33    0.95
   3   6 -10    0.26    0.87
  -2  -6  10   -0.71    0.57
   2  -6 -10   -0.88    1.06
  -2  -6  10    1.02    0.89
   2   6 -10    2.73    0.97
   2   6 -10    0.62    1.28
   1  -6 -10   -1.65    1.25
  -1  -6  10    0.15    0.59
  -1  -6  10    1.52    0.99
   1   6 -10    0.96    0.92
   1   6 -10    1.96    0.97
  -1   6  10    0.28    1.13
  -1   6  10    0.02    0.96
   0  -6 -10    5.91    1.21
   0  -6  10    4.47    0.71
   0  -6  10    6.23    1.03
   0   6 -10    3.53    1.06
   0   6  10    6.51    1.19
   0   6 -10    4.34    1.03
   0   6  10    7.43    1.30
   1  -6  10   55.08    2.40
   1  -6  10   53.61    2.36
  -1  -6 -10   45.84    2.95
   1  -6  10   53.85    2.21
   1   6  10   57.79    2.45
  -1   6 -10   53.31    2.51
   1   6  10   53.47    2.53
  -1   6 -10   55.81    2.52
   2  -6  10    0.09    0.83
   2  -6  10    2.03    0.91
  -2   6 -10   -1.14    1.02
   2   6  10    1.45    1.04
  -2   6 -10    0.68    1.07
   2   6  10   -0.87    1.05
   3  -6  10    2.26    1.53
   3  -6  10    2.45    0.90
  -3  -6 -10    2.08    1.32
   3  -6  10    1.88    1.08
  -3   6 -10    3.23    1.24
  -3   6 -10    0.53    1.28
   3   6  10    2.51    1.13
   4  -6  10   -0.63    1.08
   4  -6  10    1.08    1.19
  -4  -6 -10   -1.60    1.47
   4   6  10    0.50    1.41
  -4   6 -10    1.63    1.48
  -4  -7  10    2.45    1.74
  -4  -7  10    4.34    1.47
   4  -7 -10    2.31    2.41
   4   7 -10    3.66    1.74
  -3  -7  10    3.09    0.89
   3  -7 -10    3.99    1.62
  -3  -7  10    6.43    1.49
  -3   7  10    1.59    1.45
   3   7 -10    3.97    1.38
   3   7 -10    5.17    1.27
  -2  -7  10    2.61    0.85
   2  -7 -10    1.42    1.53
  -2  -7  10    2.30    1.33
  -2   7  10    0.49    1.36
   2   7 -10    2.19    1.29
   2   7 -10    2.63    1.31
   1  -7 -10    0.64    1.54
  -1  -7  10    0.66    0.83
  -1  -7  10    0.46    1.33
  -1   7  10   -0.75    1.31
   1   7 -10   -1.41    1.21
  -1   7  10    1.83    1.95
   1   7 -10    0.32    1.58
   0  -7  10   -0.09    0.90
   0  -7 -10   -2.09    1.55
   0   7  10   -0.86    1.30
   0   7  10    2.91    1.45
   0   7 -10   -1.57    1.42
   0   7 -10   -0.71    1.34
  -1  -7 -10    0.48    1.60
   1  -7  10   -1.57    1.29
   1  -7  10   -2.56    1.17
  -1   7 -10   -0.03    1.46
   1   7  10    0.16    1.34
  -1   7 -10   -1.07    1.45
   1   7  10   -1.55    1.40
  11   0 -11   -1.26    1.37
  10   0 -11   -0.11    1.05
   9   0 -11   12.85    1.62
  -9   0  11   12.43    1.27
   8   0 -11    1.19    0.77
  -8   0  11   -0.02    0.52
   7   0 -11    4.20    1.06
  -7   0  11    3.94    0.75
  -7   0  11    3.75    0.47
   6   0 -11    0.35    0.46
  -6   0  11   -0.16    0.27
  -6   0  11   -0.11    0.46
   5   0 -11    5.72    0.75
  -5   0  11    5.17    0.49
  -5   0  11    5.01    0.74
  -5   0  11    4.89    0.73
   5   0 -11    5.04    0.65
  -5   0  11    4.84    0.68
  -4   0  11   -0.07    0.31
   4   0 -11   -0.28    0.40
  -4   0  11    0.25    0.37
  -4   0  11    0.27    0.21
  -4   0  11   -0.02    0.37
  -4   0  11   -0.31    0.38
   3   0 -11   10.10    0.81
   3   0 -11    9.55    0.81
  -3   0  11   10.25    0.80
  -3   0  11   10.73    0.68
  -3   0  11   10.80    0.54
  -3   0  11   10.37    0.77
  -3   0  11   10.73    0.65
   2   0 -11   -0.19    0.36
  -2   0  11    0.24    0.31
  -2   0  11    0.10    0.34
   2   0 -11   -0.11    0.32
  -2   0  11    0.56    0.23
  -2   0  11   -0.69    0.37
  -2   0  11    0.09    0.38
   1   0 -11    0.32    0.37
  -1   0  11   -0.19    0.37
  -1   0  11    0.04    0.30
  -1   0  11    0.22    0.24
  -1   0  11    0.12    0.32
   0   0  11   -0.05    0.34
   0   0  11    0.15    0.34
   0   0 -11    0.62    0.37
   0   0  11    0.61    0.34
   0   0 -11   -0.13    0.32
   0   0  11    0.20    0.26
   1   0  11   15.38    0.92
   1   0  11   15.30    0.99
   1   0  11   13.63    0.89
   1   0  11   14.97    0.82
  -1   0 -11   14.99    0.90
  -1   0 -11   15.14    1.02
   2   0  11    0.31    0.34
   2   0  11   -0.19    0.39
   2   0  11    0.19    0.43
  -2   0 -11    0.55    0.48
   2   0  11    0.91    0.38
   3   0  11  128.55    3.22
   3   0  11  126.38    3.18
   3   0  11  129.39    3.30
  -3   0 -11  127.22    3.42
   3   0  11  128.33    3.15
   4   0  11   -0.75    0.48
   4   0  11    0.66    0.55
   4   0  11    0.76    0.49
  -4   0 -11   -0.18    0.91
   5   0  11    0.96    0.60
  -5   0 -11    0.64    0.91
   5   0  11    0.31    0.63
   5   0  11    1.65    0.56
   5   0  11    0.54    0.64
   6   0  11   -0.46    0.77
   6   0  11   -0.91    1.05
   7   0  11   -0.69    0.98
   7   0  11    0.47    0.95
   8   0  11    2.59    1.21
 -11  -1  11    3.35    1.69
 -11  -1  11    0.77    0.98
  11  -1 -11    0.88    1.85
  11   1 -11    1.16    1.49
 -10  -1  11    3.56    1.18
 -10  -1  11    1.06    1.05
  10  -1 -11    1.14    1.10
  10   1 -11    4.16    1.15
 -10   1  11    3.26    0.87
   9  -1 -11    0.88    0.93
  -9   1  11    0.63    0.71
   9   1 -11    0.50    0.91
   8  -1 -11    2.28    0.90
   8   1 -11    3.23    0.84
  -8   1  11    2.37    0.68
  -7  -1  11    1.33    0.84
   7  -1 -11   -0.62    0.59
  -7  -1  11    0.08    0.30
   7   1 -11    1.84    0.59
  -7   1  11    0.80    0.57
   7   1 -11    1.16    0.60
  -7   1  11    0.77    0.41
  -6  -1  11    5.86    0.44
  -6  -1  11    5.86    0.95
   6  -1 -11    6.28    0.85
  -6  -1  11    6.43    0.91
   6   1 -11    5.82    0.83
  -6   1  11    6.44    0.65
   6   1 -11    6.29    0.73
  -6   1  11    5.66    0.84
   5  -1 -11    3.07    0.52
  -5  -1  11    3.42    0.69
  -5  -1  11    3.36    0.58
  -5  -1  11    4.44    0.62
   5   1 -11    3.12    0.52
  -5   1  11    3.73    0.53
  -5   1  11    3.14    0.57
   5   1 -11    3.54    0.54
   5   1 -11    3.96    0.58
   5   1 -11    3.05    0.56
  -5   1  11    3.76    0.53
  -4  -1  11   16.14    1.10
  -4  -1  11   18.12    0.98
   4  -1 -11   15.98    0.96
  -4  -1  11   18.01    0.96
   4   1 -11   17.53    0.98
  -4   1  11   16.74    0.75
  -4   1  11   17.64    1.00
   4   1 -11   16.94    0.91
   4   1 -11   16.93    0.96
   4   1 -11   15.35    1.18
  -4   1  11   16.56    0.88
  -3  -1  11   31.49    1.15
  -3  -1  11   30.26    0.83
  -3  -1  11   30.20    1.27
  -3  -1  11   30.56    0.87
  -3   1  11   30.16    1.05
  -3   1  11   30.05    1.16
  -3   1  11   31.24    1.29
   3   1 -11   29.37    1.15
   3   1 -11   30.80    1.26
  -2  -1  11    0.59    0.28
  -2  -1  11    0.34    0.19
   2  -1 -11    1.18    0.48
  -2  -1  11    0.95    0.40
  -2  -1  11    0.19    0.44
  -2   1  11    0.63    0.42
  -2   1  11    0.38    0.26
  -2   1  11    0.33    0.34
   2   1 -11    0.48    0.38
  -1  -1  11   11.65    0.83
   1  -1 -11   10.90    0.84
  -1  -1  11   11.64    0.81
  -1  -1  11   11.71    0.60
  -1  -1  11   11.41    0.84
  -1   1  11   11.01    0.88
  -1   1  11   12.36    0.81
   1   1 -11   12.83    0.88
   1   1 -11   10.97    0.60
  -1   1  11   12.38    0.66
  -1   1  11   11.95    0.72
   0  -1  11    8.61    0.62
   0  -1  11    8.13    0.72
   0  -1  11    8.25    0.82
   0  -1 -11    7.73    0.76
   0   1 -11    8.04    0.78
   0   1  11    9.39    0.75
   0   1  11    8.02    0.68
   0   1  11    8.99    0.65
   0   1  11    9.50    0.74
   1  -1  11    0.14    0.35
   1  -1  11    0.27    0.29
   1  -1  11    0.03    0.51
  -1  -1 -11   -0.11    0.43
  -1   1 -11   -0.10    0.41
   1   1  11    0.53    0.34
   1   1  11    0.68    0.39
   1   1  11    0.31    0.35
   1   1  11   -0.09    0.35
   2  -1  11    1.49    0.65
   2  -1  11    1.68    0.37
  -2  -1 -11    1.63    0.69
   2  -1  11    1.99    0.41
   2   1  11    1.67    0.56
   2   1  11    1.75    0.44
  -2   1 -11    1.61    0.52
   2   1  11    1.45    0.44
   2   1  11    1.83    0.42
   3  -1  11    4.60    0.75
   3  -1  11    4.40    0.62
  -3  -1 -11    3.95    0.60
   3   1  11    4.51    0.70
  -3   1 -11    6.76    0.84
   3   1  11    5.33    0.73
   3   1  11    3.36    0.56
   3   1  11    4.63    0.78
   4  -1  11    1.85    0.51
   4  -1  11    0.87    0.57
   4  -1  11    0.52    0.50
   4   1  11   -0.04    0.86
  -4   1 -11    0.92    0.57
   4   1  11    0.52    0.49
   4   1  11    1.41    0.54
   4   1  11    0.01    0.54
   5  -1  11   13.25    1.18
   5  -1  11   12.54    1.16
   5  -1  11   14.54    1.26
  -5   1 -11   14.90    1.70
   5   1  11   11.88    1.27
   5   1  11   13.07    1.19
   6  -1  11    4.81    0.90
   6  -1  11    5.33    1.00
   6   1  11    5.61    1.06
   6   1  11    6.03    1.10
   7  -1  11    4.49    1.03
   7  -1  11    3.29    0.97
   7   1  11    3.69    1.29
   7   1  11    2.57    0.96
   8  -1  11   12.03    1.65
   8   1  11   16.22    2.84
 -10  -2  11   -0.06    0.59
 -10  -2  11   -0.78    1.29
  10  -2 -11   -1.47    1.13
 -10   2  11    0.01    1.03
  10   2 -11    0.20    1.12
  -9  -2  11    2.08    0.49
   9  -2 -11    0.74    1.03
  -9  -2  11    0.64    1.02
   9   2 -11    0.94    0.91
  -9   2  11    0.83    0.77
   9   2 -11    0.82    1.16
   8  -2 -11    0.19    0.88
  -8   2  11    0.34    0.63
  -8   2  11    1.20    0.86
   8   2 -11   -0.80    0.74
  -7  -2  11    0.55    0.65
   7  -2 -11    0.98    0.72
   7   2 -11   -0.96    0.60
   7   2 -11    0.12    0.62
  -7   2  11    0.39    0.61
  -7   2  11    0.43    0.53
  -6  -2  11    2.90    0.62
   6  -2 -11    2.24    0.61
  -6  -2  11    2.80    0.64
  -6  -2  11    2.47    0.62
  -6   2  11    2.51    0.48
   6   2 -11    2.62    0.60
   6   2 -11    3.39    0.57
   6   2 -11    2.42    0.51
   6   2 -11    3.08    0.59
  -6   2  11    3.15    0.59
  -5  -2  11    2.96    0.68
  -5  -2  11    3.38    0.60
   5  -2 -11    2.66    0.59
  -5  -2  11    3.77    0.67
  -5  -2  11    2.71    0.55
   5   2 -11    3.08    0.60
   5   2 -11    1.97    0.47
  -5   2  11    2.62    0.44
   5   2 -11    2.19    0.52
  -5   2  11    2.92    0.54
   5   2 -11    2.91    0.49
   4  -2 -11   18.58    1.21
  -4  -2  11   19.83    1.12
  -4  -2  11   19.71    1.07
   4   2 -11   18.91    1.07
  -4   2  11   18.68    1.10
   4   2 -11   19.18    1.04
  -4   2  11   20.36    1.01
  -4   2  11   19.93    0.93
   4   2 -11   18.09    1.04
  -3  -2  11   10.15    0.51
  -3  -2  11   11.31    0.96
   3  -2 -11   10.88    0.88
  -3  -2  11   11.43    0.82
  -3  -2  11   10.43    0.85
   3   2 -11   10.89    0.86
  -3   2  11   10.20    0.83
   3   2 -11   11.21    0.82
   3   2 -11   11.20    0.77
  -3   2  11   11.55    0.74
  -3   2  11   11.20    0.88
   2  -2 -11    1.79    0.50
  -2  -2  11    2.65    0.47
  -2  -2  11    2.14    0.43
  -2  -2  11    1.84    0.29
  -2  -2  11    2.44    0.53
  -2   2  11    2.45    0.45
  -2   2  11    1.72    0.80
   2   2 -11    2.34    0.52
   2   2 -11    2.39    0.35
   2   2 -11    1.69    0.44
  -1  -2  11    2.46    0.39
  -1  -2  11    1.95    0.57
  -1  -2  11    2.20    0.51
   1  -2 -11    2.67    0.62
  -1   2  11    2.21    0.46
  -1   2  11    2.95    0.50
  -1   2  11    2.02    0.41
   1   2 -11    2.99    0.47
   1   2 -11    2.56    0.50
   0  -2  11   12.77    0.69
   0  -2  11   13.59    0.87
   0  -2 -11   13.96    1.38
   0  -2  11   15.04    0.94
   0   2 -11   13.56    0.90
   0   2 -11   14.26    0.91
   0   2  11   14.37    0.82
   0   2  11   13.27    0.98
   0   2  11   12.69    0.90
   0   2  11   13.02    0.89
   1  -2  11    3.23    0.53
   1  -2  11    1.97    0.46
  -1  -2 -11    2.14    0.63
   1  -2  11    2.00    0.41
   1   2  11    2.40    0.52
  -1   2 -11    2.42    0.51
   1   2  11    2.68    0.49
   1   2  11    1.90    0.42
   1   2  11    2.67    0.50
   2  -2  11    1.12    0.37
   2  -2  11    0.73    0.41
   2  -2  11    1.34    0.45
  -2  -2 -11    1.07    0.63
   2   2  11    0.47    0.47
   2   2  11    0.50    0.62
   2   2  11    1.10    0.46
   2   2  11    1.09    0.49
  -2   2 -11    1.55    0.50
   3  -2  11    1.39    0.53
  -3  -2 -11    1.21    0.61
   3  -2  11    2.37    0.48
   3  -2  11    3.08    0.56
   3   2  11    2.68    0.86
  -3   2 -11    2.56    0.64
   3   2  11    1.82    0.54
   3   2  11    2.91    0.53
   3   2  11    2.25    0.60
   4  -2  11    3.66    0.63
  -4  -2 -11    3.19    0.71
   4  -2  11    3.20    0.70
   4  -2  11    2.09    0.58
   4   2  11    2.27    0.57
  -4   2 -11    2.48    0.72
   4   2  11    1.43    0.64
   4   2  11    1.97    0.71
   4   2  11    3.25    0.73
   5  -2  11    4.42    0.78
   5  -2  11    4.38    0.77
  -5   2 -11    4.94    0.98
   5   2  11    4.83    0.95
   5   2  11    4.61    0.98
   6  -2  11    1.06    0.85
   6   2  11    1.85    0.87
   6   2  11    1.36    0.97
   7  -2  11    3.15    1.06
   7   2  11    1.43    1.13
   7   2  11    0.52    1.12
   8   2  11    3.46    1.53
 -10  -3  11    2.59    1.59
  10  -3 -11   -0.20    1.47
  10   3 -11    4.31    2.06
  -9  -3  11   24.73    1.19
   9  -3 -11   23.48    2.06
  -9  -3  11   19.87    2.68
  -9   3  11   22.76    2.88
   9   3 -11   27.71    1.99
   8  -3 -11   51.89    3.33
  -8  -3  11   48.21    2.61
  -8   3  11   53.93    2.20
   8   3 -11   50.85    2.39
  -8   3  11   42.77    3.10
  -7  -3  11   23.97    2.32
   7  -3 -11   18.61    2.45
  -7   3  11   24.99    1.73
  -7   3  11   23.55    1.67
   7   3 -11   21.29    1.52
   7   3 -11   22.06    1.22
   7   3 -11   18.68    2.17
  -6  -3  11    0.95    0.71
  -6  -3  11    0.44    0.62
   6  -3 -11   -0.77    0.68
   6   3 -11   -0.34    0.55
  -6   3  11   -0.42    0.61
   6   3 -11    0.60    0.53
   6   3 -11    1.52    0.65
  -6   3  11   -0.29    0.54
   6   3 -11    0.70    0.59
  -5  -3  11    0.72    0.64
   5  -3 -11    1.43    0.61
  -5  -3  11    2.34    0.63
   5   3 -11    1.27    0.49
   5   3 -11    2.48    0.52
  -5   3  11    2.47    0.57
  -5   3  11    0.88    0.49
   5   3 -11    0.58    0.57
  -4  -3  11    5.97    0.90
   4  -3 -11    3.66    0.65
  -4  -3  11    4.79    0.77
   4   3 -11    5.63    0.83
  -4   3  11    4.41    0.76
   4   3 -11    3.94    0.53
  -4   3  11    4.86    0.70
   4   3 -11    5.88    0.81
  -4   3  11    3.58    0.54
  -3  -3  11    0.31    0.22
  -3  -3  11    0.17    0.43
  -3  -3  11    0.55    0.55
   3  -3 -11   -0.27    0.53
  -3  -3  11    0.11    0.33
   3   3 -11   -0.16    0.46
   3   3 -11    1.00    0.46
  -3   3  11    0.00    0.55
  -3   3  11    0.47    0.39
  -3   3  11    0.43    0.48
   3   3 -11    0.11    0.43
  -2  -3  11    1.46    0.46
  -2  -3  11    1.21    0.44
   2  -3 -11    1.39    0.57
  -2  -3  11    1.69    0.27
  -2   3  11    1.88    0.50
   2   3 -11    1.38    0.46
  -2   3  11    0.78    0.54
  -2   3  11    1.88    0.44
  -1  -3  11   -0.06    0.43
  -1  -3  11   -0.05    0.38
  -1  -3  11    0.28    0.26
   1  -3 -11   -1.00    0.51
  -1   3  11   -0.19    0.41
   1   3 -11    0.10    0.42
  -1   3  11    0.03    0.40
   1   3 -11    0.21    0.46
  -1   3  11    0.28    0.43
   0  -3  11    2.08    0.47
   0  -3  11    2.19    0.35
   0  -3  11    2.21    0.49
   0  -3 -11    2.05    0.57
   0   3 -11    2.36    0.53
   0   3  11    1.89    0.46
   0   3  11    2.05    0.50
   0   3 -11    2.36    0.49
   0   3  11    2.19    0.51
   1  -3  11    6.45    0.77
   1  -3  11    5.84    0.65
   1  -3  11    7.10    0.76
  -1   3 -11    4.26    0.66
   1   3  11    5.78    0.72
  -1   3 -11    5.30    0.81
   1   3  11    6.93    0.88
   1   3  11    5.91    0.81
  -2  -3 -11   21.30    1.26
   2  -3  11   18.11    1.11
   2  -3  11   19.83    1.27
   2   3  11   19.42    1.08
   2   3  11   17.69    2.04
   2   3  11   17.81    1.28
  -2   3 -11   16.17    1.30
   3  -3  11    3.47    0.55
   3  -3  11    3.12    0.64
   3  -3  11    2.09    0.68
  -3  -3 -11    6.21    1.06
   3   3  11    2.83    0.76
   3   3  11    2.93    0.70
   3   3  11    3.81    0.60
  -3   3 -11    3.61    0.81
   3   3  11    1.72    0.88
   4  -3  11    3.85    1.20
   4  -3  11    3.61    0.71
  -4  -3 -11    3.43    0.85
   4  -3  11    3.16    0.75
   4   3  11    2.80    0.97
  -4   3 -11    3.21    0.89
   4   3  11    3.67    0.85
   5  -3  11    1.14    0.83
   5  -3  11    0.16    0.88
   5  -3  11    1.65    0.83
   5   3  11   -0.46    0.82
   5   3  11   -0.49    0.97
  -5   3 -11   -1.77    1.14
   6  -3  11    0.70    0.96
   6  -3  11    2.44    0.91
  -6   3 -11   -0.13    1.79
   6   3  11    0.66    1.10
   6   3  11    0.95    0.93
   7  -3  11    1.42    1.16
   7   3  11    1.37    1.15
   7   3  11    0.50    1.36
   9  -4 -11    0.01    1.39
  -9  -4  11   -0.05    1.41
   9   4 -11    1.82    1.26
  -9   4  11    2.69    1.26
   8  -4 -11   -0.43    1.07
  -8  -4  11   -0.22    1.18
  -8   4  11   -1.38    0.95
  -8   4  11   -0.20    1.57
   8   4 -11   -1.94    1.04
   7  -4 -11    0.88    0.97
  -7  -4  11    0.26    1.16
  -7   4  11    1.22    1.04
   7   4 -11    0.76    0.96
  -7   4  11    1.96    0.86
   7   4 -11    0.38    1.38
   6  -4 -11    4.43    1.05
  -6  -4  11    3.61    0.96
  -6   4  11    1.89    0.85
   6   4 -11    2.08    0.74
   6   4 -11    3.31    0.92
  -5  -4  11    3.80    1.30
  -5  -4  11    1.40    1.28
   5  -4 -11    3.82    0.95
   5   4 -11    3.48    0.66
   5   4 -11    4.26    1.01
  -5   4  11    3.15    0.72
  -5   4  11    2.63    0.80
   5   4 -11    1.62    0.67
   4  -4 -11    1.01    0.75
  -4  -4  11   -0.02    0.68
  -4  -4  11    0.28    0.30
   4   4 -11   -0.65    0.65
   4   4 -11    0.70    0.60
   4   4 -11    0.00    0.58
  -4   4  11    0.31    0.61
  -4   4  11    0.20    0.63
   3  -4 -11    0.79    0.69
  -3  -4  11    0.18    0.57
  -3  -4  11   -0.34    0.30
   3   4 -11    1.10    0.59
  -3   4  11    0.30    0.61
  -3   4  11   -0.72    0.94
  -3   4  11    0.32    0.58
   3   4 -11   -0.34    0.56
  -2  -4  11   36.49    1.65
   2  -4 -11   39.21    1.87
  -2  -4  11   35.77    1.21
   2   4 -11   37.27    1.71
  -2   4  11   36.22    1.61
  -2   4  11   37.88    1.58
   2   4 -11   41.58    1.96
  -2   4  11   37.34    1.76
  -1  -4  11   32.01    1.54
  -1  -4  11   31.94    1.21
   1  -4 -11   33.87    1.99
  -1  -4  11   32.53    1.55
  -1   4  11   34.33    1.51
  -1   4  11   32.64    1.53
  -1   4  11   34.15    1.60
   1   4 -11   32.69    1.56
   1   4 -11   32.45    1.58
   0  -4 -11    1.94    0.71
   0  -4  11    3.58    0.68
   0  -4  11    2.38    0.47
   0  -4  11    2.76    0.62
   0   4  11    3.26    0.65
   0   4 -11    2.90    0.67
   0   4  11    2.53    0.58
   0   4  11    2.20    0.69
   0   4 -11    2.50    0.94
   1  -4  11    4.33    0.72
   1  -4  11    3.76    0.73
  -1  -4 -11    3.32    0.79
   1  -4  11    2.45    0.51
  -1   4 -11    2.52    0.70
   1   4  11    3.43    0.67
   1   4  11    4.94    0.76
   1   4  11    4.70    0.66
  -1   4 -11    4.17    0.76
   2  -4  11   -0.66    0.65
   2  -4  11    0.02    0.52
  -2  -4 -11   -0.34    0.77
   2  -4  11   -0.65    0.60
  -2   4 -11    0.02    0.74
   2   4  11    1.04    0.67
  -2   4 -11    0.63    0.76
   2   4  11   -0.10    0.66
   3  -4  11    0.12    0.90
   3  -4  11   -0.01    0.75
   3  -4  11    0.67    0.62
  -3  -4 -11    0.09    1.09
   3   4  11    1.51    0.76
   3   4  11    1.39    0.80
   4  -4  11    0.53    0.82
   4  -4  11   -0.05    0.79
  -4  -4 -11    0.24    1.96
   4  -4  11    1.42    0.89
   4   4  11    0.31    0.87
  -4   4 -11    1.96    1.08
   4   4  11   -0.86    1.23
   5  -4  11    1.67    0.89
  -5  -4 -11    0.53    1.29
   5  -4  11    2.94    0.93
   5  -4  11    3.24    0.93
   5   4  11    1.27    1.39
  -5   4 -11    4.26    1.42
   6  -4  11   22.87    2.12
  -6  -4 -11   16.92    2.61
  -6   4 -11   27.20    2.87
   6   4  11   27.66    2.84
   6   4  11   26.84    2.40
   8  -5 -11    2.59    1.50
  -8  -5  11    1.28    1.74
   8   5 -11   -1.56    1.32
  -8   5  11    0.83    1.51
   7  -5 -11    0.30    1.22
  -7  -5  11   -1.30    1.40
  -7  -5  11    3.64    1.29
  -7   5  11   -0.76    1.16
   7   5 -11   -1.26    1.08
  -7   5  11    0.61    1.11
   7   5 -11   -1.34    0.97
   6  -5 -11   -0.30    1.49
  -6  -5  11   -0.15    1.09
  -6  -5  11    0.53    1.56
  -6  -5  11    0.53    0.49
  -6   5  11   -0.03    0.95
   6   5 -11    1.29    1.05
  -6   5  11    0.71    1.63
   6   5 -11   -0.53    0.89
   5  -5 -11    4.87    1.22
  -5  -5  11    4.28    1.06
  -5  -5  11    6.21    0.83
  -5   5  11    3.01    1.11
   5   5 -11    3.46    0.97
   5   5 -11    3.80    0.91
   5   5 -11    2.10    0.87
  -5   5  11    3.66    1.00
  -4  -5  11    4.00    1.08
   4  -5 -11    4.08    1.13
  -4  -5  11    4.49    0.58
  -4   5  11    5.61    1.05
   4   5 -11    3.95    0.90
   4   5 -11    8.12    1.37
  -4   5  11    2.32    0.85
   4   5 -11    4.84    0.88
   3  -5 -11    0.62    1.00
  -3  -5  11   -0.57    1.09
  -3  -5  11   -0.67    0.47
  -3   5  11    0.46    0.83
  -3   5  11   -0.77    0.82
  -3   5  11   -0.15    0.80
   3   5 -11    0.77    0.87
   3   5 -11    1.77    0.79
   3   5 -11    0.91    0.94
  -2   5  11    4.32    0.93
   2   5 -11    4.09    0.97
  -2   5  11    1.96    0.87
  -1   5  11    0.42    0.80
  -1   5  11   -1.63    1.14
  -1   5  11    0.73    1.00
   0  -5  11    6.37    1.06
   0  -5  11    5.65    0.80
   0  -5  11    8.03    1.32
   0   5  11    4.74    1.07
   0   5 -11    9.73    1.59
   0   5  11    8.44    1.29
   0   5 -11    5.28    1.14
   1  -5  11    0.79    0.80
  -1  -5 -11    1.89    1.12
   1  -5  11    0.09    0.65
   1  -5  11    0.58    0.76
   1   5  11   -0.08    0.84
  -1   5 -11    1.71    0.94
  -1   5 -11    0.02    0.85
   1   5  11    2.10    1.20
   2  -5  11    0.68    0.75
   2  -5  11    1.59    0.84
   2  -5  11    0.33    0.82
  -2  -5 -11    1.34    1.14
  -2   5 -11    0.65    0.96
   2   5  11    2.84    0.93
  -2   5 -11    1.11    0.97
   2   5  11   -0.03    0.87
  -3  -5 -11   -2.08    1.10
   3  -5  11    0.60    0.87
   3  -5  11   -0.02    0.76
   3  -5  11   -0.79    0.93
  -3   5 -11    0.18    1.09
   3   5  11    0.40    0.95
  -3   5 -11   -1.48    1.01
   4  -5  11   10.74    1.72
  -4  -5 -11   11.65    1.46
   4  -5  11   10.40    1.78
   4  -5  11   13.27    1.67
  -4   5 -11   12.74    1.97
   4   5  11   17.20    1.82
   5  -5  11    3.39    1.22
   5  -5  11    1.89    1.36
   5  -5  11    4.13    1.10
  -5  -5 -11    3.18    1.67
   5   5  11    3.16    1.36
  -5   5 -11    1.01    1.52
   6  -6 -11   -1.71    1.53
  -6  -6  11    1.29    0.75
  -6  -6  11   -1.24    1.42
   6   6 -11    0.77    1.14
   6   6 -11   -1.64    1.34
  -6   6  11   -0.13    1.36
  -5  -6  11   -0.39    1.20
   5  -6 -11    1.65    1.42
  -5  -6  11    1.16    0.63
   5   6 -11   -0.10    1.04
   5   6 -11    1.05    1.18
  -5   6  11    1.88    1.16
  -4  -6  11    2.34    1.16
   4  -6 -11    2.56    1.29
  -4  -6  11    1.27    0.61
   4   6 -11    3.18    1.12
   4   6 -11    1.86    1.02
   4   6 -11    2.96    1.12
  -4   6  11    2.89    1.22
  -3  -6  11    0.58    0.71
  -3  -6  11   -0.08    0.99
   3  -6 -11    0.27    1.27
   3   6 -11    0.60    0.97
  -3   6  11   -1.86    1.01
   3   6 -11    0.44    0.96
  -2  -6  11    0.54    0.99
   2  -6 -11   -1.23    1.12
  -2   6  11    0.98    1.02
   2   6 -11    0.39    1.01
  -2   6  11    1.16    1.30
  -1  -6  11   -1.17    0.60
  -1  -6  11   -0.49    1.08
   1  -6 -11    1.81    1.15
   1   6 -11    0.43    1.04
  -1   6  11   -0.07    1.14
   1   6 -11   -0.01    1.02
  -1   6  11   -1.88    1.02
   0  -6  11    2.76    1.55
   0  -6 -11    3.08    1.22
   0  -6  11    0.77    0.78
   0  -6  11    3.06    1.06
   0   6  11    2.27    1.18
   0   6 -11    2.14    1.13
   0   6 -11    4.12    1.07
   0   6  11    2.63    1.09
   1  -6  11    2.42    0.82
  -1  -6 -11    4.01    2.08
   1  -6  11    3.77    1.03
   1  -6  11    2.66    1.01
   1   6  11    3.81    1.88
   1   6  11    3.53    1.14
  -1   6 -11    1.94    1.13
  -1   6 -11    3.31    1.11
   2  -6  11    7.30    0.99
   2  -6  11    5.01    1.15
  -2  -6 -11    2.33    1.35
   2  -6  11    5.34    1.14
   2   6  11    6.98    1.22
  -2   6 -11    6.20    1.33
  -2   6 -11    3.88    1.22
   2   6  11    5.53    1.29
   3  -6  11   -0.91    1.69
  -3  -6 -11   -1.34    1.53
   3  -6  11   -0.23    0.96
   3   6  11   -2.17    1.32
  -3   6 -11   -1.84    1.33
  -3   6 -11   -0.02    1.37
   2  -7 -11    9.69    2.33
  -2  -7  11    8.43    1.86
  -2  -7  11    3.32    1.03
   2   7 -11    5.24    1.89
   2   7 -11    6.55    1.50
  -2   7  11    4.60    1.53
   1  -7 -11    3.61    2.15
  -1  -7  11    2.01    1.02
  -1  -7  11    4.22    1.59
   1   7 -11    3.59    1.49
  -1   7  11    3.55    1.52
  -1   7  11    5.30    1.86
   0  -7  11    2.51    1.61
   0  -7  11    2.58    1.24
   0   7 -11   -3.05    1.51
   0   7 -11   -0.81    2.06
   0   7  11    0.77    1.59
   0   7  11   -0.73    1.48
  10   0 -12    1.02    1.13
  -9   0  12    1.16    0.72
   9   0 -12    0.66    0.95
  -7   0  12   -0.02    0.38
  -7   0  12    1.50    0.83
   6   0 -12   41.64    1.67
  -6   0  12   37.73    1.19
  -6   0  12   40.39    1.58
   5   0 -12   -0.03    0.44
  -5   0  12    0.13    0.41
  -5   0  12   -0.87    0.45
  -5   0  12    0.08    0.26
  -4   0  12    0.43    0.56
   4   0 -12    0.25    0.42
  -4   0  12    0.37    0.47
  -4   0  12    0.98    0.49
  -3   0  12   -0.42    0.33
  -3   0  12    0.23    0.22
  -3   0  12    0.08    0.45
  -3   0  12    0.09    0.43
   3   0 -12    0.33    0.45
   3   0 -12    0.15    0.36
  -3   0  12    0.48    0.38
  -2   0  12    3.62    0.44
  -2   0  12    4.21    0.60
   2   0 -12    3.26    0.49
   2   0 -12    4.36    0.64
  -2   0  12    4.45    0.67
  -1   0  12   -0.70    0.36
   1   0 -12    0.07    0.56
   1   0 -12   -0.20    0.35
  -1   0  12   -0.21    0.24
  -1   0  12    0.38    0.38
  -1   0  12   -0.33    0.36
   0   0  12    0.65    0.31
   0   0 -12    0.77    0.36
   0   0  12    0.37    0.42
   0   0  12    0.44    0.34
   0   0  12    0.21    0.35
   0   0 -12    0.01    0.40
   1   0  12    0.27    0.31
   1   0  12    0.91    0.56
   1   0  12    0.65    0.38
  -1   0 -12    0.27    0.45
   1   0  12   -0.93    0.47
   2   0  12  135.10    3.34
   2   0  12  136.96    3.30
   2   0  12  131.88    4.03
  -2   0 -12  136.59    3.38
   2   0  12  135.49    3.59
   3   0  12    0.18    0.52
   3   0  12    0.24    0.44
  -3   0 -12   -0.08    0.54
   3   0  12   -0.92    0.47
   3   0  12    0.04    0.44
   4   0  12    0.80    0.56
   4   0  12   -0.53    0.61
   4   0  12    1.55    0.52
  -4   0 -12    2.02    0.69
   4   0  12    1.10    0.61
   5   0  12   -1.06    1.09
   5   0  12   -0.74    0.68
   5   0  12    0.99    0.72
   6   0  12    0.14    0.88
   6   0  12    1.12    0.84
   7   0  12   -0.46    0.99
   7   0  12    0.04    1.00
 -10  -1  12    3.34    0.66
 -10  -1  12    4.92    1.25
  10  -1 -12    4.33    1.24
 -10   1  12    2.92    0.92
   9  -1 -12    6.71    1.17
   9   1 -12    6.74    1.14
  -9   1  12    6.70    0.91
   8  -1 -12    2.66    0.92
  -8   1  12    1.77    0.63
  -7  -1  12    1.70    0.38
  -7  -1  12    3.07    0.74
   7  -1 -12    2.32    0.77
   7   1 -12    2.78    0.68
  -7   1  12    1.95    0.51
  -7   1  12    2.32    0.68
  -6  -1  12    0.23    1.16
   6  -1 -12    3.97    0.74
  -6  -1  12    2.93    0.74
  -6   1  12    2.13    0.42
   6   1 -12    1.62    0.75
  -6   1  12    2.99    0.58
   5  -1 -12    0.23    0.47
  -5  -1  12    0.72    0.57
  -5  -1  12    0.59    0.46
  -5  -1  12    0.39    0.61
   5   1 -12    0.91    0.53
   5   1 -12    0.52    0.45
   5   1 -12    0.84    0.44
  -5   1  12    0.24    0.54
  -5   1  12    0.71    0.43
  -5   1  12    0.34    0.32
  -4  -1  12   25.91    1.17
  -4  -1  12   24.68    1.18
  -4  -1  12   25.01    0.80
  -4  -1  12   25.97    1.22
  -4  -1  12   24.63    0.72
  -4   1  12   25.51    1.20
   4   1 -12   25.34    1.97
  -4   1  12   25.08    1.19
   4   1 -12   24.78    1.18
  -4   1  12   24.74    0.95
  -3  -1  12   77.01    1.74
  -3  -1  12   76.28    2.19
  -3  -1  12   72.25    3.02
   3  -1 -12   79.77    2.26
  -3  -1  12   77.90    2.06
  -3  -1  12   76.59    1.69
  -3   1  12   78.74    2.30
   3   1 -12   77.62    2.78
   3   1 -12   76.10    2.06
  -3   1  12   74.73    1.94
  -2  -1  12    3.60    0.75
   2  -1 -12    4.02    0.64
  -2  -1  12    4.58    0.71
  -2  -1  12    5.50    0.72
  -2  -1  12    3.76    0.56
  -2  -1  12    3.75    0.44
  -2   1  12    3.88    0.57
   2   1 -12    4.81    0.66
  -2   1  12    4.14    0.59
  -2   1  12    3.82    0.54
   2   1 -12    3.55    0.60
   1  -1 -12   26.06    1.21
  -1  -1  12   27.69    1.40
  -1  -1  12   26.49    1.21
  -1  -1  12   26.80    0.93
   1   1 -12   25.51    1.23
  -1   1  12   27.91    0.99
   1   1 -12   26.68    0.96
  -1   1  12   24.19    1.34
  -1   1  12   26.97    1.24
  -1   1  12   27.07    1.20
   0  -1  12   13.59    0.94
   0  -1  12   14.01    0.72
   0  -1 -12   14.10    0.96
   0   1 -12   15.99    0.94
   0   1  12   15.45    0.98
   0   1  12   13.57    0.86
   0   1  12   14.05    0.81
   0   1  12   13.74    1.43
  -1  -1 -12    2.92    0.56
   1  -1  12    4.18    0.56
   1  -1  12    3.10    0.54
   1  -1  12    3.57    0.58
   1   1  12    2.78    0.43
   1   1  12    2.93    0.48
   1   1  12    4.59    0.65
  -1   1 -12    3.65    0.56
   1   1  12    3.09    0.59
   2  -1  12   10.81    0.87
  -2  -1 -12   12.18    1.00
   2  -1  12    8.45    0.75
   2  -1  12   10.45    0.90
   2   1  12   10.09    0.85
   2   1  12   10.33    0.82
  -2   1 -12   10.04    0.91
   2   1  12    9.79    0.89
   2   1  12   10.13    0.94
   3  -1  12    1.02    0.53
   3  -1  12    0.88    0.45
   3   1  12    1.42    0.51
   3   1  12    1.20    0.53
   3   1  12    0.88    0.49
   3   1  12    1.83    0.56
  -3   1 -12    1.21    0.58
   4  -1  12   -0.82    0.62
   4  -1  12    0.21    0.57
   4  -1  12    1.00    0.55
   4   1  12    0.62    0.56
  -4   1 -12    0.01    0.69
   4   1  12    0.69    0.61
   4   1  12    0.81    0.59
   5  -1  12    1.96    0.97
   5  -1  12    3.56    0.70
   5  -1  12    2.96    0.72
   5  -1  12    2.63    0.79
  -5   1 -12    2.38    0.96
   5   1  12    2.53    0.86
   6  -1  12    2.21    0.92
   6  -1  12    2.54    0.91
   6   1  12    2.93    0.95
   6   1  12    3.22    0.99
   7  -1  12   -1.54    1.05
   7  -1  12   -1.74    0.96
   7   1  12    1.53    1.07
 -10  -2  12    0.04    1.31
 -10  -2  12    2.05    0.62
  10  -2 -12    0.59    1.32
 -10   2  12    2.68    1.01
  10   2 -12   -0.95    1.39
   9  -2 -12    8.37    1.20
  -9  -2  12    8.88    1.36
  -9   2  12    8.66    1.18
   9   2 -12    6.82    1.10
   8  -2 -12    0.87    0.88
  -8  -2  12   -0.28    0.93
  -8   2  12    1.08    0.65
  -8   2  12    1.41    0.97
   8   2 -12   -0.98    0.81
   8   2 -12    0.14    0.84
   7  -2 -12    0.63    0.79
  -7  -2  12    0.40    0.74
  -7   2  12   -1.20    0.67
   7   2 -12    0.60    0.66
  -7   2  12    0.10    0.54
   7   2 -12   -0.64    0.69
  -6  -2  12    1.23    0.64
  -6  -2  12   -0.05    0.53
   6  -2 -12    0.68    0.67
  -6  -2  12    0.09    0.64
  -6  -2  12   -0.01    0.58
   6   2 -12    0.76    0.49
   6   2 -12    1.71    0.56
   6   2 -12    1.64    0.57
  -6   2  12    0.41    0.56
  -6   2  12    0.85    0.47
   6   2 -12    0.86    0.57
   5  -2 -12    6.52    0.96
  -5  -2  12    4.73    1.01
  -5  -2  12    5.93    1.29
  -5  -2  12    6.88    1.12
  -5  -2  12    4.48    0.82
  -5   2  12    6.80    0.84
   5   2 -12    6.40    0.86
  -5   2  12    7.30    0.77
   5   2 -12    4.98    0.82
   5   2 -12    5.48    0.74
   5   2 -12    6.71    0.82
   4  -2 -12   22.85    1.19
  -4  -2  12   23.99    1.19
  -4  -2  12   25.35    1.22
  -4  -2  12   22.00    1.39
  -4  -2  12   24.07    1.23
   4   2 -12   22.84    1.20
   4   2 -12   21.88    1.12
  -4   2  12   23.77    1.08
  -4   2  12   22.89    1.22
   4   2 -12   23.45    1.25
   4   2 -12   26.25    1.20
  -4   2  12   23.86    1.26
  -3  -2  12    4.70    0.75
   3  -2 -12    3.41    0.57
  -3  -2  12    5.14    0.73
  -3  -2  12    4.25    0.38
  -3  -2  12    4.46    0.65
  -3   2  12    4.48    0.68
  -3   2  12    4.74    0.63
   3   2 -12    3.33    0.50
   3   2 -12    4.29    0.69
   3   2 -12    6.01    0.75
  -3   2  12    4.36    0.71
  -2  -2  12    0.13    0.37
   2  -2 -12   -0.65    0.48
  -2  -2  12    0.09    0.43
  -2  -2  12   -0.08    0.37
  -2  -2  12    0.40    0.23
   2   2 -12    1.15    0.44
  -2   2  12    0.34    0.44
  -2   2  12   -0.19    0.37
  -2   2  12    0.38    0.38
  -1  -2  12    8.02    0.78
  -1  -2  12    7.59    0.92
  -1  -2  12    8.18    0.57
   1  -2 -12    7.46    0.94
  -1   2  12    8.97    0.78
   1   2 -12    8.89    0.76
   1   2 -12    6.93    0.78
  -1   2  12    8.89    0.88
  -1   2  12    8.27    0.74
   0  -2 -12   11.03    1.03
   0  -2  12   12.31    0.89
   0  -2  12   11.65    0.71
   0  -2  12   12.22    0.88
   0   2  12   12.18    0.91
   0   2 -12   12.69    0.94
   0   2  12    9.40    0.82
   0   2  12   13.49    1.07
   1  -2  12    0.81    0.47
  -1  -2 -12   -0.45    0.55
   1  -2  12    0.11    0.34
   1  -2  12    0.31    0.42
   1   2  12    0.32    0.46
   1   2  12   -0.07    0.41
   1   2  12    0.78    0.43
   1   2  12    0.44    0.57
  -1   2 -12    0.22    0.50
  -2  -2 -12   -0.93    0.62
   2  -2  12    0.66    0.40
   2  -2  12    1.50    0.50
   2  -2  12    1.32    0.51
   2   2  12    0.91    0.50
   2   2  12    0.64    0.47
   2   2  12   -0.39    0.65
   2   2  12    0.97    0.51
  -2   2 -12   -0.59    0.55
   3  -2  12   -0.28    0.54
   3  -2  12   -0.34    0.71
  -3  -2 -12   -0.61    0.65
   3  -2  12   -0.62    0.51
   3   2  12    0.07    0.58
  -3   2 -12   -0.96    0.89
   3   2  12    0.62    0.67
   3   2  12   -0.30    0.56
   3   2  12    0.44    0.53
   4  -2  12   -0.39    0.66
   4  -2  12   -0.78    0.70
   4  -2  12   -0.55    0.61
   4   2  12   -0.66    0.67
   4   2  12   -0.28    0.61
   4   2  12   -0.83    0.68
  -4   2 -12   -0.10    0.85
   5  -2  12    4.54    0.88
   5  -2  12    3.69    0.91
  -5   2 -12    7.66    1.28
   5   2  12    4.38    0.94
   6  -2  12   -1.10    0.87
   6  -2  12   -0.54    0.90
   6   2  12    0.18    1.07
   7   2  12    5.34    1.42
   7   2  12    3.98    1.21
   9  -3 -12    0.71    1.21
  -9  -3  12    3.36    1.33
  -9   3  12   -0.32    0.92
   9   3 -12    2.16    1.24
   9   3 -12   -1.20    1.38
   8  -3 -12   -0.57    1.06
  -8  -3  12   -1.41    1.05
   8   3 -12    1.31    0.92
  -8   3  12    1.43    1.22
   8   3 -12    0.76    0.96
  -8   3  12    0.87    0.78
  -7  -3  12   29.22    2.18
   7  -3 -12   32.25    1.98
  -7   3  12   29.73    1.74
  -7   3  12   22.89    2.16
   7   3 -12   25.30    1.84
   7   3 -12   27.63    2.03
   7   3 -12   28.73    1.85
  -6  -3  12   35.88    1.65
  -6  -3  12   34.95    1.82
  -6  -3  12   33.33    2.12
   6  -3 -12   38.11    1.97
  -6  -3  12   32.25    1.68
  -6   3  12   35.31    1.71
   6   3 -12   35.37    1.50
  -6   3  12   34.70    1.83
   6   3 -12   32.44    1.66
   6   3 -12   30.28    1.59
   6   3 -12   32.30    1.45
  -5  -3  12    2.46    0.61
  -5  -3  12    2.86    0.66
   5  -3 -12    2.79    0.74
  -5  -3  12    3.21    1.09
   5   3 -12    2.52    0.57
   5   3 -12    2.67    0.60
  -5   3  12    2.78    0.72
   5   3 -12    2.62    0.62
  -5   3  12    2.78    0.57
   5   3 -12    3.05    0.56
  -4  -3  12    3.99    0.79
  -4  -3  12    5.25    0.79
  -4  -3  12    4.21    0.70
   4   3 -12    7.32    0.90
   4   3 -12    4.48    0.64
   4   3 -12    4.88    0.64
  -4   3  12    7.42    0.95
  -4   3  12    6.10    0.94
  -3  -3  12    6.71    0.86
  -3  -3  12    4.87    0.78
   3  -3 -12    5.64    0.96
  -3  -3  12    5.49    0.84
  -3  -3  12    6.16    0.46
   3   3 -12    6.30    0.85
  -3   3  12    7.24    0.96
  -3   3  12    6.36    0.81
   3   3 -12    7.14    0.91
  -3   3  12    5.48    0.87
  -2  -3  12    2.80    0.57
  -2  -3  12    2.98    0.48
  -2  -3  12    2.14    0.51
   2  -3 -12    3.52    0.65
   2   3 -12    2.88    0.65
   2   3 -12    3.15    0.55
  -2   3  12    2.58    0.55
  -2   3  12    1.80    0.51
  -2   3  12    2.38    0.47
  -1  -3  12   -0.45    0.28
  -1  -3  12    0.53    0.49
  -1  -3  12    0.36    0.48
   1  -3 -12    0.19    0.58
  -1   3  12    0.11    0.60
   1   3 -12    0.23    0.50
  -1   3  12   -0.27    0.48
  -1   3  12   -0.25    0.47
   1   3 -12    0.41    0.47
   0  -3  12    0.56    0.47
   0  -3 -12   -0.27    0.74
   0  -3  12    0.83    0.35
   0  -3  12    1.20    0.51
   0   3 -12    1.54    0.58
   0   3  12    0.37    0.52
   0   3 -12    0.58    0.50
   0   3  12    1.19    0.50
   0   3  12    0.78    0.52
   1  -3  12    1.32    0.39
  -1  -3 -12    1.75    0.69
   1  -3  12    0.61    0.52
   1  -3  12    1.30    0.65
   1   3  12    0.14    0.53
  -1   3 -12    0.50    0.62
   1   3  12    1.17    0.54
   1   3  12    1.68    0.56
  -1   3 -12    1.24    0.57
   2  -3  12    0.89    0.65
  -2  -3 -12    0.84    0.96
   2  -3  12    0.28    0.43
   2   3  12   -0.12    0.56
   2   3  12    0.30    0.62
   2   3  12   -0.20    0.62
  -2   3 -12   -0.13    0.69
  -3  -3 -12   15.39    1.66
   3  -3  12   15.23    1.49
   3  -3  12   13.38    1.34
   3  -3  12   15.23    1.26
   3   3  12   16.68    1.40
   3   3  12   16.73    1.42
   3   3  12   16.73    1.20
  -3   3 -12   15.74    1.51
  -4  -3 -12   -1.87    1.35
   4  -3  12    0.57    0.74
   4  -3  12    0.92    0.83
   4   3  12    1.58    0.93
  -4   3 -12    1.22    1.64
   4   3  12    1.07    0.83
   5  -3  12    0.63    0.93
   5  -3  12    0.52    0.87
   5  -3  12    1.36    0.88
   5   3  12    0.40    1.15
  -5   3 -12    2.18    1.34
   5   3  12   -0.61    0.95
   6  -3  12   -0.33    0.98
   6  -3  12    1.12    0.98
   6   3  12    0.79    1.02
   6   3  12    3.09    2.03
  -9  -4  12    2.53    1.71
   9  -4 -12    4.64    1.98
  -9   4  12    0.60    1.33
   9   4 -12    1.69    1.38
  -8  -4  12    0.06    2.28
   8  -4 -12    1.43    1.19
   8   4 -12   -2.25    1.08
  -8   4  12    0.71    1.88
  -8   4  12   -0.97    1.50
   7  -4 -12    0.10    1.10
  -7  -4  12    4.14    1.32
  -7  -4  12   -0.80    1.20
   7   4 -12   -0.14    0.97
  -7   4  12   -0.68    0.97
  -7   4  12    0.84    0.92
   7   4 -12    1.20    0.93
  -6  -4  12    2.87    1.08
   6  -4 -12    1.49    0.99
  -6  -4  12    0.11    1.08
   6   4 -12    2.92    0.95
   6   4 -12    1.64    0.80
  -6   4  12    1.03    0.94
  -6   4  12    2.58    0.86
   5  -4 -12    1.12    1.05
  -5  -4  12    1.65    0.93
  -5   4  12    2.20    0.75
   5   4 -12    0.75    0.71
   5   4 -12    1.38    0.83
   5   4 -12    0.69    0.73
  -4  -4  12    0.86    0.34
   4  -4 -12    1.60    0.89
  -4  -4  12    0.13    0.89
  -4   4  12    0.49    0.77
   4   4 -12   -0.09    0.70
   4   4 -12    0.23    0.72
  -4   4  12   -0.24    0.64
   4   4 -12    0.78    0.69
   3  -4 -12    3.35    0.87
  -3  -4  12    3.01    0.79
  -3  -4  12    2.98    0.41
  -3   4  12    2.86    0.68
   3   4 -12    3.45    0.72
   3   4 -12    3.50    0.70
  -3   4  12    2.69    0.80
  -3   4  12    3.21    0.72
   2  -4 -12    0.05    0.80
  -2  -4  12    0.33    0.35
  -2  -4  12    0.79    0.63
  -2  -4  12    0.94    0.66
  -2   4  12   -0.01    0.63
  -2   4  12    0.64    0.57
   2   4 -12   -1.13    0.61
   2   4 -12   -0.67    0.64
  -2   4  12   -0.30    0.62
  -1  -4  12   31.37    1.27
  -1  -4  12   29.88    1.66
   1  -4 -12   31.68    2.18
  -1  -4  12   30.31    1.67
  -1   4  12   31.76    1.56
  -1   4  12   31.37    1.65
   1   4 -12   33.26    1.69
   1   4 -12   31.77    1.63
   0  -4 -12    0.41    0.82
   0  -4  12    0.53    0.44
   0  -4  12    0.63    0.65
   0  -4  12    1.07    0.64
   0   4 -12    1.27    0.76
   0   4  12    0.75    0.67
   0   4  12    1.67    0.65
   0   4  12    1.06    0.66
   0   4 -12   -1.02    0.70
  -1  -4 -12    0.03    0.81
   1  -4  12    0.67    0.66
   1  -4  12    0.32    0.66
   1  -4  12    0.50    0.51
  -1   4 -12   -0.65    0.96
  -1   4 -12    0.28    0.74
   1   4  12    0.16    0.70
   1   4  12   -0.29    0.68
   2  -4  12    2.86    0.91
  -2  -4 -12    1.53    1.12
   2   4  12    1.74    0.85
  -2   4 -12    0.22    1.18
   2   4  12    1.08    0.75
  -3  -4 -12   -1.22    1.83
   3  -4  12    1.04    0.80
   3  -4  12    0.05    0.67
   3  -4  12    0.71    0.85
   3   4  12   -1.40    0.78
  -3   4 -12   -0.90    0.94
   3   4  12    0.54    0.84
   4  -4  12   -0.25    0.76
   4  -4  12   -0.18    0.84
   4  -4  12   -0.16    0.83
  -4  -4 -12    1.82    1.37
   4   4  12    1.73    0.91
  -4   4 -12    1.51    1.16
  -5  -4 -12    1.80    1.38
   5  -4  12    2.61    1.05
   5  -4  12    2.40    1.02
   5  -4  12    2.10    0.99
   5   4  12    2.02    1.05
  -5   4 -12    6.09    1.53
   6  -4  12   20.50    3.19
   6   4  12   20.81    2.46
  -7  -5  12   -1.99    1.30
   7  -5 -12    0.50    1.34
   7   5 -12    1.14    1.05
  -7   5  12    1.77    1.18
  -7   5  12   -0.07    1.19
   7   5 -12    2.15    1.20
   6  -5 -12   -1.68    1.81
  -6  -5  12    1.47    1.22
   6   5 -12    0.01    1.72
   6   5 -12   -0.32    0.93
  -6   5  12    0.26    1.06
  -6   5  12    1.39    1.07
   5  -5 -12    5.88    1.28
  -5  -5  12    6.20    0.85
  -5  -5  12    3.95    1.19
  -5   5  12    7.59    1.21
   5   5 -12    4.16    0.94
   5   5 -12    4.82    1.06
  -5   5  12    3.19    1.05
  -4  -5  12    4.46    1.07
   4  -5 -12    4.34    1.09
  -4  -5  12    6.37    0.86
  -4   5  12    6.08    1.11
   4   5 -12    3.03    0.96
   4   5 -12    4.88    1.32
   4   5 -12    6.40    0.95
  -3  -5  12    0.39    0.86
  -3  -5  12    0.66    0.47
   3  -5 -12   -0.48    1.09
   3   5 -12    0.72    0.83
   3   5 -12    0.04    0.97
  -3   5  12   -0.54    0.88
  -3   5  12    0.34    0.83
   2  -5 -12   21.72    1.92
  -2  -5  12   16.80    1.51
  -2  -5  12   18.66    1.78
   2   5 -12   18.20    1.55
  -2   5  12   19.47    1.64
  -2   5  12   14.78    1.68
   2   5 -12   18.79    1.64
  -2   5  12   17.73    1.91
  -1  -5  12    1.34    0.85
  -1  -5  12    1.01    0.53
  -1  -5  12    2.18    0.92
   1  -5 -12    2.61    1.14
  -1   5  12    2.99    1.83
   1   5 -12    1.32    0.87
  -1   5  12    3.58    0.89
   0  -5  12   21.87    1.38
   0  -5  12   21.43    1.66
   0  -5 -12   21.65    2.10
   0  -5  12   24.39    1.73
   0   5 -12   24.64    1.68
   0   5 -12   23.73    1.82
   0   5  12   23.49    1.79
   0   5  12   25.43    1.81
  -1  -5 -12   22.63    2.09
   1  -5  12   19.34    1.88
   1  -5  12   20.48    1.59
   1   5  12   21.25    1.80
  -1   5 -12   18.02    1.81
   1   5  12   22.94    1.75
  -1   5 -12   18.04    2.11
   2  -5  12    0.42    0.70
   2  -5  12   -0.30    0.85
  -2  -5 -12    0.60    1.22
   2  -5  12   -0.87    0.85
  -2   5 -12   -0.30    0.93
   2   5  12    0.35    0.93
   2   5  12   -0.64    0.97
  -2   5 -12   -0.32    1.03
   3  -5  12   -0.96    0.98
   3  -5  12   -1.01    0.93
  -3  -5 -12    1.72    1.29
   3  -5  12    0.39    0.82
   3   5  12    1.59    1.03
  -3   5 -12    1.59    1.20
  -4  -5 -12    0.73    1.46
   4  -5  12    0.03    1.25
   4  -5  12   -0.30    0.95
   4  -5  12    0.29    1.07
   4   5  12   -0.01    1.22
  -4   5 -12    0.37    1.36
  -6  -6  12    1.60    1.91
   6   6 -12   -1.24    1.29
   6   6 -12   -1.18    1.78
  -6   6  12    0.12    1.87
  -5  -6  12    8.04    1.18
  -5  -6  12    6.75    1.53
   5  -6 -12    6.30    1.72
   5   6 -12    8.02    1.23
  -5   6  12    6.01    1.46
   5   6 -12    7.99    1.40
  -4  -6  12    0.46    0.63
  -4  -6  12    2.09    1.43
   4  -6 -12    3.15    1.39
   4   6 -12    1.07    1.03
   4   6 -12    2.48    1.21
  -4   6  12   -0.52    1.11
   3  -6 -12    0.25    1.26
  -3  -6  12   -0.54    1.08
  -3  -6  12    1.44    0.62
   3   6 -12   -1.60    1.11
   3   6 -12   -1.93    0.95
  -3   6  12    1.91    1.13
  -2  -6  12   -0.02    0.97
  -2  -6  12    0.65    1.03
   2  -6 -12    2.10    1.28
   2   6 -12    1.29    1.10
  -2   6  12   -0.72    1.45
   2   6 -12   -0.54    0.98
   1  -6 -12    1.33    1.28
  -1  -6  12    3.56    1.07
  -1  -6  12   -0.98    1.00
  -1  -6  12    0.61    0.64
   1   6 -12   -0.57    1.03
  -1   6  12   -0.18    2.08
  -1   6  12    0.06    1.18
   1   6 -12    0.64    1.07
   0  -6  12    2.63    1.09
   0  -6  12    0.08    0.71
   0  -6 -12   -2.98    1.55
   0  -6  12    0.70    0.98
   0   6 -12   -1.39    1.07
   0   6 -12    0.37    1.13
   0   6  12   -1.80    1.10
   0   6  12    2.53    1.22
  -1  -6 -12    1.93    1.44
   1  -6  12    3.73    1.07
   1  -6  12    2.49    1.05
  -1   6 -12    1.85    1.21
   1   6  12    1.37    1.23
  -1   6 -12    1.44    1.18
  -2  -6 -12   -0.45    1.51
   2  -6  12   -0.12    0.92
   2  -6  12    1.42    1.13
   2  -6  12   -0.28    1.24
  -2   6 -12   -2.38    1.31
   2   6  12   -2.84    1.33
  -2   6 -12   -1.43    1.88
  10   0 -13    0.83    1.22
  -9   0  13    0.79    0.65
   8   0 -13    0.42    0.88
  -8   0  13   -0.32    0.51
  -7   0  13   10.90    1.22
   7   0 -13    8.82    1.23
  -7   0  13    9.45    0.88
   6   0 -13    0.45    0.69
  -6   0  13   -0.13    0.32
  -6   0  13    0.11    0.51
  -5   0  13    1.34    0.72
  -5   0  13    0.80    0.29
   5   0 -13    2.39    0.53
  -5   0  13    1.13    0.54
  -4   0  13    0.17    0.25
   4   0 -13   -0.48    0.46
  -4   0  13   -0.38    0.46
  -4   0  13   -0.13    0.40
  -3   0  13    0.85    0.26
  -3   0  13    0.84    0.41
  -3   0  13    0.86    0.43
   3   0 -13    0.92    0.43
  -2   0  13    0.07    0.25
   2   0 -13    0.58    0.47
  -2   0  13   -0.10    0.45
  -2   0  13   -0.55    0.37
  -2   0  13   -0.11    0.37
   2   0 -13    0.84    0.45
  -1   0  13    1.22    0.47
  -1   0  13    1.33    0.41
  -1   0  13    0.68    0.42
  -1   0  13    1.25    0.30
   1   0 -13    1.02    0.47
   1   0 -13    0.73    0.40
   0   0  13    0.17    0.30
   0   0  13    0.54    0.57
   0   0  13   -0.59    0.55
   0   0  13    0.30    0.40
   0   0 -13    0.78    0.50
   1   0  13    1.26    0.45
  -1   0 -13    0.90    0.55
   1   0  13   -0.36    0.49
   1   0  13    0.13    0.35
   1   0  13   -0.28    0.42
   2   0  13    0.10    0.47
   2   0  13    0.02    0.64
  -2   0 -13    1.51    0.90
   2   0  13    0.67    0.75
   2   0  13    0.61    0.45
   3   0  13   22.94    1.22
   3   0  13   21.53    1.37
  -3   0 -13   22.42    1.42
   3   0  13   22.80    1.54
   3   0  13   24.72    1.24
   4   0  13   -0.92    0.72
   4   0  13    0.93    0.62
   4   0  13   -0.28    0.69
   4   0  13   -0.25    0.61
  -4   0 -13    1.29    0.84
   5   0  13   30.66    1.97
   5   0  13   26.44    2.08
   5   0  13   31.39    1.83
   6   0  13   -0.76    0.93
   6   0  13    0.20    1.02
   7   0  13   -1.37    1.20
   7   0  13    2.04    1.14
 -10  -1  13    4.31    0.69
  10  -1 -13    3.47    1.42
 -10  -1  13    4.86    1.37
 -10   1  13    4.49    1.01
  10   1 -13    5.52    1.34
   9  -1 -13    0.20    1.06
  -9   1  13    0.92    0.71
   9   1 -13    1.50    1.01
  -8   1  13    1.79    0.59
   8   1 -13    3.54    0.96
  -7  -1  13    0.29    0.67
   7  -1 -13    0.26    0.79
   7   1 -13   -0.07    0.75
  -7   1  13    0.60    0.53
  -7   1  13   -0.28    0.66
  -6  -1  13    0.11    0.54
   6  -1 -13   -0.08    0.61
   6   1 -13    0.05    0.56
  -6   1  13   -0.24    0.57
  -6   1  13   -0.14    0.40
  -5  -1  13   -0.15    0.81
  -5  -1  13    0.73    0.50
  -5  -1  13    0.00    0.54
   5  -1 -13    0.85    0.65
  -5   1  13    0.57    0.56
   5   1 -13   -0.26    0.51
   5   1 -13    0.83    0.61
   5   1 -13    0.44    0.48
  -5   1  13    0.08    0.34
   4  -1 -13   13.06    0.95
  -4  -1  13   10.65    0.51
  -4  -1  13   10.78    0.83
  -4  -1  13   10.64    0.71
  -4  -1  13   10.64    1.11
  -4  -1  13   11.03    0.91
  -4   1  13   10.98    0.90
  -4   1  13   12.39    1.06
   4   1 -13   11.80    0.90
  -4   1  13   10.78    0.71
   4   1 -13   10.24    0.88
  -3  -1  13   42.33    1.60
  -3  -1  13   43.33    1.30
  -3  -1  13   42.95    1.58
   3  -1 -13   41.87    1.59
  -3  -1  13   43.16    1.15
  -3  -1  13   43.06    1.67
  -3   1  13   42.21    1.62
  -3   1  13   42.39    1.54
  -3   1  13   42.06    1.35
   3   1 -13   41.93    2.15
   3   1 -13   42.76    1.48
  -2  -1  13    6.20    0.72
  -2  -1  13    6.17    0.47
  -2  -1  13    6.27    0.74
   2  -1 -13    5.46    0.73
  -2  -1  13    5.87    0.90
   2   1 -13    5.18    0.68
  -2   1  13    4.72    0.71
  -2   1  13    5.53    0.58
   2   1 -13    5.36    0.74
  -2   1  13    5.05    1.05
  -1  -1  13    0.66    0.39
  -1  -1  13    0.61    0.55
  -1  -1  13    0.14    0.25
   1  -1 -13    0.60    0.60
  -1  -1  13   -0.32    0.40
  -1   1  13    0.45    0.41
  -1   1  13    0.16    0.31
  -1   1  13    1.20    0.41
   1   1 -13    0.10    0.44
   0  -1  13    5.50    0.73
   0  -1  13    8.88    0.94
   0  -1 -13    9.50    0.97
   0  -1  13    6.13    0.61
   0   1  13    8.39    0.91
   0   1 -13    6.97    0.81
   0   1  13    7.99    0.77
   0   1  13    8.71    0.74
   0   1  13    7.51    0.81
  -1  -1 -13    2.71    0.64
   1  -1  13    2.44    0.52
   1  -1  13    2.86    0.53
   1  -1  13    3.54    0.51
   1   1  13    3.84    0.61
   1   1  13    3.07    0.51
  -1   1 -13    3.02    0.67
   1   1  13    2.62    0.47
   1   1  13    2.99    0.78
   2  -1  13   35.12    1.40
   2  -1  13   32.72    1.56
   2  -1  13   36.54    1.55
   2   1  13   35.92    1.44
  -2   1 -13   34.10    1.62
   2   1  13   34.31    1.63
   2   1  13   34.58    1.90
   2   1  13   33.79    1.52
   3  -1  13    2.60    0.69
   3  -1  13    2.25    0.65
   3  -1  13    2.45    0.55
  -3   1 -13    2.01    0.77
   3   1  13    3.45    0.65
   3   1  13    2.65    0.67
   3   1  13    2.00    0.97
   4  -1  13    0.70    0.81
   4  -1  13   -0.27    0.63
   4  -1  13    0.58    0.67
   4  -1  13    0.83    0.62
   4   1  13   -0.43    0.73
   4   1  13    0.55    0.83
   4   1  13    0.84    0.78
  -4   1 -13   -0.99    0.84
   5  -1  13   -0.84    0.80
   5  -1  13    0.74    0.82
   5  -1  13    0.32    0.83
   5   1  13    0.39    0.95
   5   1  13    1.04    0.85
  -5   1 -13   -1.90    2.34
   6  -1  13   -0.57    1.03
   6  -1  13   -1.27    0.96
   6   1  13   -0.83    1.04
   6   1  13    0.84    0.93
   7  -1  13    1.80    1.29
   7  -1  13   -2.66    1.22
   7   1  13    2.13    1.18
   7   1  13   -0.71    1.27
  10  -2 -13    8.42    1.54
 -10  -2  13    6.95    1.75
 -10   2  13    5.93    1.21
   9  -2 -13   30.04    2.46
  -9  -2  13   28.38    2.42
   9   2 -13   24.00    2.61
  -9   2  13   27.84    1.85
   8  -2 -13    6.43    1.12
  -8  -2  13    6.58    1.20
   8   2 -13    6.85    1.04
  -8   2  13    6.74    0.82
  -8   2  13    4.98    1.42
  -7  -2  13    1.60    0.91
   7  -2 -13    2.14    0.92
  -7  -2  13    1.65    1.30
   7   2 -13    2.63    0.73
   7   2 -13    1.53    0.78
  -7   2  13    0.72    0.59
  -7   2  13    2.70    0.86
   6  -2 -13    0.31    0.76
  -6  -2  13    0.03    0.59
  -6  -2  13    0.63    0.65
  -6  -2  13   -0.27    0.60
  -6  -2  13    0.41    0.67
   6   2 -13    0.50    0.52
   6   2 -13   -0.14    0.62
  -6   2  13   -1.13    0.61
   6   2 -13    0.70    0.60
  -6   2  13    0.71    0.50
   6   2 -13    1.37    0.60
  -5  -2  13    1.57    0.56
  -5  -2  13    0.64    0.61
  -5  -2  13   -0.28    0.59
  -5  -2  13   -0.31    0.50
   5  -2 -13    0.61    0.62
   5   2 -13    1.62    0.56
  -5   2  13   -0.03    0.45
   5   2 -13   -0.90    0.48
   5   2 -13    0.39    0.53
   5   2 -13    0.44    0.55
  -5   2  13   -0.09    0.61
  -4  -2  13    1.82    0.74
  -4  -2  13    2.53    0.56
   4  -2 -13    3.45    0.65
  -4  -2  13    1.84    0.54
   4   2 -13    1.52    0.58
  -4   2  13    1.71    0.61
  -4   2  13    2.27    0.45
   4   2 -13    2.17    0.49
   4   2 -13    1.18    0.55
  -4   2  13    2.24    0.71
  -3  -2  13    3.88    0.58
   3  -2 -13    5.09    0.82
  -3  -2  13    4.11    0.41
  -3  -2  13    4.39    0.73
  -3   2  13    5.10    0.68
  -3   2  13    3.54    0.72
   3   2 -13    3.47    0.56
   3   2 -13    3.71    0.81
  -3   2  13    6.38    0.81
   2  -2 -13    0.91    0.53
  -2  -2  13    1.26    0.29
  -2  -2  13    0.46    0.44
  -2  -2  13    0.71    0.49
  -2   2  13    0.45    0.60
   2   2 -13    0.59    0.78
   2   2 -13    1.16    0.50
  -2   2  13    1.39    0.51
  -2   2  13    1.26    0.46
  -1  -2  13   17.01    1.04
   1  -2 -13   16.23    1.11
  -1  -2  13   16.45    1.04
  -1  -2  13   17.64    0.81
   1   2 -13   16.53    1.10
  -1   2  13   17.54    1.02
  -1   2  13   16.02    1.05
  -1   2  13   15.14    1.03
   0  -2 -13    1.29    0.58
   0  -2  13    0.97    0.49
   0  -2  13    1.46    0.36
   0  -2  13    1.40    0.46
   0   2  13    1.41    0.52
   0   2  13    0.51    0.43
   0   2 -13    1.65    0.58
   0   2  13    2.59    0.50
   1  -2  13    3.53    0.61
   1  -2  13    2.88    0.46
  -1  -2 -13    2.20    0.63
   1  -2  13    2.99    0.71
   1   2  13    1.39    0.49
   1   2  13    1.39    0.58
  -1   2 -13    1.89    0.62
   1   2  13    3.00    0.55
   2  -2  13   -0.52    0.54
  -2  -2 -13    0.44    0.65
   2  -2  13    0.24    0.45
   2   2  13    0.36    0.56
   2   2  13    0.27    0.70
   2   2  13   -0.01    0.53
  -2   2 -13   -1.29    0.65
   2   2  13   -1.12    0.56
   3  -2  13    1.50    0.62
   3  -2  13    2.78    0.71
   3  -2  13    1.76    0.75
  -3   2 -13    2.61    0.91
   3   2  13    2.52    0.76
   3   2  13    0.99    0.68
   3   2  13    3.67    0.82
   3   2  13    3.89    0.71
   4  -2  13    1.22    0.85
   4  -2  13    0.36    1.00
   4  -2  13   -0.04    0.71
   4   2  13    1.31    0.89
   4   2  13    1.41    0.77
  -4   2 -13    2.56    1.07
   4   2  13    1.40    0.91
   5  -2  13    0.61    0.86
   5  -2  13    2.32    0.90
   5  -2  13    0.73    0.93
  -5   2 -13    0.73    1.51
   5   2  13    1.28    0.89
   5   2  13    2.30    1.15
   6  -2  13    0.44    1.02
   6  -2  13    2.99    1.05
   6   2  13    2.83    1.23
   6   2  13   -0.58    1.00
   9  -3 -13    0.59    1.27
  -9  -3  13    2.08    1.37
   9   3 -13    1.65    1.16
  -9   3  13   -0.34    1.00
  -8  -3  13    4.36    1.30
   8  -3 -13    2.62    1.08
   8   3 -13    3.63    1.06
  -8   3  13    1.88    1.02
   8   3 -13    0.74    0.97
  -8   3  13    0.91    1.22
  -7  -3  13   23.11    2.28
   7  -3 -13   21.06    1.85
   7   3 -13   21.49    2.49
  -7   3  13   20.16    1.55
  -7   3  13   20.70    1.90
   7   3 -13   21.03    1.76
  -6  -3  13   -0.40    0.81
  -6  -3  13    0.44    0.86
   6  -3 -13    0.42    0.96
  -6  -3  13    0.65    0.75
  -6  -3  13    0.12    0.73
   6   3 -13   -0.45    0.75
   6   3 -13    0.57    0.66
  -6   3  13    0.69    0.85
   6   3 -13    0.51    0.70
   6   3 -13   -0.39    0.69
  -5  -3  13   -0.69    0.96
  -5  -3  13    0.30    0.84
  -5  -3  13   -0.32    0.68
   5   3 -13    0.72    0.67
   5   3 -13    1.13    0.67
  -5   3  13   -0.14    0.59
  -5   3  13    0.18    0.70
   5   3 -13    0.56    0.58
   5   3 -13   -0.47    0.59
  -4  -3  13    0.85    0.58
   4  -3 -13   -0.97    0.70
  -4  -3  13    0.43    0.62
  -4   3  13    0.84    0.65
   4   3 -13    1.55    0.61
  -4   3  13    1.15    0.59
   4   3 -13    1.31    0.60
   4   3 -13    0.80    0.63
  -3  -3  13   -0.52    0.56
  -3  -3  13   -0.35    0.26
   3  -3 -13   -0.41    0.64
  -3  -3  13    0.66    0.56
  -3   3  13   -0.77    0.56
   3   3 -13   -0.29    0.61
  -3   3  13    0.27    0.48
  -3   3  13    0.33    0.55
   3   3 -13   -0.46    0.55
   2  -3 -13    2.70    0.68
  -2  -3  13    1.51    0.33
  -2  -3  13    1.47    0.56
  -2  -3  13    1.83    0.56
  -2   3  13    1.63    0.60
   2   3 -13    2.05    0.61
   2   3 -13    0.96    0.56
  -2   3  13    2.84    0.54
  -2   3  13    1.19    0.55
  -1  -3  13    0.67    0.53
  -1  -3  13   -0.49    0.32
  -1  -3  13   -0.16    0.52
   1  -3 -13    1.36    0.75
  -1   3  13   -0.39    0.50
  -1   3  13    0.51    0.52
   1   3 -13   -0.95    0.57
   1   3 -13   -0.18    0.54
  -1   3  13    0.47    0.55
   0  -3  13   -0.25    0.52
   0  -3 -13   -0.04    0.71
   0  -3  13   -0.15    0.52
   0  -3  13    0.02    0.42
   0   3  13   -0.16    0.54
   0   3 -13    0.78    0.61
   0   3  13    0.01    0.56
   0   3  13    0.37    0.56
   0   3 -13   -1.22    0.63
  -1  -3 -13    1.07    0.82
   1  -3  13   -0.22    0.59
   1  -3  13   -0.22    0.43
   1  -3  13    1.00    0.60
  -1   3 -13    0.02    0.71
   1   3  13    1.19    0.68
   1   3  13   -0.43    0.58
   1   3  13    0.38    0.63
   2  -3  13    0.48    0.52
   2  -3  13   -0.59    0.67
   2  -3  13   -0.43    0.73
  -2  -3 -13    0.79    0.88
   2   3  13    0.66    0.69
   2   3  13    0.58    0.75
  -2   3 -13    0.38    0.83
   3  -3  13    4.15    0.97
   3  -3  13    5.52    0.97
  -3  -3 -13    3.48    0.93
   3   3  13    4.62    0.79
   3   3  13    4.03    0.90
   4  -3  13   11.26    1.39
   4  -3  13    7.99    1.01
   4  -3  13    7.84    1.12
  -4   3 -13    7.29    1.37
   4   3  13    6.74    1.04
   5  -3  13   19.27    1.77
   5  -3  13   15.16    1.85
   5  -3  13   17.94    1.94
  -5   3 -13   21.01    3.24
   5   3  13   22.69    2.91
   5   3  13   20.66    2.26
   6  -3  13    2.30    1.29
   6  -3  13    4.14    1.23
   6   3  13    2.39    1.27
   6   3  13    1.95    1.84
  -8  -4  13    3.75    1.91
   8  -4 -13   -0.68    1.25
  -8  -4  13    2.00    1.50
  -8   4  13    1.63    1.06
   8   4 -13   -0.77    1.21
  -8   4  13    2.07    1.53
  -7  -4  13    7.11    1.45
  -7  -4  13    6.66    1.47
   7  -4 -13    6.02    1.22
  -7  -4  13    7.37    1.85
  -7   4  13    4.42    1.02
  -7   4  13    7.18    1.29
   7   4 -13    5.70    1.66
   7   4 -13    8.34    1.09
  -6  -4  13    0.95    1.14
  -6   4  13    0.82    0.90
   6   4 -13    0.68    0.85
  -6   4  13    1.15    0.94
   6   4 -13    0.92    0.94
   5  -4 -13    0.50    0.92
  -5   4  13   -1.27    0.83
   5   4 -13   -0.67    0.80
  -5   4  13   -0.80    0.90
  -4  -4  13    0.51    1.31
  -4  -4  13    1.18    1.00
   4  -4 -13   -1.32    1.05
  -4   4  13    1.13    0.74
   4   4 -13   -0.13    0.77
   4   4 -13    0.39    0.80
  -4   4  13    0.06    0.81
   4   4 -13   -0.15    0.77
  -3  -4  13    8.38    1.27
  -3  -4  13    8.37    0.98
  -3  -4  13    8.43    1.26
   3  -4 -13    9.20    1.21
  -3   4  13    9.00    1.03
  -3   4  13    9.46    1.30
   3   4 -13    9.88    1.38
   3   4 -13    9.02    1.26
  -2  -4  13   10.30    1.38
  -2  -4  13   11.89    1.37
  -2  -4  13   10.91    0.91
   2   4 -13   11.54    1.44
   2   4 -13    8.92    1.38
  -2   4  13    8.81    1.25
  -2   4  13   13.01    1.42
  -2   4  13    9.40    1.29
  -1  -4  13    1.43    1.14
   1  -4 -13    3.06    0.92
  -1  -4  13    0.74    0.73
   1   4 -13    2.05    1.13
   1   4 -13    0.57    0.79
  -1   4  13    0.64    0.70
  -1   4  13    1.57    0.77
  -1   4  13    1.30    0.73
   0  -4 -13    3.98    1.01
   0  -4  13    1.58    0.87
   0   4  13    2.47    0.80
   0   4  13    0.91    0.76
   0   4  13    2.27    0.77
   1  -4  13   13.41    1.16
  -1  -4 -13   15.58    1.79
   1  -4  13   12.76    1.51
   1  -4  13   14.04    1.40
   1   4  13   15.60    1.51
  -1   4 -13   15.92    1.56
  -1   4 -13   13.97    1.63
   1   4  13   16.37    1.49
   1   4  13   12.60    1.54
   2  -4  13   -0.08    0.88
   2  -4  13    0.46    0.80
   2  -4  13    1.42    0.63
   2   4  13    0.84    0.86
  -2   4 -13    1.39    0.96
   2   4  13    0.54    0.84
  -3  -4 -13    1.41    1.23
   3  -4  13    1.21    0.72
   3  -4  13    1.73    0.84
   3  -4  13   -0.02    0.88
   3   4  13   -0.16    1.57
   3   4  13    1.63    0.92
  -3   4 -13    0.98    1.06
   4  -4  13   -1.23    0.90
   4  -4  13   -1.84    0.90
   4  -4  13   -0.29    0.99
  -4   4 -13   -0.27    1.24
   4   4  13    0.33    0.98
   5  -4  13   -0.79    1.16
   5  -4  13    1.49    1.10
   5  -4  13   -1.49    1.22
   5   4  13   -2.02    1.14
  -5   4 -13    1.71    1.71
   7  -5 -13    1.22    1.54
  -7  -5  13    1.23    1.51
  -7   5  13    2.22    1.37
   7   5 -13   -1.65    1.19
   7   5 -13    0.47    1.29
  -7   5  13    3.85    1.24
  -6  -5  13   -1.70    1.27
   6  -5 -13    0.35    1.37
  -6   5  13   -1.43    1.31
   6   5 -13   -0.81    1.14
   6   5 -13    2.02    1.14
  -6   5  13    1.45    1.20
  -5  -5  13   -2.47    1.13
   5  -5 -13    0.67    1.21
  -5   5  13    1.14    1.07
   5   5 -13    0.31    0.89
   5   5 -13    0.04    1.51
  -5   5  13    0.34    1.03
   5   5 -13    0.08    1.08
   4  -5 -13    6.37    1.27
  -4  -5  13    6.72    1.19
  -4  -5  13    5.39    0.89
  -4   5  13    9.63    1.61
   4   5 -13    4.57    0.95
   4   5 -13    5.31    1.04
  -4   5  13    6.16    1.08
  -3  -5  13    3.47    1.00
  -3  -5  13    2.00    0.94
  -3  -5  13    0.82    0.50
   3  -5 -13    3.18    1.13
   3   5 -13    2.18    0.87
  -3   5  13    0.51    0.93
   3   5 -13    1.99    0.96
  -2  -5  13   19.10    1.64
  -2  -5  13   19.20    1.18
   2  -5 -13   21.57    2.18
  -2  -5  13   18.37    1.82
  -2   5  13   19.03    2.07
   2   5 -13   21.26    1.69
   2   5 -13   18.58    1.82
  -2   5  13   21.12    1.86
   1  -5 -13    4.14    1.16
  -1  -5  13    4.11    1.06
  -1  -5  13    4.23    0.98
  -1  -5  13    6.02    1.00
   1   5 -13    3.61    1.00
  -1   5  13    3.41    0.97
   1   5 -13    3.90    0.98
  -1   5  13    4.20    1.12
   0  -5 -13   17.17    2.11
   0  -5  13   13.71    1.69
   0  -5  13   13.23    1.25
   0  -5  13   16.47    1.63
   0   5  13   16.13    1.71
   0   5  13   15.74    1.65
   0   5 -13   11.30    1.61
   0   5 -13   14.72    1.79
  -1  -5 -13   15.81    2.22
   1  -5  13   17.02    1.66
   1  -5  13   18.22    1.69
  -1   5 -13   19.87    1.82
   1   5  13   14.20    1.72
  -1   5 -13   16.88    1.77
   1   5  13   18.71    1.80
   2  -5  13    2.72    1.07
  -2  -5 -13   -0.21    1.29
   2  -5  13   -0.77    1.28
   2  -5  13   -1.26    0.79
   2   5  13    0.66    1.07
   2   5  13    1.64    1.04
  -2   5 -13    0.62    1.43
  -2   5 -13   -0.87    1.13
   3  -5  13   -1.99    1.13
   3  -5  13    0.96    1.02
   3  -5  13    3.09    0.90
  -3  -5 -13    3.90    1.49
  -3   5 -13    0.42    1.33
   3   5  13   -0.45    1.11
   4  -5  13    0.69    1.46
   4  -5  13   -2.03    1.03
   4  -5  13    0.32    1.14
  -4  -5 -13   -0.42    1.64
  -4   5 -13   -1.59    1.56
   4   5  13    0.51    1.83
  -5  -6  13    3.93    0.76
  -5  -6  13    5.79    1.62
   5  -6 -13    6.03    2.22
   5   6 -13    3.30    1.45
  -5   6  13    2.69    1.87
   5   6 -13    2.90    1.39
   4  -6 -13    4.65    1.56
  -4  -6  13    5.37    1.54
  -4  -6  13    8.59    1.42
  -4   6  13    3.82    1.43
   4   6 -13    5.02    1.34
   4   6 -13    2.84    1.29
  -3  -6  13    2.01    1.29
  -3  -6  13   -0.66    0.65
   3  -6 -13    3.10    1.54
   3   6 -13    0.88    1.23
  -3   6  13    1.11    1.37
   3   6 -13    2.91    1.12
  -2  -6  13    0.93    0.66
  -2  -6  13    0.98    1.19
   2  -6 -13    2.25    1.43
  -2  -6  13    0.77    1.10
   2   6 -13    1.71    1.14
  -2   6  13   -0.77    1.18
   1  -6 -13    2.70    1.42
  -1  -6  13    2.66    1.15
  -1  -6  13    2.19    1.17
   1   6 -13   -0.02    1.24
   1   6 -13    2.09    1.18
  -1   6  13   -0.83    1.22
  -1   6  13    1.31    2.50
   0  -6  13    1.52    1.16
   0  -6  13    0.41    1.09
   0  -6  13    0.14    0.77
   0  -6 -13    0.22    1.48
   0   6  13    0.32    1.23
   0   6 -13    1.48    1.26
   0   6 -13   -1.72    1.18
   0   6  13    0.30    1.27
   1  -6  13   -1.73    1.25
   1  -6  13   -1.06    1.28
  -1  -6 -13    1.81    1.65
   1  -6  13    1.31    0.94
  -1   6 -13    1.76    1.45
  -1   6 -13    3.13    1.56
   1   6  13    4.24    1.36
   1   6  13    0.88    1.41
  10   0 -14    0.49    1.35
  -9   0  14   -0.82    0.70
   9   0 -14   -0.44    1.10
   8   0 -14    1.12    0.94
  -8   0  14    0.03    0.54
   7   0 -14    0.55    0.75
  -7   0  14   -1.47    0.70
   6   0 -14   18.52    1.37
  -6   0  14   16.51    1.25
  -6   0  14   16.01    0.90
  -5   0  14   -0.22    0.51
  -5   0  14   -0.47    0.59
   5   0 -14   -0.83    0.76
  -5   0  14   -0.13    0.31
   4   0 -14  118.69    3.08
  -4   0  14  120.79    3.34
  -4   0  14  119.96    3.24
  -4   0  14  119.88    3.00
  -3   0  14   -0.22    0.28
  -3   0  14    1.14    0.47
  -3   0  14   -0.44    0.44
   3   0 -14    0.14    0.50
   2   0 -14    0.49    0.53
   2   0 -14    0.04    0.49
  -2   0  14    0.70    0.43
  -2   0  14    0.29    0.45
  -2   0  14    0.58    0.31
  -1   0  14    0.38    0.32
  -1   0  14    0.58    0.43
  -1   0  14   -0.44    0.47
  -1   0  14    0.30    0.59
   1   0 -14    0.10    0.50
   0   0  14    2.01    0.46
   0   0  14    2.29    0.56
   0   0  14    2.30    0.41
   0   0 -14    2.52    0.59
   0   0  14    2.00    0.66
   1   0  14   -0.21    0.40
  -1   0 -14    0.53    0.62
   1   0  14   -0.49    0.76
   1   0  14   -0.75    0.52
   1   0  14    0.64    0.55
   2   0  14    0.73    0.50
   2   0  14    0.60    0.59
   2   0  14    0.82    0.78
   2   0  14    1.33    0.54
  -2   0 -14    0.65    0.69
   3   0  14   -0.47    0.71
   3   0  14   -0.25    0.61
  -3   0 -14    1.80    0.96
   4   0  14   10.75    1.80
   4   0  14   10.21    1.22
  -4   0 -14   11.55    1.75
   4   0  14   11.61    1.47
   5   0  14   -0.20    0.98
   5   0  14    1.08    0.98
   6   0  14    4.35    1.15
   6   0  14    5.76    1.24
  10  -1 -14    3.68    1.45
 -10  -1  14    2.94    0.70
 -10  -1  14    2.62    1.50
  10   1 -14    2.38    1.46
 -10   1  14    4.01    1.08
   9  -1 -14    1.51    1.12
   9   1 -14   -0.86    1.13
  -9   1  14   -1.28    0.72
   8  -1 -14    0.66    0.94
   8   1 -14    1.79    0.93
  -8   1  14   -0.45    0.60
  -7  -1  14    2.81    0.84
  -7   1  14    3.00    0.89
  -7   1  14    2.81    0.59
   7   1 -14    3.09    0.88
   6  -1 -14    5.95    0.91
  -6  -1  14    4.60    0.82
  -6   1  14    4.22    0.77
  -6   1  14    6.48    0.88
   6   1 -14    5.34    0.75
   5  -1 -14    0.41    0.59
  -5  -1  14    0.59    0.61
  -5  -1  14    1.06    0.59
  -5   1  14    1.20    0.43
  -5   1  14    1.34    0.58
   5   1 -14    0.63    0.61
   5   1 -14    1.97    0.56
  -4  -1  14    3.70    0.65
  -4  -1  14    3.16    0.44
   4  -1 -14    5.77    0.92
  -4  -1  14    3.34    0.60
  -4   1  14    3.08    0.62
  -4   1  14    2.90    0.45
  -4   1  14    2.86    0.69
   4   1 -14    3.80    0.61
   4   1 -14    2.22    0.58
  -3  -1  14    2.53    0.34
  -3  -1  14    3.49    0.56
   3  -1 -14    2.29    0.66
  -3  -1  14    2.71    0.55
  -3   1  14    4.03    0.63
  -3   1  14    3.58    0.57
  -3   1  14    2.56    0.57
   3   1 -14    3.50    0.58
   3   1 -14    2.34    0.63
  -2  -1  14    0.17    0.44
  -2  -1  14    1.03    0.49
  -2  -1  14   -0.19    0.64
  -2  -1  14    0.18    0.28
  -2   1  14    0.20    0.45
   2   1 -14   -0.87    0.47
  -2   1  14    0.04    0.34
  -2   1  14   -0.33    0.43
   1  -1 -14   12.45    1.11
  -1  -1  14   12.64    0.75
  -1  -1  14   12.86    1.08
  -1  -1  14   12.43    0.98
  -1  -1  14   13.04    0.97
  -1   1  14   13.81    0.97
  -1   1  14   13.04    0.84
   1   1 -14   12.32    1.03
  -1   1  14   13.06    0.98
   0  -1  14    0.52    0.56
   0  -1 -14    1.10    0.72
   0  -1  14    1.31    0.52
   0  -1  14    1.03    0.58
   0  -1  14    1.22    0.36
   0   1  14    0.85    0.63
   0   1  14    1.25    0.54
   0   1 -14    0.04    0.56
   0   1  14    1.08    0.43
   1  -1  14   18.95    1.22
   1  -1  14   16.43    1.66
   1  -1  14   17.43    1.24
  -1   1 -14   17.71    1.36
   1   1  14   20.95    1.41
   1   1  14   16.39    1.22
   1   1  14   21.28    1.18
   1   1  14   18.74    1.33
   2  -1  14   24.35    1.53
   2  -1  14   27.34    1.58
   2  -1  14   24.26    1.40
   2  -1  14   23.86    1.31
  -2   1 -14   22.75    1.74
   2   1  14   25.89    1.43
   2   1  14   25.12    1.54
   2   1  14   27.52    1.41
   2   1  14   28.62    1.52
   3  -1  14   10.45    1.26
   3  -1  14   11.68    1.29
   3  -1  14   11.35    1.36
   3  -1  14   12.25    1.43
   3   1  14   12.09    1.35
  -3   1 -14   13.38    1.75
   3   1  14   10.35    1.18
   3   1  14   12.38    1.30
   4  -1  14    3.27    0.82
   4  -1  14    2.62    0.82
   4  -1  14    1.06    0.79
   4  -1  14    2.89    0.95
   4   1  14    0.87    0.84
   4   1  14    1.63    0.85
   4   1  14    1.37    1.15
  -4   1 -14    3.12    1.19
   4   1  14    0.71    0.76
   5  -1  14   -0.65    0.93
   5  -1  14    1.29    1.64
   5  -1  14   -1.36    0.84
   5   1  14   -1.87    0.89
   5   1  14    0.56    1.01
   6  -1  14    1.16    1.15
   6  -1  14   -0.56    1.03
   6   1  14   -0.16    1.05
   6   1  14   -0.23    1.16
   9  -2 -14   13.55    2.17
  -9  -2  14   11.78    1.65
  -9   2  14   16.96    1.68
   9   2 -14   13.09    1.41
   8  -2 -14   12.09    1.91
  -8  -2  14   14.80    1.93
  -8   2  14   12.35    1.48
   8   2 -14   17.55    1.72
  -8   2  14   18.65    2.24
  -7  -2  14    3.02    1.11
   7  -2 -14    3.37    1.00
  -7   2  14    3.78    0.68
   7   2 -14    1.71    0.94
  -7   2  14    2.94    1.21
  -6  -2  14    2.10    0.74
  -6  -2  14    0.68    0.70
  -6  -2  14    0.91    0.80
   6  -2 -14    1.46    0.87
   6   2 -14    1.61    0.67
  -6   2  14    1.86    0.78
   6   2 -14    2.05    0.71
   6   2 -14    0.62    0.71
   6   2 -14    0.43    0.85
  -5  -2  14    0.51    0.60
  -5  -2  14    0.99    0.59
  -5  -2  14    0.78    0.67
  -5  -2  14    0.36    0.68
   5   2 -14   -0.29    0.60
  -5   2  14    0.49    0.62
   5   2 -14    0.68    0.56
   5   2 -14   -0.02    0.63
  -5   2  14    0.54    0.55
  -4  -2  14    1.84    0.53
   4  -2 -14    1.19    0.86
  -4  -2  14    1.86    0.67
  -4  -2  14    1.39    0.73
  -4   2  14    0.86    0.60
   4   2 -14    1.23    0.75
  -4   2  14    1.95    1.20
   4   2 -14    2.12    0.73
   4   2 -14    1.57    0.62
  -4   2  14    1.74    0.47
  -3  -2  14   -0.15    0.26
  -3  -2  14    0.56    0.84
  -3  -2  14   -0.26    0.52
  -3  -2  14    0.45    0.52
   3  -2 -14   -0.40    0.64
  -3   2  14    0.85    0.44
  -3   2  14    1.45    1.07
   3   2 -14   -0.67    0.56
  -3   2  14    0.30    0.54
  -2  -2  14    0.25    0.58
  -2  -2  14    0.93    0.53
  -2  -2  14    0.70    0.32
   2  -2 -14    1.16    0.60
   2   2 -14    0.52    0.58
  -2   2  14    0.79    0.57
  -2   2  14    0.71    0.52
  -2   2  14    0.42    0.54
   1  -2 -14   12.29    1.05
  -1  -2  14   10.62    1.04
  -1  -2  14   10.11    0.77
  -1  -2  14   12.31    0.98
  -1   2  14    9.99    0.96
  -1   2  14    9.08    1.04
   1   2 -14   10.19    1.10
  -1   2  14   10.90    1.43
   0  -2  14    3.99    0.69
   0  -2  14    4.39    0.55
   0   2  14    6.42    0.97
   0   2 -14    3.10    0.75
   0   2  14    4.02    0.73
   0   2  14    3.72    0.64
   1  -2  14    0.06    0.61
   1  -2  14    0.83    0.65
  -1  -2 -14    1.63    0.68
   1  -2  14    0.08    0.45
   1   2  14    1.06    0.56
  -1   2 -14    0.98    0.76
   1   2  14   -0.39    0.55
   1   2  14   -0.74    0.58
   2  -2  14    5.12    0.89
   2  -2  14    4.20    0.68
   2  -2  14    5.33    0.87
   2   2  14    4.44    0.72
   2   2  14    4.19    0.87
  -2   2 -14    5.05    0.99
   3  -2  14    2.34    0.79
   3  -2  14    2.34    0.76
   3   2  14    2.36    1.44
   3   2  14    2.43    0.82
   3   2  14    2.70    0.83
   3   2  14    2.80    0.74
   4  -2  14    1.58    0.79
   4  -2  14    0.60    0.79
   4  -2  14    0.97    0.87
   4   2  14   -0.06    0.83
  -4   2 -14   -0.25    1.67
   5  -2  14    0.00    1.21
   5  -2  14   -1.67    0.90
   5   2  14    0.72    1.27
   5   2  14   -1.80    0.99
  -5   2 -14    0.78    1.86
   6  -2  14   -0.01    1.25
   6  -2  14   -0.48    1.15
   6   2  14   -2.55    1.19
   6   2  14    0.15    1.51
  -9  -3  14    4.66    3.12
   9  -3 -14   -1.77    1.47
  -9   3  14    2.38    1.17
   9   3 -14    0.57    1.24
   8  -3 -14    1.41    1.13
  -8  -3  14   -2.61    1.27
  -8   3  14    0.80    0.85
  -8   3  14   -0.02    1.21
  -7  -3  14   -0.77    1.34
   7  -3 -14   -1.35    1.04
  -7   3  14    0.47    0.98
   7   3 -14    1.39    0.94
  -7   3  14    1.36    0.75
  -6  -3  14    6.86    1.30
  -6  -3  14    4.89    1.20
  -6  -3  14    6.32    1.09
  -6  -3  14    5.01    1.07
   6  -3 -14    6.59    1.20
   6   3 -14    5.04    0.84
   6   3 -14    6.45    0.96
  -6   3  14    7.94    1.32
  -6   3  14    5.23    1.10
   6   3 -14    6.63    0.91
   6   3 -14    4.64    0.86
  -5  -3  14   15.04    1.38
  -5  -3  14   11.55    1.43
  -5  -3  14   15.60    1.56
   5   3 -14   11.70    1.46
   5   3 -14   13.52    1.34
   5   3 -14   13.18    1.29
   4  -3 -14    5.19    1.27
  -4  -3  14    2.51    0.85
  -4  -3  14    2.22    0.78
  -4   3  14    3.90    0.90
   4   3 -14    3.66    0.75
  -4   3  14    3.91    0.71
   4   3 -14    3.33    0.80
  -3  -3  14    0.80    0.66
  -3  -3  14    1.82    0.37
   3  -3 -14    1.27    0.79
  -3  -3  14    1.40    0.72
   3   3 -14    1.51    0.68
  -3   3  14    1.24    0.67
  -3   3  14    0.21    0.69
   3   3 -14    1.43    0.72
  -3   3  14    2.08    0.61
   2  -3 -14    1.93    0.76
  -2  -3  14    3.29    0.46
  -2  -3  14    3.66    0.71
   2   3 -14    1.99    0.69
  -2   3  14    3.13    0.66
   2   3 -14    1.84    0.76
  -2   3  14    2.61    0.70
  -2   3  14    3.28    0.77
  -1  -3  14   -0.09    0.40
  -1  -3  14   -0.39    0.61
   1  -3 -14    0.15    0.75
  -1  -3  14   -0.58    0.67
  -1   3  14   -0.55    0.55
   1   3 -14    1.63    0.76
  -1   3  14   -0.25    0.62
   1   3 -14    1.10    0.66
  -1   3  14    1.39    0.67
   0  -3  14    3.23    0.56
   0  -3  14    3.59    0.81
   0  -3  14    2.56    0.82
   0  -3 -14    3.62    0.84
   0   3  14    3.12    0.74
   0   3 -14    3.39    0.88
   0   3  14    2.85    0.79
   0   3  14    4.67    0.81
   1  -3  14    0.52    0.84
  -1  -3 -14    0.02    0.85
   1  -3  14    0.35    0.78
   1   3  14   -0.48    0.74
   1   3  14   -0.27    0.74
   1   3  14   -0.42    1.15
  -2  -3 -14    2.15    1.02
   2  -3  14    0.00    0.62
   2  -3  14    0.21    0.77
   2  -3  14    0.83    0.87
   2   3  14    0.36    1.07
   2   3  14   -1.34    0.74
   2   3  14    0.74    0.81
   3  -3  14   -0.31    0.76
   3  -3  14    0.31    0.86
   3  -3  14    0.88    0.73
   3   3  14    0.35    0.86
   3   3  14    1.60    0.91
  -3   3 -14    0.49    1.08
   4  -3  14    2.42    1.43
   4  -3  14    0.57    0.92
   4  -3  14    0.78    0.95
  -4   3 -14    2.92    1.59
   4   3  14    2.73    1.06
   5  -3  14   -1.28    1.06
   5  -3  14    3.85    1.09
   5  -3  14    2.05    1.18
  -5   3 -14    1.34    1.71
  -8  -4  14   12.77    2.13
   8  -4 -14   10.59    1.70
  -8   4  14    7.05    1.72
  -8   4  14    7.19    1.34
   8   4 -14    9.63    1.42
   7  -4 -14   10.23    1.44
  -7  -4  14   10.62    2.02
  -7   4  14   10.07    1.16
   7   4 -14    8.63    1.30
  -6  -4  14    0.49    1.04
  -6  -4  14   -0.53    1.21
   6  -4 -14    0.86    1.32
   6   4 -14   -0.98    0.99
  -6   4  14   -0.19    0.95
   6   4 -14    0.22    0.95
   5  -4 -14    0.51    1.38
  -5  -4  14    0.87    1.11
  -5  -4  14    1.27    0.94
   5   4 -14    0.32    1.07
  -5   4  14    2.19    0.84
   5   4 -14   -1.29    0.84
   5   4 -14    0.67    0.92
   4  -4 -14    0.34    0.97
  -4  -4  14    0.77    0.90
  -4  -4  14   -0.13    1.01
   4   4 -14   -0.65    1.09
   4   4 -14    1.80    0.88
  -4   4  14    1.36    0.82
  -4   4  14    1.17    0.85
  -3  -4  14    0.72    0.86
  -3  -4  14    1.34    0.45
   3  -4 -14    2.18    1.03
  -3   4  14    0.25    0.85
  -3   4  14    2.83    1.85
   3   4 -14    2.09    0.97
  -3   4  14    2.27    1.38
   3   4 -14    0.58    0.84
  -2  -4  14    7.94    0.90
  -2  -4  14    8.03    1.11
  -2   4  14    6.17    1.41
   2   4 -14    8.29    1.34
   2   4 -14    6.59    1.06
  -2   4  14    9.58    1.49
  -2   4  14   10.66    1.56
  -1  -4  14    2.08    0.56
  -1  -4  14    1.09    0.78
  -1  -4  14    2.24    1.12
   1   4 -14    3.15    0.96
  -1   4  14    2.12    0.83
   1   4 -14    1.30    0.78
  -1   4  14    1.50    1.23
  -1   4  14    1.70    0.86
   0  -4  14    7.38    1.01
   0  -4  14    9.63    1.30
   0  -4  14    8.55    1.35
   0   4  14    8.23    1.02
   0   4  14    6.33    1.00
   0   4 -14    5.77    1.04
   0   4  14    5.50    1.00
   1  -4  14   13.16    1.54
   1  -4  14   12.67    1.20
   1  -4  14   12.55    1.56
  -1  -4 -14    9.60    1.66
   1   4  14   13.25    1.59
   1   4  14   13.60    1.52
  -1   4 -14   12.74    1.74
   2  -4  14    3.56    1.01
  -2  -4 -14    2.44    1.46
   2  -4  14    4.06    0.74
   2  -4  14    3.96    0.96
   2   4  14    4.41    1.21
  -2   4 -14    4.62    1.19
   2   4  14    1.92    0.97
   3  -4  14   -1.35    0.99
   3  -4  14    2.87    1.13
  -3  -4 -14    0.29    1.30
   3  -4  14   -0.74    1.38
   3   4  14   -0.13    0.97
  -3   4 -14    1.97    1.50
   4  -4  14   -0.46    1.04
   4  -4  14    2.71    1.15
   4  -4  14    0.98    1.06
   4   4  14    0.02    1.12
  -4   4 -14    1.17    1.49
   6  -5 -14   -3.21    1.51
  -6  -5  14    0.71    1.43
  -6  -5  14    0.05    1.31
   6   5 -14   -0.07    1.25
  -6   5  14    0.46    1.33
   6   5 -14   -1.14    1.13
  -6   5  14    1.03    1.22
  -5  -5  14    1.20    1.16
  -5  -5  14   -2.13    1.22
   5  -5 -14   -0.03    1.28
   5   5 -14    0.73    1.25
  -5   5  14   -0.19    1.13
   5   5 -14   -0.12    1.15
  -4  -5  14    0.29    0.76
  -4  -5  14    0.57    1.09
  -4  -5  14   -0.16    1.36
   4   5 -14   -1.21    1.80
   4   5 -14    0.30    1.10
  -4   5  14   -0.76    1.04
  -4   5  14   -1.50    1.00
  -3  -5  14    0.65    0.54
   3  -5 -14    0.87    1.26
  -3  -5  14    0.32    1.13
  -3  -5  14    1.24    1.07
   3   5 -14    0.73    0.98
  -3   5  14   -0.63    1.00
  -3   5  14    2.30    1.08
  -2  -5  14   16.67    1.75
   2  -5 -14   12.29    1.49
  -2  -5  14   13.63    1.16
  -2  -5  14   13.54    1.65
  -2   5  14   15.05    2.47
  -2   5  14   13.03    1.99
   2   5 -14   15.27    1.74
   2   5 -14   14.28    1.81
  -2   5  14   13.47    2.06
  -1  -5  14    8.07    1.22
  -1  -5  14   10.76    1.37
  -1  -5  14    9.53    1.17
   1  -5 -14    8.14    1.37
  -1   5  14   12.38    1.86
   1   5 -14   10.21    1.47
  -1   5  14   10.55    1.75
   0  -5  14    2.96    0.94
   0  -5  14    3.39    0.69
   0  -5  14    5.78    1.22
   0  -5 -14    4.32    1.42
   0   5 -14    2.63    1.08
   0   5  14    1.98    0.95
   0   5 -14    2.04    1.09
   0   5  14    6.15    1.20
  -1  -5 -14    0.63    1.37
   1  -5  14    1.85    1.07
   1  -5  14    2.74    0.75
  -1   5 -14    2.49    1.12
  -1   5 -14    4.00    1.22
   1   5  14    0.95    1.08
   1   5  14   -0.48    1.12
  -2  -5 -14    1.70    1.49
   2  -5  14    0.96    0.82
   2  -5  14    0.77    1.12
   2  -5  14    2.02    1.09
   2   5  14    0.71    1.18
  -2   5 -14    1.21    1.31
   2   5  14   -1.85    1.13
   3  -5  14    4.34    1.27
  -3  -5 -14    1.51    1.62
   3  -5  14    4.70    1.45
  -3   5 -14    5.28    1.72
   3   5  14    5.71    1.50
  -3  -6  14    4.67    1.51
  -3  -6  14    2.89    2.57
   3  -6 -14    2.72    1.70
  -3  -6  14    1.76    0.84
   3   6 -14    5.21    1.36
   3   6 -14    1.28    1.38
  -3   6  14    3.49    1.48
  -2  -6  14    0.01    1.28
  -2  -6  14   -0.14    1.37
   2  -6 -14    1.07    1.73
  -2  -6  14    1.05    0.80
   2   6 -14   -1.31    1.29
  -2   6  14   -2.50    1.37
   2   6 -14   -1.51    1.33
  -1  -6  14    0.69    1.36
  -1  -6  14    3.35    1.37
  -1  -6  14    1.46    0.85
   1  -6 -14    4.04    1.64
   1   6 -14    3.61    1.50
   1   6 -14    1.17    1.50
  -1   6  14   -1.76    1.29
  -1   6  14    2.30    1.59
   0  -6  14   -1.84    1.06
   0  -6 -14    3.29    1.84
   0  -6  14   -0.49    1.52
   0   6 -14    1.23    1.58
   0   6 -14    1.14    1.59
   0   6  14    2.46    1.64
  -9   0  15    5.43    0.79
   9   0 -15    7.44    1.26
  -8   0  15   -0.72    0.56
   8   0 -15    1.31    1.05
   7   0 -15    1.89    1.27
  -7   0  15    0.62    0.49
  -7   0  15    0.05    0.90
  -6   0  15   -0.67    0.55
   6   0 -15   -1.01    0.74
  -6   0  15   -0.01    0.68
  -5   0  15    4.25    0.79
  -5   0  15    3.76    0.49
   5   0 -15    3.61    0.67
  -5   0  15    3.39    0.76
  -4   0  15   -0.40    0.52
   4   0 -15    1.48    0.57
  -4   0  15   -0.30    0.51
  -4   0  15    0.23    0.35
   3   0 -15  109.27    2.80
  -3   0  15  105.95    2.58
  -3   0  15  113.36    3.06
  -3   0  15  106.94    3.13
  -2   0  15    0.45    0.50
  -2   0  15   -0.02    0.48
   2   0 -15   -0.03    0.59
  -2   0  15   -0.04    0.36
   1   0 -15    4.68    0.81
  -1   0  15    3.58    0.67
  -1   0  15    4.08    0.67
  -1   0  15    4.06    0.54
   0   0 -15   -0.57    0.64
   0   0  15   -0.33    0.53
   0   0  15   -0.69    0.67
   0   0  15   -0.59    0.52
   0   0  15    0.24    0.42
   1   0  15    0.29    0.53
   1   0  15    0.36    0.67
  -1   0 -15    0.87    0.77
   1   0  15    0.32    0.61
   1   0  15   -0.10    0.62
   2   0  15   -1.12    0.68
  -2   0 -15    1.14    0.87
   2   0  15    1.30    1.21
   2   0  15    0.64    0.66
   3   0  15    0.50    0.72
  -3   0 -15   -0.36    1.01
   3   0  15    1.70    0.89
   3   0  15    2.06    0.76
   3   0  15    1.13    0.78
   4   0  15    1.39    0.89
   4   0  15    0.32    1.03
   4   0  15    0.21    0.97
   4   0  15    1.02    0.86
   5   0  15    7.33    1.13
   5   0  15    7.92    1.38
   6   0  15   -0.90    1.28
   6   0  15    1.21    1.44
   9  -1 -15   17.78    2.22
   9   1 -15   10.70    1.43
  -9   1  15   13.65    1.79
   8  -1 -15   -1.08    0.99
   8   1 -15   -0.51    1.00
  -8   1  15    0.11    0.69
   7  -1 -15    2.19    0.98
  -7  -1  15    1.50    1.10
  -7   1  15    2.67    0.61
  -7   1  15    1.84    1.10
   6  -1 -15    3.92    0.92
  -6  -1  15    2.73    0.84
  -6   1  15    2.28    0.58
  -6   1  15    3.14    0.85
   6   1 -15    3.13    0.76
  -5  -1  15    0.94    0.35
  -5  -1  15    0.93    0.64
   5  -1 -15   -0.02    0.70
  -5  -1  15    0.78    0.66
  -5   1  15   -0.25    0.47
   5   1 -15    1.31    0.62
  -5   1  15   -0.14    0.62
  -4  -1  15    1.54    0.58
  -4  -1  15    0.92    0.32
   4  -1 -15    0.60    0.80
  -4  -1  15    0.60    0.57
  -4   1  15    0.81    0.61
  -4   1  15    2.11    0.64
  -4   1  15    1.51    0.45
   4   1 -15    1.89    0.56
   4   1 -15    0.84    0.69
  -3  -1  15    2.04    0.38
   3  -1 -15    2.43    0.60
  -3  -1  15    3.39    0.63
  -3  -1  15    2.05    0.62
  -3   1  15    2.66    0.50
  -3   1  15    2.01    0.59
  -3   1  15    2.75    0.66
   3   1 -15    2.02    0.67
  -2  -1  15    0.27    0.51
  -2  -1  15    0.20    0.65
   2  -1 -15    1.85    0.65
  -2  -1  15    0.95    0.56
  -2  -1  15    1.09    0.35
  -2   1  15    1.02    0.54
   2   1 -15    0.05    0.60
  -2   1  15    1.30    0.53
   1  -1 -15   11.23    1.02
  -1  -1  15   10.28    1.05
  -1  -1  15   10.78    1.15
  -1  -1  15    9.93    0.82
   1   1 -15   11.03    1.23
  -1   1  15   11.74    1.12
  -1   1  15   10.72    0.94
  -1   1  15   11.76    1.09
   0  -1  15    5.03    0.77
   0  -1  15    6.36    1.02
   0  -1  15    5.02    0.79
   0  -1  15    5.19    0.76
   0   1  15    5.28    0.67
   0   1 -15    5.61    0.87
   0   1  15    5.08    0.81
   1  -1  15    4.40    0.81
   1  -1  15    2.67    0.71
   1  -1  15    3.28    0.72
   1  -1  15    1.79    0.56
   1   1  15    2.26    0.70
   1   1  15    2.34    0.77
  -1   1 -15    2.63    0.83
   1   1  15    2.80    0.65
   2  -1  15   19.55    1.54
   2  -1  15   23.03    1.53
   2  -1  15   21.53    2.54
   2  -1  15   19.54    1.35
   2   1  15   18.51    1.50
   2   1  15   21.67    1.51
   2   1  15   16.78    1.85
  -2   1 -15   22.01    1.84
   2   1  15   20.54    1.52
   3  -1  15    4.68    1.08
   3  -1  15    5.19    0.90
   3   1  15    4.81    1.07
   3   1  15    5.11    0.89
   3   1  15    4.47    0.89
   3   1  15    2.75    0.84
   4  -1  15    0.27    1.17
   4  -1  15    1.68    0.89
   4  -1  15    2.71    0.87
   4  -1  15    1.82    0.96
   4   1  15    3.35    0.93
  -4   1 -15    1.45    1.27
   4   1  15    2.47    1.17
   4   1  15   -0.07    1.34
   5  -1  15   -0.23    1.02
   5  -1  15    3.38    1.11
   5  -1  15    1.35    1.21
   5   1  15    0.78    1.04
   5   1  15    1.20    1.64
   6  -1  15   -0.78    1.27
   6  -1  15   -1.28    1.33
   6   1  15   -0.09    1.59
   6   1  15   -1.95    1.31
  -9  -2  15   -0.62    1.43
   9   2 -15    1.69    1.20
  -9   2  15   -0.21    0.99
  -8  -2  15    2.00    1.32
   8  -2 -15   -1.72    1.14
   8   2 -15   -1.25    1.04
  -8   2  15    0.81    0.74
  -8   2  15    2.55    1.26
   7  -2 -15    0.37    1.00
  -7  -2  15    1.50    1.47
  -7   2  15    1.17    0.66
  -7   2  15    0.04    0.98
   7   2 -15    0.79    1.05
   6  -2 -15    7.59    1.16
  -6  -2  15    9.43    1.28
  -6  -2  15    9.38    1.29
  -6  -2  15   10.06    1.73
   6   2 -15   10.97    1.40
  -6   2  15    6.61    1.23
  -6   2  15   10.41    1.20
   6   2 -15    8.55    1.16
   5  -2 -15    0.92    0.86
  -5  -2  15   -0.68    0.72
  -5  -2  15    0.74    0.80
   5   2 -15   -1.19    0.77
  -5   2  15   -0.73    1.16
   4  -2 -15    0.06    0.75
  -4  -2  15    1.29    0.70
  -4  -2  15    1.60    0.71
  -4  -2  15    2.45    0.74
  -4   2  15    2.12    0.58
  -4   2  15    2.26    0.84
   4   2 -15    2.43    0.76
  -4   2  15    1.50    0.69
  -3  -2  15    2.90    0.74
   3  -2 -15    3.09    0.74
  -3  -2  15    4.33    0.71
  -3  -2  15    2.15    0.64
  -3  -2  15    3.00    0.41
  -3   2  15    3.45    0.83
  -3   2  15    4.03    0.73
  -3   2  15    3.31    0.60
   3   2 -15    2.08    0.77
  -2  -2  15    2.73    0.71
  -2  -2  15    1.46    0.40
   2  -2 -15    1.59    0.68
  -2  -2  15    2.39    0.65
   2   2 -15    2.33    0.74
  -2   2  15    1.50    0.64
  -2   2  15    2.75    0.68
  -2   2  15    1.99    0.57
   1  -2 -15    4.71    0.75
  -1  -2  15    4.63    0.83
  -1  -2  15    4.65    0.59
  -1  -2  15    7.73    1.07
  -1   2  15    3.53    0.68
   1   2 -15    4.63    0.87
  -1   2  15    4.61    0.80
  -1   2  15    4.47    0.78
   0  -2  15    1.90    0.73
   0  -2 -15    3.40    0.72
   0  -2  15    1.49    0.48
   0  -2  15    2.59    0.78
   0   2  15    2.33    0.66
   0   2  15    3.29    0.66
   0   2 -15    2.12    0.78
   0   2  15    1.86    1.01
   1  -2  15    5.42    0.88
   1  -2  15    5.77    0.92
  -1   2 -15    5.92    1.49
   1   2  15    4.11    0.78
   1   2  15    6.36    1.08
   1   2  15    5.05    1.16
   2  -2  15    8.90    1.21
   2  -2  15   10.80    1.33
   2  -2  15    9.39    1.65
   2   2  15   11.57    1.35
  -2   2 -15    9.56    1.25
   2   2  15    7.15    1.07
   2   2  15   10.84    1.56
   3  -2  15    7.94    1.11
   3  -2  15    6.94    1.08
   3  -2  15   10.11    1.36
   3   2  15    8.51    1.85
  -3   2 -15    8.32    1.31
   3   2  15   10.69    1.68
   3   2  15    9.75    1.37
   4  -2  15   -0.02    0.90
   4  -2  15   -1.36    1.02
   4  -2  15   -0.51    1.02
   4   2  15   -0.89    0.90
  -4   2 -15   -0.08    1.23
   5  -2  15    2.56    1.27
   5  -2  15    0.48    1.08
   5  -2  15    2.67    1.14
   5  -2  15    1.08    1.09
   5   2  15    1.00    1.21
  -8  -3  15   -0.23    1.57
   8  -3 -15    0.06    1.29
   8   3 -15   -1.43    1.15
  -8   3  15    0.79    1.44
  -8   3  15   -0.36    1.72
   7  -3 -15   -0.29    1.11
  -7   3  15    0.11    0.89
  -7   3  15    1.55    1.07
   6  -3 -15    0.32    1.03
  -6   3  15    0.09    0.73
   6   3 -15   -0.39    1.15
  -6   3  15    0.65    0.92
  -5  -3  15    1.60    1.21
  -5  -3  15    2.04    1.07
   5  -3 -15    2.76    1.07
  -5  -3  15    2.10    1.14
  -5   3  15   -0.39    0.85
  -5   3  15    1.06    0.72
   5   3 -15    2.54    1.40
   5   3 -15    1.04    1.04
  -4  -3  15   10.54    1.62
  -4  -3  15   12.63    1.53
   4   3 -15   10.19    1.45
  -4   3  15   10.02    1.14
   4   3 -15   11.02    1.48
  -4   3  15   13.10    1.59
  -3  -3  15    2.80    0.88
  -3  -3  15    3.00    0.94
   3  -3 -15    3.66    0.96
  -3  -3  15    3.07    0.66
  -3   3  15    3.87    0.80
   3   3 -15    4.42    1.20
  -3   3  15    3.83    0.84
   3   3 -15    3.22    1.12
  -2  -3  15    8.36    1.31
   2  -3 -15    4.85    0.97
  -2   3  15    7.03    0.89
  -2   3  15    5.37    0.94
  -2   3  15    6.74    1.64
   1  -3 -15    0.15    0.87
  -1  -3  15    0.11    1.27
  -1  -3  15    1.26    0.78
  -1   3  15    0.12    0.68
   1   3 -15    0.60    1.00
  -1   3  15    0.49    0.77
   0  -3  15    2.71    0.90
   0  -3  15    1.10    0.74
   0  -3 -15   -0.20    0.91
   0   3 -15    0.98    0.95
   0   3  15    1.79    0.83
   1  -3  15    2.57    0.98
  -1  -3 -15    0.64    1.07
   1  -3  15    2.18    0.63
   1   3  15    2.48    0.93
   1   3  15    0.40    0.85
   1   3  15    0.67    0.87
  -1   3 -15    3.74    1.05
   2  -3  15    0.92    0.88
   2  -3  15    0.44    0.79
   2  -3  15    0.24    0.69
   2   3  15   -1.09    0.97
  -2   3 -15   -0.83    1.14
   2   3  15    0.93    0.89
   2   3  15   -1.40    0.85
   3  -3  15    0.52    1.15
   3  -3  15   -1.29    0.82
   3  -3  15    0.60    0.86
   3   3  15    0.80    0.99
   3   3  15    0.03    0.97
  -3   3 -15   -0.70    1.17
   4  -3  15    0.29    1.09
   4  -3  15    0.39    1.01
   4  -3  15   -1.39    0.93
   4   3  15   -0.36    1.01
  -4   3 -15   -0.68    1.42
   7  -4 -15   10.13    1.71
  -7  -4  15   11.30    2.01
  -7   4  15   15.15    2.29
  -7   4  15   10.01    1.23
   7   4 -15    6.17    1.32
  -6  -4  15    2.83    1.25
   6  -4 -15    2.37    2.24
  -6  -4  15    5.97    1.56
  -6   4  15    1.65    1.10
   6   4 -15    1.61    1.09
  -6   4  15    2.06    0.94
   6   4 -15    0.25    1.10
  -5  -4  15    6.55    1.22
  -5  -4  15    5.22    1.31
   5  -4 -15    6.31    1.91
  -5   4  15    6.96    1.15
   5   4 -15    5.30    1.07
   5   4 -15    5.11    1.14
  -5   4  15    5.03    0.95
  -4  -4  15   -1.20    1.04
  -4  -4  15   -0.44    0.93
   4  -4 -15   -0.72    1.10
  -4   4  15    0.95    0.90
   4   4 -15   -0.29    0.96
   4   4 -15   -1.49    0.87
  -3  -4  15    0.61    0.45
  -3  -4  15   -0.38    0.84
   3  -4 -15    0.38    1.12
  -3  -4  15    0.32    1.04
   3   4 -15    1.17    0.85
  -3   4  15   -0.27    0.82
  -3   4  15    0.36    0.93
   3   4 -15    0.15    0.91
  -2  -4  15   -0.89    0.87
  -2  -4  15    0.29    0.73
  -2  -4  15   -0.31    1.27
   2  -4 -15    2.18    1.12
  -2   4  15   -0.63    0.89
  -2   4  15    1.28    0.88
   2   4 -15   -0.16    0.90
   2   4 -15   -0.19    0.85
   1  -4 -15    5.78    1.24
  -1  -4  15    3.44    0.97
  -1  -4  15    4.46    0.63
  -1  -4  15    2.78    0.91
   1   4 -15    2.89    0.97
  -1   4  15    1.58    0.90
   1   4 -15    3.15    0.89
  -1   4  15    2.38    1.17
   0  -4  15   26.47    1.92
   0  -4  15   25.89    1.43
   0  -4 -15   31.31    2.30
   0  -4  15   25.51    1.88
   0   4 -15   25.70    2.04
   0   4  15   26.28    1.93
   0   4  15   28.04    1.94
   1  -4  15    2.70    0.83
   1  -4  15    5.36    1.07
  -1  -4 -15    4.86    1.49
   1  -4  15    3.28    1.08
   1   4  15    3.19    0.98
  -1   4 -15    1.62    1.31
   1   4  15    1.73    0.95
   2  -4  15   -1.28    0.76
   2  -4  15    0.07    0.94
   2  -4  15    2.48    1.81
   2   4  15   -0.39    1.03
   2   4  15    0.58    1.05
   3  -4  15    1.97    1.07
   3  -4  15    1.33    1.16
   3  -4  15    1.00    0.94
  -3   4 -15    0.92    1.42
   3   4  15    3.16    1.20
  -6  -5  15    2.08    1.72
  -6  -5  15    3.54    1.65
   6   5 -15    3.15    1.34
  -6   5  15    6.66    1.68
  -5  -5  15    2.73    1.39
   5  -5 -15    1.20    1.69
  -5  -5  15    2.70    1.32
   5   5 -15    1.49    1.25
  -5   5  15    2.37    1.35
   5   5 -15    0.63    1.24
  -5   5  15    0.37    1.19
  -4  -5  15    2.16    1.18
  -4  -5  15    0.75    0.52
  -4  -5  15    3.07    1.25
   4  -5 -15   -0.23    1.38
  -4   5  15    1.43    1.19
   4   5 -15    1.47    1.11
  -4   5  15   -0.40    1.14
   4   5 -15    1.13    1.25
  -3  -5  15    0.74    1.17
  -3  -5  15    0.24    1.09
   3  -5 -15    1.72    1.31
  -3  -5  15    1.41    0.57
  -3   5  15    1.52    1.08
  -3   5  15    1.48    1.16
   3   5 -15    0.06    1.12
   3   5 -15    3.33    1.12
  -2  -5  15    8.24    1.25
  -2  -5  15    6.86    1.21
   2  -5 -15    6.28    1.39
  -2  -5  15    9.78    1.13
   2   5 -15   11.49    1.94
  -2   5  15   10.97    1.62
  -2   5  15    8.92    2.42
  -2   5  15    4.75    1.32
   2   5 -15    8.65    1.28
  -1  -5  15    3.87    1.08
   1  -5 -15    3.39    1.46
  -1  -5  15    5.50    0.78
  -1  -5  15    1.72    1.10
   1   5 -15    7.21    1.17
   1   5 -15    3.65    1.09
  -1   5  15    4.36    1.17
  -1   5  15    3.61    1.27
   0  -5  15    0.92    1.03
   0  -5  15   -0.02    1.10
   0  -5 -15    3.50    1.52
   0  -5  15    2.18    0.74
   0   5 -15   -0.10    1.15
   0   5 -15   -0.36    1.17
   0   5  15    0.61    1.04
   0   5  15   -0.06    1.18
  -1  -5 -15    0.75    1.53
   1  -5  15    2.21    1.22
   1  -5  15    4.82    0.88
   1  -5  15    4.16    1.46
  -1   5 -15    3.61    1.50
   1   5  15    1.49    1.32
   1   5  15    3.24    1.28
   2  -5  15   -0.19    1.27
  -2  -5 -15    2.34    1.73
   2  -5  15    1.49    1.46
   2  -5  15    1.57    1.01
  -2   5 -15    2.33    1.78
   2   5  15   -0.26    1.44
  -9   0  16    0.31    0.76
   9   0 -16   -0.40    1.32
   8   0 -16    2.55    1.12
  -8   0  16    1.90    0.63
  -7   0  16   -1.48    0.97
  -7   0  16    0.32    0.52
  -6   0  16   -0.18    0.46
   6   0 -16   -0.74    0.84
   5   0 -16   -1.48    0.71
  -5   0  16    0.36    0.77
  -5   0  16   -0.49    1.14
   4   0 -16   48.85    1.80
  -4   0  16   46.62    1.93
  -4   0  16   45.93    1.62
  -4   0  16   49.61    2.11
  -3   0  16    0.08    0.40
  -3   0  16   -0.30    0.65
  -3   0  16   -0.67    0.59
  -2   0  16    0.13    0.91
  -2   0  16    1.25    0.45
  -2   0  16    0.15    0.58
  -1   0  16   -0.40    0.63
   1   0 -16    0.07    0.74
  -1   0  16   -0.15    0.48
  -1   0  16   -0.04    0.60
   0   0 -16    0.80    0.84
   0   0  16    0.24    0.64
   0   0  16   -0.89    0.73
   1   0  16    0.51    0.81
  -1   0 -16    0.43    1.15
   1   0  16    0.45    0.80
   1   0  16   -0.44    0.88
   1   0  16   -0.03    0.67
   2   0  16    0.91    0.77
  -2   0 -16    0.42    1.09
   2   0  16    0.29    0.85
   2   0  16    0.96    0.92
   2   0  16    1.72    0.69
  -3   0 -16    0.72    1.52
   3   0  16    0.57    1.17
   3   0  16    0.83    0.87
   3   0  16    0.28    0.80
   3   0  16    1.28    0.85
   4   0  16    1.43    1.00
   4   0  16   -0.38    0.94
   4   0  16   -0.59    0.95
   4   0  16    0.68    1.22
   5   0  16    0.23    1.21
   5   0  16   -0.57    1.27
   9  -1 -16   16.32    2.59
  -9   1  16   15.63    1.90
   9   1 -16   20.99    2.46
   8  -1 -16    1.15    1.16
   8   1 -16    2.76    1.16
  -8   1  16    1.24    0.71
   7  -1 -16    8.62    1.20
  -7  -1  16    6.14    1.61
  -7   1  16    7.00    1.25
  -7   1  16    7.02    1.18
   7   1 -16   11.36    1.85
   6  -1 -16    4.12    1.85
  -6  -1  16    3.27    1.37
  -6   1  16    7.01    1.08
   6   1 -16    4.52    0.93
  -6   1  16    3.97    1.00
  -5  -1  16    3.13    1.24
   5  -1 -16    5.10    0.92
  -5  -1  16    4.94    0.94
   5   1 -16    3.37    0.73
  -5   1  16    4.98    0.92
  -4  -1  16    7.68    1.22
  -4  -1  16    6.19    0.76
  -4  -1  16    9.52    1.21
   4  -1 -16    8.46    1.19
   4   1 -16    9.02    1.31
  -4   1  16    6.92    1.13
  -4   1  16    6.83    1.03
  -4   1  16    7.52    0.95
  -3  -1  16    0.28    0.38
   3  -1 -16    1.87    0.69
  -3  -1  16   -1.01    0.62
  -3  -1  16    0.28    0.63
  -3   1  16   -1.17    0.64
  -3   1  16    0.24    0.50
  -3   1  16    0.27    0.61
   3   1 -16   -0.40    0.75
  -2  -1  16    0.50    0.65
  -2  -1  16   -0.73    0.64
  -2  -1  16   -0.30    0.40
   2  -1 -16    0.16    0.69
  -2   1  16    0.04    0.63
   2   1 -16    2.24    0.78
  -2   1  16   -0.54    0.49
  -2   1  16    0.24    0.61
  -1  -1  16    1.57    0.94
  -1  -1  16    1.05    0.64
  -1  -1  16    0.60    0.47
  -1  -1  16    1.27    0.72
  -1   1  16   -0.36    0.62
   1   1 -16    2.31    0.92
  -1   1  16   -1.02    0.65
   0  -1  16    0.98    1.24
   0  -1  16    2.00    0.62
   0  -1  16    1.35    0.74
   0  -1  16    1.98    0.81
   0   1 -16    1.05    0.97
   0   1  16    0.45    0.60
   0   1  16    1.35    0.82
   0   1  16    1.42    0.73
   1  -1  16    1.14    0.83
   1  -1  16   -0.63    0.71
   1  -1  16    1.09    0.65
   1  -1  16    0.59    0.88
   1   1  16    0.11    0.70
  -1   1 -16    0.56    1.14
   1   1  16    0.32    0.80
   2  -1  16   10.31    1.42
   2  -1  16    6.19    0.99
   2  -1  16    6.30    0.89
   2  -1  16    7.59    1.62
   2   1  16    7.34    1.02
   2   1  16    5.83    1.20
   2   1  16    6.21    1.17
  -2   1 -16    8.46    1.25
   3  -1  16    0.99    1.01
   3  -1  16   -1.29    0.81
   3  -1  16    0.31    0.77
   3  -1  16    2.37    0.90
   3   1  16    0.28    0.89
   3   1  16    0.60    0.89
  -3   1 -16    2.43    1.16
   3   1  16    2.44    1.41
   4  -1  16    2.41    1.20
   4  -1  16    1.96    0.92
   4  -1  16    3.41    1.03
   4  -1  16    2.13    0.95
  -4   1 -16    1.79    1.41
   4   1  16    0.84    1.00
   5  -1  16    3.40    1.43
   5  -1  16    5.26    1.29
   5   1  16    4.36    1.32
   5   1  16    4.54    1.65
   8  -2 -16    1.28    1.26
  -8  -2  16   -1.60    1.51
  -8   2  16    0.36    0.82
   8   2 -16    0.57    1.20
  -8   2  16    1.46    1.48
  -7  -2  16    1.37    1.55
   7  -2 -16    2.72    1.41
   7   2 -16    1.09    0.97
  -7   2  16    1.52    1.18
  -7   2  16    2.15    0.73
  -6  -2  16    6.72    1.21
   6  -2 -16    7.96    1.28
  -6   2  16    6.81    1.10
  -6   2  16    8.69    1.26
  -5  -2  16   -0.31    0.91
  -5   2  16   -0.89    0.62
  -5   2  16   -1.20    0.77
   4  -2 -16    0.40    0.86
  -4  -2  16    0.24    0.81
  -4   2  16    0.04    0.57
  -4   2  16   -0.44    0.77
  -4   2  16    0.91    1.06
   3  -2 -16   -1.02    0.80
  -3  -2  16   -0.26    0.73
  -3  -2  16    0.26    0.74
  -3   2  16   -0.27    0.74
  -3   2  16   -0.10    0.95
  -2  -2  16    0.09    0.90
   2  -2 -16    0.63    0.89
  -2  -2  16    0.54    1.19
  -2   2  16   -0.07    0.71
  -2   2  16    0.20    0.66
  -1  -2  16    2.00    0.85
  -1  -2  16    2.03    0.87
   1  -2 -16    2.57    0.80
  -1  -2  16    1.22    0.53
  -1   2  16    1.46    0.80
  -1   2  16    1.93    0.73
   1   2 -16    1.76    0.96
   0  -2  16   -0.57    0.49
   0  -2  16    1.05    0.88
   0  -2  16   -0.21    0.73
   0   2  16    0.02    0.73
   0   2  16   -0.85    0.83
   0   2 -16    0.07    0.89
   0   2  16    0.11    0.88
   1  -2  16   11.12    1.59
   1  -2  16   13.83    1.24
   1   2  16   13.63    1.38
  -1   2 -16   14.15    1.76
   1   2  16   14.39    1.47
   2  -2  16   13.16    1.31
   2  -2  16    9.50    1.29
   2  -2  16    8.50    1.13
   2   2  16    9.15    1.15
   2   2  16   11.35    1.73
  -2   2 -16    9.66    1.29
   2   2  16   11.70    1.46
   3  -2  16    3.67    1.15
   3  -2  16    4.46    0.87
   3  -2  16    4.15    0.99
   3  -2  16    4.82    0.95
   3   2  16    5.41    1.07
   3   2  16    3.08    0.98
   3   2  16    5.47    1.11
  -3   2 -16    6.10    1.34
   4  -2  16    0.92    1.03
   4  -2  16    0.11    1.01
   4   2  16    0.64    1.09
  -4   2 -16    2.23    1.58
   8  -3 -16   -1.79    1.50
  -8   3  16   -0.73    1.05
  -8   3  16    4.41    1.58
   7  -3 -16   -0.90    1.21
  -7   3  16   -0.10    1.11
  -6  -3  16    0.52    1.60
   6  -3 -16    0.35    1.23
  -6  -3  16   -0.45    1.07
   6   3 -16   -0.37    0.95
  -6   3  16   -0.12    1.05
  -6   3  16    0.59    0.84
   6   3 -16   -1.33    1.06
   5  -3 -16   -0.62    1.08
  -5  -3  16    0.30    0.92
  -5  -3  16   -0.36    1.07
   5   3 -16   -0.86    0.94
   5   3 -16    0.96    0.90
  -5   3  16    0.72    0.79
  -5   3  16    0.40    0.91
  -4  -3  16    0.55    0.80
   4  -3 -16   -0.18    0.99
  -4  -3  16    0.69    0.96
  -4  -3  16   -1.89    1.18
   4   3 -16    1.05    0.88
  -4   3  16   -1.41    0.71
   4   3 -16   -0.39    0.91
  -4   3  16    1.39    0.88
  -3  -3  16    9.43    1.57
  -3  -3  16   12.46    0.88
   3  -3 -16   12.08    2.27
  -3  -3  16   12.94    1.69
  -3   3  16    8.17    1.15
  -3   3  16   12.53    1.43
   3   3 -16   10.21    1.64
  -3   3  16    8.52    1.32
   2  -3 -16    0.58    1.01
  -2  -3  16   -0.75    0.81
  -2  -3  16    0.08    0.45
  -2  -3  16   -0.24    0.93
  -2   3  16   -0.21    0.75
  -2   3  16   -1.22    1.16
   2   3 -16    0.61    0.85
  -2   3  16   -0.38    0.76
  -1  -3  16    2.52    0.85
   1  -3 -16    0.41    0.99
  -1  -3  16    1.78    0.57
  -1   3  16    1.46    0.91
  -1   3  16    0.13    0.91
  -1   3  16    1.40    0.81
   1   3 -16    0.78    0.95
   0  -3  16    2.58    0.64
   0  -3  16    2.32    0.92
   0  -3 -16    1.55    1.08
   0  -3  16    1.01    1.62
   0   3  16    3.38    0.93
   0   3  16    3.70    0.91
   0   3 -16    2.58    1.17
   0   3  16    1.97    1.00
   1  -3  16    2.98    1.46
   1  -3  16   -0.33    0.84
   1  -3  16    0.57    0.69
  -1   3 -16    0.25    1.09
   1   3  16    0.82    0.93
   1   3  16    2.01    1.01
   1   3  16    1.34    0.86
   2  -3  16    0.17    1.02
   2  -3  16   -1.09    0.76
   2  -3  16   -1.04    0.95
  -2   3 -16   -1.11    1.19
   2   3  16   -0.76    0.93
   2   3  16   -0.57    0.95
   2   3  16    1.53    1.33
   3  -3  16    1.27    1.02
   3  -3  16    1.37    0.88
   3  -3  16    1.68    1.12
  -3   3 -16    0.07    1.37
   3   3  16    1.93    1.08
   4  -3  16    0.36    1.05
   4  -3  16   -1.13    1.35
   4  -3  16    0.47    1.29
  -4   3 -16   -3.13    1.79
   4   3  16   -0.23    1.42
  -7   4  16    9.09    1.66
   6  -4 -16    0.22    1.41
  -6  -4  16    0.20    1.48
  -6  -4  16    1.31    1.51
  -6   4  16    0.79    1.21
  -6   4  16    1.10    1.04
   6   4 -16   -0.88    1.09
  -5  -4  16    0.35    1.43
  -5  -4  16   -0.85    1.65
  -5  -4  16    0.24    1.16
   5  -4 -16   -0.01    1.33
  -5   4  16    2.48    1.09
   5   4 -16    1.92    1.23
  -5   4  16    0.20    0.96
  -4  -4  16    4.65    1.15
   4  -4 -16    1.56    1.41
  -4  -4  16    1.27    1.19
   4   4 -16    2.70    1.06
  -4   4  16    1.94    0.97
  -4   4  16    1.21    1.03
   4   4 -16   -1.68    1.46
  -3  -4  16   -0.14    1.17
  -3  -4  16    0.32    0.52
   3  -4 -16   -2.46    1.20
  -3  -4  16   -1.76    0.89
   3   4 -16    0.28    1.04
  -3   4  16    0.09    0.96
  -3   4  16    0.04    0.91
   3   4 -16    0.78    0.94
  -2  -4  16    0.79    0.56
  -2  -4  16    0.78    1.13
  -2  -4  16   -0.20    0.92
   2  -4 -16    0.81    1.21
   2   4 -16    2.40    2.02
   2   4 -16    0.79    1.86
  -2   4  16   -0.77    0.92
  -2   4  16    1.52    1.15
  -2   4  16   -0.69    0.93
   1  -4 -16    0.42    1.21
  -1  -4  16   -1.01    0.95
  -1  -4  16   -0.79    1.26
  -1  -4  16    0.95    0.60
   1   4 -16    2.45    1.10
  -1   4  16    1.12    1.06
  -1   4  16   -0.01    1.04
  -1   4  16    0.84    1.04
   0  -4  16   20.74    1.88
   0  -4  16   14.70    1.39
   0  -4 -16   15.33    2.26
   0  -4  16   18.03    1.72
   0   4  16   17.00    2.03
   0   4  16   14.46    2.10
   0   4 -16   18.50    2.00
   0   4  16   18.34    1.92
   1  -4  16   10.54    1.43
   1  -4  16   11.54    1.91
   1  -4  16    5.47    1.17
  -1  -4 -16    7.53    1.39
  -1   4 -16    8.03    1.35
   1   4  16    7.53    1.25
   2  -4  16    0.52    0.87
   2  -4  16    2.30    1.19
   2  -4  16   -1.15    1.13
   2   4  16   -0.56    1.22
  -2   4 -16    0.88    1.40
   2   4  16    1.43    1.25
   4  -5 -16   -1.22    1.61
  -4  -5  16   -0.64    1.44
  -4  -5  16    1.33    1.37
  -4   5  16   -0.52    1.41
  -4   5  16   -0.86    1.24
   4   5 -16    1.59    1.38
   4   5 -16   -1.39    1.26
  -3  -5  16    1.34    0.67
  -3  -5  16    0.70    1.32
   3  -5 -16    1.72    1.55
  -3  -5  16    0.55    1.29
   3   5 -16    0.62    1.32
   3   5 -16    1.28    1.30
  -3   5  16    2.51    2.05
  -3   5  16    0.29    1.23
  -2  -5  16   -1.29    1.22
  -2  -5  16    0.10    1.39
   2  -5 -16    0.90    1.44
  -2  -5  16    0.43    0.71
   2   5 -16   -1.54    1.27
  -2   5  16   -0.52    1.25
   1  -5 -16    2.37    1.50
  -1  -5  16    2.49    1.30
  -1  -5  16    0.16    1.24
  -1  -5  16    2.29    0.81
   1   5 -16    1.95    1.41
  -1   5  16   -0.78    1.19
   1   5 -16    1.87    1.39
  -1   5  16   -0.75    1.40
   0  -5  16    1.61    1.31
   0  -5  16   -1.19    1.27
   0  -5  16    1.73    0.88
   0  -5 -16   -1.24    1.60
   0   5  16   -0.05    1.47
   0   5  16   -1.18    1.30
   0   5 -16    0.54    1.51
   8   0 -17    0.79    1.26
  -8   0  17    0.34    0.65
  -7   0  17   -0.25    1.09
  -7   0  17    0.67    1.06
   7   0 -17   -1.17    1.12
  -6   0  17    0.16    0.84
  -6   0  17   -0.24    0.58
   6   0 -17    0.11    1.29
   5   0 -17    0.62    0.85
  -5   0  17    0.22    0.81
  -4   0  17    0.27    0.78
  -4   0  17    0.58    0.81
  -4   0  17   -0.26    0.48
  -3   0  17    7.74    1.24
  -3   0  17    8.91    1.15
  -3   0  17    8.11    1.08
  -2   0  17    0.08    0.77
  -2   0  17    0.65    0.72
  -2   0  17    0.43    0.50
  -1   0  17   32.15    1.54
  -1   0  17   33.37    1.80
   0   0 -17    0.31    0.97
   0   0  17    0.73    0.83
   0   0  17   -0.54    0.64
   0   0  17    0.76    0.75
   1   0  17    1.92    0.84
   1   0  17    2.47    1.16
   1   0  17    3.25    0.87
  -1   0 -17    1.26    1.02
   2   0  17    1.19    0.80
   2   0  17    0.62    0.86
   2   0  17    0.42    0.81
   3   0  17    0.24    1.00
   3   0  17   -0.14    0.94
   3   0  17    1.88    1.61
   4   0  17   -2.17    1.11
   4   0  17   -2.83    1.38
   4   0  17   -1.32    1.06
   8  -1 -17    2.40    1.27
  -8   1  17    1.07    0.80
   8   1 -17    5.12    1.30
   7  -1 -17   -0.52    1.16
  -7  -1  17    1.45    1.17
   7   1 -17   -0.84    1.10
  -7   1  17    0.85    1.08
  -7   1  17    1.12    0.67
  -6  -1  17    5.47    1.10
   6  -1 -17    4.39    1.12
  -6   1  17    3.36    0.97
  -6   1  17    4.81    0.72
  -5  -1  17    1.91    0.89
  -5  -1  17    1.89    0.46
  -5  -1  17    2.96    1.07
   5  -1 -17    1.48    1.03
  -5   1  17    2.73    1.03
  -5   1  17    1.26    0.79
  -4  -1  17   32.21    1.86
   4  -1 -17   28.27    2.39
  -4  -1  17   35.79    1.92
  -4  -1  17   33.25    1.27
  -4   1  17   33.70    1.57
   4   1 -17   31.76    1.90
  -4   1  17   33.42    1.95
  -4   1  17   32.56    1.88
  -3  -1  17    3.41    0.87
  -3  -1  17    2.12    1.54
  -3  -1  17    2.45    0.50
  -3   1  17    2.33    0.86
  -3   1  17    2.31    0.60
  -3   1  17    2.49    0.86
   3   1 -17    2.41    0.90
  -2  -1  17   -0.14    0.48
  -2  -1  17    0.55    0.75
  -2   1  17    0.03    0.93
   2   1 -17    0.60    0.91
  -2   1  17    0.29    0.57
  -2   1  17    0.29    0.71
  -1  -1  17   -0.41    0.82
  -1  -1  17    0.30    0.73
  -1  -1  17   -0.12    0.49
  -1   1  17   -0.06    0.62
   1   1 -17   -1.26    0.92
  -1   1  17    1.06    0.76
  -1   1  17    0.26    0.94
   0  -1  17    0.64    0.73
   0  -1  17    0.74    1.12
   0  -1  17   -0.56    0.76
   0  -1  17    1.51    0.58
   0   1  17    1.01    0.87
   0   1 -17    0.72    0.89
   0   1  17    0.73    0.67
   0   1  17    0.84    0.77
   1  -1  17    1.29    0.86
   1  -1  17   -0.73    0.63
   1  -1  17   -1.06    1.24
  -1   1 -17    1.97    1.03
   1   1  17    0.98    0.77
   1   1  17    0.84    0.89
   1   1  17    1.65    0.84
   2  -1  17    3.43    0.91
   2  -1  17    4.14    1.25
   2  -1  17    3.27    0.90
   2  -1  17    4.41    0.84
   2   1  17    3.68    0.96
   2   1  17    4.26    1.00
  -2   1 -17    5.10    1.17
   2   1  17    2.63    0.93
   3  -1  17    3.40    1.57
   3  -1  17    2.96    0.89
   3  -1  17    5.33    1.32
   3  -1  17    0.98    0.92
  -3   1 -17    2.87    1.34
   3   1  17    0.47    0.96
   3   1  17    1.76    1.05
   3   1  17    2.13    0.99
   4  -1  17    2.02    1.24
   4  -1  17    0.82    1.21
   4  -1  17    5.87    1.47
   4  -1  17    1.52    1.10
   4   1  17    1.94    1.29
  -4   1 -17    2.19    1.81
   8  -2 -17   -0.24    1.52
  -8   2  17    2.51    0.97
  -8   2  17    0.39    1.54
   7  -2 -17    2.99    1.43
  -7   2  17    5.22    1.29
  -7   2  17    5.98    0.89
  -6  -2  17    0.19    1.12
   6  -2 -17   -0.66    1.12
  -6   2  17    0.70    0.71
  -6   2  17   -0.04    0.99
  -5  -2  17    0.84    0.91
   5  -2 -17    1.66    1.08
  -5  -2  17    1.47    1.18
  -5   2  17   -0.02    0.73
   5   2 -17    2.38    1.02
  -5   2  17    0.91    0.89
  -4  -2  17    0.17    0.98
  -4  -2  17    0.66    0.78
  -4  -2  17    0.93    0.39
  -4   2  17   -0.28    0.62
  -4   2  17   -1.20    0.77
   4   2 -17   -0.49    0.92
   3  -2 -17    5.08    1.02
  -3  -2  17    4.15    0.93
  -3  -2  17    5.87    1.13
  -3  -2  17    6.98    0.81
  -3   2  17    3.78    1.05
  -3   2  17    5.83    0.97
   3   2 -17    3.68    1.04
  -3   2  17    4.83    0.77
  -2  -2  17    0.45    0.81
  -2  -2  17    2.22    0.52
  -2  -2  17    1.84    0.92
   2  -2 -17    2.13    0.92
  -2  -2  17    0.49    1.00
   2   2 -17    2.04    0.95
  -2   2  17    2.46    0.83
  -2   2  17    1.74    0.69
  -1  -2  17    2.63    0.93
  -1  -2  17    1.39    0.52
  -1  -2  17    2.95    0.83
  -1  -2  17    3.55    1.14
  -1   2  17    1.48    0.76
  -1   2  17    0.37    0.87
   1   2 -17    2.07    0.92
  -1   2  17    0.63    0.78
   0  -2  17    0.43    0.87
   0  -2  17    1.76    0.61
   0  -2  17    1.41    0.85
   0   2 -17    0.48    1.01
   0   2  17    0.75    0.82
   0   2  17    1.37    0.83
   0   2  17    1.83    0.84
   1  -2  17   11.21    1.60
   1  -2  17    8.89    1.34
   1  -2  17   10.25    1.48
   1   2  17    6.79    1.11
   1   2  17   11.22    1.81
   1   2  17    7.28    1.07
  -1   2 -17    7.84    1.23
   2  -2  17   13.56    1.76
   2  -2  17   15.77    1.67
   2  -2  17   16.32    1.94
   2  -2  17   17.62    1.96
  -2   2 -17   13.23    1.97
   2   2  17   12.82    2.12
   2   2  17   14.89    1.67
   2   2  17   12.17    1.72
   3  -2  17   -1.30    0.95
   3  -2  17    0.37    1.08
   3  -2  17    2.00    1.02
   3  -2  17   -0.26    1.19
   3   2  17   -1.02    1.10
   3   2  17    1.42    1.04
  -3   2 -17    0.19    1.30
   4  -2  17    3.28    1.55
   4  -2  17    2.82    1.50
   4  -2  17    2.27    1.25
  -4   2 -17   -0.04    1.82
   7  -3 -17   -0.76    1.46
  -7   3  17   -2.19    0.98
  -7   3  17    1.09    1.29
   6  -3 -17    1.16    1.34
  -6  -3  17   -0.20    1.86
   6   3 -17   -0.03    1.61
  -6   3  17    0.31    1.08
  -6   3  17    1.56    0.98
  -5  -3  17    0.47    1.23
   5  -3 -17   -0.95    1.17
  -5  -3  17   -0.31    0.93
  -5   3  17   -0.36    1.63
  -5   3  17    0.34    0.87
  -4  -3  17    0.06    1.06
  -4  -3  17    1.06    0.88
   4  -3 -17   -0.60    1.15
  -4   3  17    1.02    1.01
   4   3 -17   -0.72    1.01
  -4   3  17   -1.49    0.78
   3  -3 -17    2.11    1.13
  -3  -3  17    1.45    1.42
  -3  -3  17    0.95    1.00
  -3  -3  17    1.17    0.46
  -3  -3  17    1.02    0.86
  -3   3  17    2.48    1.26
  -3   3  17   -0.11    0.94
  -3   3  17    1.59    0.89
   3   3 -17    3.26    1.08
  -2  -3  17    6.59    1.12
  -2  -3  17    6.47    0.97
  -2  -3  17    5.41    1.23
   2  -3 -17    4.75    1.21
  -2   3  17    5.13    1.17
  -2   3  17    3.20    0.96
  -2   3  17    6.53    1.01
   2   3 -17    4.59    1.27
  -1  -3  17   22.38    1.84
  -1  -3  17   23.96    2.14
   1  -3 -17   19.73    2.36
  -1  -3  17   19.51    1.30
  -1   3  17   19.80    1.89
  -1   3  17   20.11    1.80
  -1   3  17   21.99    1.86
   1   3 -17   20.97    1.98
   0  -3  17   11.24    1.54
   0  -3  17    9.17    1.18
   0  -3  17    8.19    1.38
   0   3 -17    8.90    1.27
   0   3  17    7.09    1.08
   0   3  17    6.58    1.21
   0   3  17    8.85    1.18
   1  -3  17    0.25    0.69
   1  -3  17   -0.57    1.00
   1  -3  17    0.50    1.32
   1   3  17   -2.25    1.09
  -1   3 -17   -0.05    1.49
   1   3  17   -0.16    1.02
   1   3  17   -1.39    0.97
   2  -3  17    0.73    0.83
   2  -3  17    0.66    1.18
   2  -3  17    0.84    1.05
   2   3  17    0.21    1.12
  -2   3 -17   -0.50    1.68
   2   3  17   -0.55    1.09
   3  -3  17    0.10    1.03
   3  -3  17   -0.85    1.26
   3  -3  17   -1.68    1.29
  -3   3 -17   -1.35    1.63
   3   3  17    0.75    1.38
   6  -4 -17   -1.76    1.90
  -6  -4  17    2.75    1.76
  -6   4  17    1.74    1.30
   6   4 -17    0.04    1.33
  -6   4  17    1.23    1.76
   5  -4 -17    2.64    1.49
  -5  -4  17    5.40    1.32
  -5  -4  17    6.47    1.80
  -5  -4  17    5.27    1.45
   5   4 -17    5.08    1.28
  -5   4  17    5.59    1.16
   5   4 -17    5.28    1.42
  -5   4  17    4.15    1.39
  -4  -4  17   -0.86    1.38
  -4  -4  17   -0.33    1.15
   4  -4 -17   -2.19    1.35
  -4  -4  17    0.81    1.10
  -4   4  17    2.13    1.72
   4   4 -17   -1.22    1.20
   4   4 -17    1.78    1.17
  -4   4  17    0.51    1.09
  -3  -4  17    0.40    1.27
  -3  -4  17    0.48    0.53
   3  -4 -17   -0.53    1.32
  -3  -4  17    0.74    1.04
  -3   4  17   -0.89    1.01
   3   4 -17    0.70    1.18
  -3   4  17    0.96    1.15
   3   4 -17    0.02    1.06
  -2  -4  17    1.43    0.74
   2  -4 -17    0.17    1.34
  -2  -4  17    0.15    1.14
  -2  -4  17   -1.06    1.13
   2   4 -17    0.16    1.24
  -2   4  17    0.35    1.40
  -2   4  17   -0.54    1.08
   1  -4 -17   -0.51    1.34
  -1  -4  17    1.19    1.18
  -1  -4  17    0.39    1.09
  -1  -4  17    0.65    0.71
  -1   4  17   -0.64    1.19
   1   4 -17    0.48    1.19
  -1   4  17    0.29    1.07
  -1   4  17   -0.86    1.19
   0  -4  17    0.80    1.11
   0  -4  17    2.09    0.84
   0  -4  17    4.35    1.32
   0   4  17    0.44    1.16
   0   4 -17    0.79    1.37
   0   4  17    4.31    1.21
   0   4  17   -0.14    1.23
   1  -4  17    0.65    0.95
   1  -4  17    2.43    1.35
   1  -4  17    2.67    1.31
   1   4  17    1.91    1.49
   1   4  17    2.55    1.28
  -1   4 -17   -0.56    1.56
   8   0 -18   -1.34    1.43
  -8   0  18   -1.14    0.75
  -7   0  18   -0.44    0.61
   7   0 -18   -1.74    1.31
  -7   0  18   -0.44    1.15
  -6   0  18    2.48    1.06
  -6   0  18    2.01    0.61
  -5   0  18    0.44    0.55
  -5   0  18   -1.03    0.88
  -4   0  18    1.17    0.87
  -4   0  18    0.91    0.60
  -3   0  18   -0.90    0.88
  -3   0  18   -0.07    0.79
  -2   0  18    5.35    0.97
  -2   0  18    4.17    0.99
  -2   0  18    3.21    0.90
  -1   0  18    0.98    0.81
  -1   0  18    1.07    0.79
  -1   0  18    0.25    0.60
   0   0  18    4.28    0.99
   0   0  18    6.52    1.23
   0   0  18    5.89    0.82
   1   0  18   -0.03    0.89
   1   0  18   -0.35    0.77
   1   0  18   -0.39    0.88
   2   0  18    0.20    0.99
   2   0  18    0.32    0.96
   2   0  18   -1.02    0.94
   3   0  18    0.29    1.07
   3   0  18    0.25    1.07
   3   0  18    0.52    1.24
   8  -1 -18    0.11    1.46
   7  -1 -18    4.34    1.26
  -7  -1  18    4.23    1.38
  -7   1  18    4.95    0.84
  -7   1  18    3.08    1.28
   6  -1 -18    1.27    1.18
  -6  -1  18    2.14    1.04
  -6   1  18    0.78    1.04
  -6   1  18    0.55    0.68
  -5  -1  18    4.38    1.38
  -5  -1  18    6.41    0.98
  -5  -1  18    4.20    1.04
   5  -1 -18    4.38    1.32
  -5   1  18    6.01    1.04
  -5   1  18    7.33    0.81
  -4  -1  18   13.15    1.93
  -4  -1  18   13.40    1.04
  -4  -1  18   11.86    1.59
  -4   1  18    9.36    1.42
  -4   1  18    9.79    1.49
  -3  -1  18    9.72    0.92
  -3  -1  18   12.34    1.72
  -3  -1  18   10.12    1.71
   3   1 -18    9.34    1.57
  -3   1  18    9.01    1.41
  -3   1  18    8.98    1.32
  -3   1  18    9.91    1.17
  -2  -1  18    2.26    0.58
  -2  -1  18    2.74    0.94
  -2   1  18    1.16    0.96
  -2   1  18    2.80    0.71
  -2   1  18    1.26    0.94
   2   1 -18    3.01    1.03
  -1  -1  18    1.51    0.58
  -1  -1  18    0.40    1.37
   1   1 -18   -1.13    0.99
  -1   1  18   -1.07    0.79
  -1   1  18   -0.39    0.68
   0  -1  18    0.80    0.71
   0  -1  18   -1.76    0.84
   0  -1  18   -0.03    0.90
   0   1  18   -0.91    0.80
   0   1  18    1.24    0.92
   0   1 -18   -0.28    1.07
   0   1  18   -0.01    0.76
   1  -1  18    0.07    0.88
   1  -1  18   -1.39    0.78
   1  -1  18   -0.47    0.89
  -1   1 -18   -2.36    1.16
   1   1  18   -0.75    0.90
   1   1  18   -0.64    0.85
   1   1  18    1.44    0.95
   2  -1  18    2.64    0.87
   2  -1  18    1.29    1.00
   2  -1  18    0.49    0.92
  -2   1 -18    3.58    1.33
   2   1  18   -0.29    1.05
   2   1  18    0.12    0.99
   2   1  18    3.18    1.07
   3  -1  18    1.23    1.55
   3  -1  18    1.16    1.22
   3  -1  18    1.82    1.02
   3  -1  18    1.71    1.08
  -3   1 -18    0.92    1.60
   3   1  18    3.09    1.12
   3   1  18    3.35    1.30
   3   1  18    2.24    1.26
   7  -2 -18    2.45    1.47
  -7   2  18    3.04    1.36
   6  -2 -18    1.55    1.29
  -6  -2  18    2.55    1.31
  -6   2  18    2.60    0.84
  -6   2  18   -0.27    1.08
  -5  -2  18    0.19    1.21
  -5  -2  18    0.27    0.98
   5  -2 -18    0.21    1.20
  -5   2  18   -0.84    0.83
   5   2 -18    0.36    1.07
  -5   2  18   -1.24    0.97
  -4  -2  18    2.46    0.91
  -4  -2  18    1.86    0.46
   4  -2 -18    2.01    1.16
  -4  -2  18    1.45    1.10
  -4   2  18   -0.72    1.04
   4   2 -18   -0.48    1.05
  -4   2  18   -0.09    0.90
  -3  -2  18    0.83    0.84
  -3  -2  18    2.05    0.52
  -3  -2  18    2.32    1.02
  -3   2  18    0.74    1.12
   3   2 -18    4.80    1.52
  -3   2  18    4.11    1.22
  -2  -2  18    1.51    0.94
  -2  -2  18    2.36    0.93
  -2  -2  18    1.09    0.54
   2   2 -18    1.02    0.99
  -2   2  18    0.83    0.97
  -2   2  18   -0.46    0.83
  -2   2  18    1.49    0.76
  -1  -2  18    0.32    0.93
  -1  -2  18    0.47    0.60
  -1  -2  18    0.19    0.97
  -1   2  18   -0.52    0.80
   1   2 -18    1.91    1.09
  -1   2  18   -1.80    0.91
  -1   2  18    1.47    0.95
   0  -2  18    0.00    0.95
   0  -2  18    0.09    0.91
   0  -2  18    0.72    0.63
   0  -2  18   -0.21    1.50
   0   2  18    1.02    1.33
   0   2 -18   -1.03    1.05
   0   2  18   -0.97    0.94
   0   2  18    2.67    1.54
   1  -2  18    6.56    1.10
   1  -2  18    6.78    1.44
   1  -2  18    5.68    0.90
   1   2  18    5.75    1.51
   1   2  18    4.54    1.14
  -1   2 -18    6.81    1.25
   1   2  18    7.55    1.16
   2  -2  18    5.84    1.17
   2  -2  18    5.91    1.01
   2  -2  18    4.50    1.49
   2  -2  18    9.17    1.50
   2   2  18    6.13    1.58
   2   2  18    5.76    1.33
  -2   2 -18    6.69    1.47
   2   2  18    6.69    1.29
   6  -3 -18    2.30    1.50
  -6  -3  18    1.03    1.34
   6   3 -18    2.79    1.34
  -6   3  18    3.39    1.37
  -5  -3  18   -0.48    1.98
  -5  -3  18    0.05    1.06
   5  -3 -18    1.96    1.31
  -5   3  18    1.02    1.18
   5   3 -18   -0.75    1.26
  -5   3  18    2.02    0.98
  -4  -3  18    1.75    2.14
  -4  -3  18   -0.18    0.98
  -4   3  18    1.73    1.03
   4   3 -18    3.16    1.17
  -3  -3  18   -0.24    0.51
  -3  -3  18    0.05    1.04
  -3  -3  18    1.83    0.97
   3  -3 -18    0.35    1.27
  -3   3  18    1.08    1.02
  -3   3  18    0.94    0.88
   3   3 -18    1.18    1.13
  -2  -3  18    0.46    1.07
  -2  -3  18    0.57    0.78
   2  -3 -18   -0.30    1.66
  -2  -3  18    2.43    1.91
  -2  -3  18    1.08    0.96
  -2   3  18    1.94    0.95
  -2   3  18    2.52    1.40
  -2   3  18   -0.03    0.99
  -1  -3  18    2.66    1.38
  -1  -3  18    0.56    1.04
  -1  -3  18    1.40    0.67
  -1  -3  18    0.89    1.05
  -1   3  18    2.90    1.03
  -1   3  18   -0.10    1.07
   1   3 -18    1.52    1.19
   0  -3  18   10.95    1.59
   0  -3  18   11.98    1.87
   0  -3  18   10.83    1.42
   0   3 -18   15.14    2.16
   0   3  18   14.26    2.12
   0   3  18   10.83    1.33
   0   3  18   15.78    1.98
   1  -3  18   12.17    1.68
   1  -3  18   14.21    1.94
   1  -3  18   13.12    1.62
  -1   3 -18   12.68    1.76
   1   3  18   10.24    1.63
   1   3  18    9.89    1.50
   1   3  18    9.57    1.31
   4  -4 -18    1.51    1.63
  -4  -4  18    4.79    1.56
  -4  -4  18    0.08    1.31
  -4   4  18    5.10    1.89
  -4   4  18    1.68    1.25
   4   4 -18    3.18    1.52
  -3  -4  18    1.67    1.31
  -3  -4  18   -0.13    0.65
   3  -4 -18    1.96    1.49
  -3  -4  18    0.77    1.52
  -3  -4  18    0.78    1.23
  -3   4  18    0.97    1.37
  -3   4  18   -1.27    1.16
   3   4 -18   -2.32    1.33
  -2  -4  18   -1.47    0.77
  -2  -4  18   -1.99    1.30
  -2  -4  18    1.11    1.46
   2  -4 -18   -0.08    1.54
  -2   4  18   -1.20    1.15
  -2   4  18    0.41    1.57
  -2   4  18   -0.31    1.44
   2   4 -18   -1.59    2.28
  -1  -4  18   -0.03    1.95
  -1  -4  18    0.56    0.81
  -1  -4  18    0.54    1.35
  -1   4  18    1.66    1.48
   1   4 -18    1.12    1.43
  -1   4  18   -0.03    1.32
  -7   0  19    3.86    1.48
  -7   0  19    3.27    0.80
  -6   0  19    0.02    1.06
  -6   0  19   -0.67    0.69
  -5   0  19    3.06    0.67
  -5   0  19    2.13    1.00
  -4   0  19    0.54    0.97
  -4   0  19    1.48    1.14
  -4   0  19   -0.53    0.61
  -3   0  19   -0.80    0.58
  -3   0  19    0.69    1.01
  -3   0  19   -0.64    0.90
  -2   0  19    0.30    0.98
  -2   0  19   -0.79    0.62
  -2   0  19    0.17    0.92
  -1   0  19    2.23    1.00
  -1   0  19    1.22    0.70
  -1   0  19    2.24    0.95
   0   0  19    0.28    1.02
   0   0  19   -0.54    0.96
   0   0  19    1.66    0.79
   1   0  19    1.57    1.00
   1   0  19    1.17    1.16
   1   0  19    1.47    0.90
   2   0  19   -2.33    1.09
   2   0  19   -2.25    1.09
   2   0  19    0.12    1.23
   7  -1 -19    1.60    1.42
  -7  -1  19    2.92    1.63
  -7   1  19    3.06    1.20
  -7   1  19    0.90    1.47
  -6  -1  19    3.21    1.22
  -6   1  19    3.80    1.16
  -6   1  19    1.83    0.81
  -5  -1  19    0.89    0.57
  -5  -1  19    0.78    1.03
  -5   1  19    0.15    1.02
  -5   1  19    0.87    0.74
  -4  -1  19    6.33    0.86
  -4  -1  19    3.82    1.29
  -4  -1  19    4.79    1.55
  -4   1  19    5.68    0.84
  -4   1  19    4.26    1.15
  -3  -1  19    3.51    0.97
  -3  -1  19    3.54    0.62
  -3  -1  19    1.24    1.18
  -3   1  19    3.10    0.75
  -3   1  19    7.47    2.43
  -3   1  19    3.41    0.97
  -2  -1  19    1.03    1.00
  -2  -1  19    3.67    0.98
  -2  -1  19    3.03    0.64
  -2   1  19    3.40    0.95
  -2   1  19    2.70    0.76
   2   1 -19    1.88    1.11
  -2   1  19    3.16    1.21
  -1  -1  19    0.53    0.66
  -1  -1  19   -0.07    0.92
  -1  -1  19   -0.50    1.43
  -1   1  19    0.16    1.02
   1   1 -19    0.78    1.16
  -1   1  19    0.82    0.79
  -1   1  19    1.04    0.91
   0  -1  19    0.24    0.72
   0  -1  19    0.63    0.97
   0  -1  19    0.38    1.01
   0   1  19    0.23    0.96
   0   1  19   -1.62    0.87
   0   1  19   -0.28    0.92
   0   1 -19    0.19    1.28
   1  -1  19   -0.53    1.11
   1  -1  19    1.01    0.83
   1  -1  19   -0.91    1.00
   1   1  19    1.60    1.03
  -1   1 -19   -0.86    1.40
   1   1  19    0.76    1.19
   1   1  19    0.85    1.14
   2  -1  19   -1.25    1.42
   2  -1  19   -0.33    1.16
   2  -1  19    2.39    1.03
   2   1  19    0.79    1.20
  -2   1 -19   -0.68    1.64
   2   1  19    1.64    1.35
   2   1  19   -1.38    1.13
   6  -2 -19    1.84    1.47
  -6  -2  19    0.80    1.31
  -6   2  19    0.58    0.99
  -6   2  19   -1.32    1.29
  -5  -2  19    4.64    1.22
  -5  -2  19    6.01    1.54
   5  -2 -19    3.32    1.38
  -5   2  19    1.40    1.17
  -5   2  19    2.89    0.99
  -4  -2  19    8.43    1.24
  -4  -2  19    8.82    1.00
  -4  -2  19    7.73    1.46
  -4   2  19    8.84    1.32
  -4   2  19    9.22    0.99
   4   2 -19   11.06    1.88
  -3  -2  19    6.31    1.23
  -3  -2  19    4.38    1.01
  -3  -2  19    3.13    0.60
  -3   2  19    6.67    1.51
  -3   2  19    6.75    1.16
  -3   2  19    4.42    1.32
  -2  -2  19    0.11    1.01
  -2  -2  19   -0.48    0.93
  -2  -2  19   -0.03    0.60
  -2   2  19    0.25    1.09
  -2   2  19    0.43    0.85
   2   2 -19    2.08    1.19
  -2   2  19   -0.15    0.98
  -1  -2  19    5.41    1.16
  -1  -2  19    4.33    0.73
  -1  -2  19    4.45    1.08
   1   2 -19    5.98    1.36
  -1   2  19    5.43    0.99
  -1   2  19    3.19    1.10
  -1   2  19    3.90    1.13
   0  -2  19    0.34    1.10
   0  -2  19   -0.14    1.04
   0  -2  19    0.87    1.14
   0   2  19    1.84    1.18
   0   2  19    1.45    1.17
   0   2 -19   -0.01    1.32
   0   2  19    1.02    1.14
   1  -2  19   -0.02    1.16
   1  -2  19   -0.05    0.94
   1  -2  19    0.97    1.22
   1   2  19   -1.32    1.10
  -1   2 -19   -1.39    2.26
   1   2  19    0.88    1.24
   1   2  19    2.48    1.24
  -5  -3  19    0.89    1.32
  -5  -3  19   -0.78    1.71
   5  -3 -19    0.01    1.62
   5   3 -19    0.42    1.46
  -4  -3  19   -0.06    1.40
  -4  -3  19   -1.97    1.16
   4  -3 -19   -1.71    1.51
   4   3 -19   -2.17    1.31
  -4   3  19   -2.01    1.06
  -3  -3  19   -0.27    1.35
  -3  -3  19    0.03    0.62
  -3  -3  19    0.67    1.15
  -3   3  19    0.56    1.04
   3   3 -19   -2.29    1.26
  -3   3  19   -2.05    1.21
  -2  -3  19    0.97    0.73
  -2  -3  19   -1.51    1.84
  -2  -3  19   -1.11    1.13
  -2   3  19    0.43    1.10
  -2   3  19   -0.78    1.24
   2   3 -19    1.27    1.32
  -2   3  19    1.63    1.39
  -1  -3  19    6.52    1.36
  -1  -3  19    3.91    0.86
  -1  -3  19    5.77    1.45
   1   3 -19    5.07    1.64
  -1   3  19    6.35    1.50
  -1   3  19    5.23    1.33
  -1   3  19    3.45    1.19
   0  -3  19   13.17    2.40
   0  -3  19   21.87    2.79
   0  -3  19   18.37    2.50
   0  -3  19   19.80    3.17
   0   3  19   17.46    2.33
   0   3  19   21.93    2.34
   0   3  19   20.77    2.51
   0   3 -19   12.24    2.36
  -6   0  20   -2.35    1.32
  -6   0  20    0.48    0.86
  -5   0  20   -1.64    0.77
  -5   0  20   -0.90    1.08
  -4   0  20    1.89    0.74
  -4   0  20    4.11    1.62
  -4   0  20    0.84    1.09
  -3   0  20    0.82    1.18
  -3   0  20   -0.21    0.70
  -3   0  20    1.36    1.07
  -2   0  20    1.40    1.09
  -2   0  20    2.07    1.10
  -2   0  20    0.91    0.74
  -1   0  20   -1.31    1.09
  -1   0  20    1.54    1.12
  -1   0  20    0.15    0.80
   0   0  20   -0.32    0.93
   0   0  20    2.14    1.32
   0   0  20   -0.96    1.12
  -5  -1  20    0.72    0.71
  -5  -1  20   -0.87    1.24
  -5   1  20    0.20    0.91
  -5   1  20   -0.73    1.78
  -4  -1  20    2.11    0.74
  -4  -1  20    4.15    1.79
  -4  -1  20    3.41    1.21
  -4   1  20    3.33    0.93
  -4   1  20    3.81    1.19
  -3  -1  20    0.50    0.69
  -3  -1  20    1.46    1.10
  -3  -1  20    1.35    1.13
  -3   1  20    1.16    1.16
  -3   1  20   -0.58    0.82
  -3   1  20    0.96    1.26
  -2  -1  20    1.19    1.14
  -2  -1  20    0.65    1.08
  -2  -1  20    0.47    0.74
  -2   1  20    0.28    0.84
  -2   1  20    2.02    1.17
  -2   1  20    0.28    1.01
  -1  -1  20    5.77    0.95
  -1  -1  20    5.49    1.26
  -1  -1  20    8.28    1.27
  -1   1  20    5.30    1.04
   1   1 -20    4.72    1.49
  -1   1  20    6.43    1.21
  -1   1  20    6.57    1.32
   0  -1  20    0.71    0.92
   0  -1  20    1.81    1.20
   0   1  20    0.60    1.32
   0   1  20    0.22    1.18
   0   1  20    0.44    1.06
   0   1 -20    2.82    1.55
  -4  -2  20   11.82    1.84
  -4  -2  20    6.44    0.81
  -4  -2  20    8.35    1.51
  -4   2  20    8.47    1.55
  -4   2  20    7.55    1.23
   4   2 -20   10.76    1.67
  -3  -2  20    1.90    1.28
  -3  -2  20    1.42    1.40
  -3  -2  20    2.49    1.42
  -3   2  20    3.31    1.29
  -2  -2  20    0.88    1.17
  -2  -2  20   -0.89    1.32
  -2  -2  20    0.16    0.76
  -2   2  20   -2.10    1.18
  -2   2  20    1.58    1.37
   2   2 -20    1.47    1.49
  -2   2  20   -0.54    1.03
  -1  -2  20    7.45    1.48
  -1  -2  20    6.87    1.51
  -1  -2  20    6.97    1.05
   1   2 -20    6.38    1.86
  -1   2  20    6.71    1.51
  -1   2  20    5.72    1.26
  -1   2  20    5.31    1.39
   0   0   0    0.00    0.00
;
_shelx_hkl_checksum              2075
#END Tags that were not found in dictionaries
loop_
_space_group_symop_operation_xyz
'x, y, z'
'-x+1/2, y+1/2, -z+1/2'
'-x, -y, -z'
'x-1/2, -y-1/2, z-1/2'
loop_
_atom_site_label
_atom_site_type_symbol
_atom_site_fract_x
_atom_site_fract_y
_atom_site_fract_z
_atom_site_U_iso_or_equiv
_atom_site_adp_type
_atom_site_occupancy
_atom_site_site_symmetry_order
_atom_site_calc_flag
_atom_site_refinement_flags_posn
_atom_site_refinement_flags_adp
_atom_site_refinement_flags_occupancy
_atom_site_disorder_assembly
_atom_site_disorder_group
N1 N 0.19846(13) 0.06033(18) 0.04785(7) 0.0136(2) Uani 0.952(17) 1 d . . P A 1
C1 C 0.19846(13) 0.06033(18) 0.04785(7) 0.0136(2) Uani 0.048(17) 1 d . . P A 2
H1 H 0.3303 0.1005 0.0797 0.016 Uiso 0.048(17) 1 calc R U P A 2
C2 C 0.14832(14) -0.1310(2) -0.02896(8) 0.01256(19) Uani 1 1 d . . . . .
C3 C 0.29712(15) -0.2777(2) -0.06326(8) 0.0153(2) Uani 1 1 d . . . . .
H3 H 0.4296 -0.2400 -0.0321 0.018 Uiso 1 1 calc R U . . .
C4 C 0.24884(16) -0.4724(2) -0.14085(9) 0.0168(2) Uani 1 1 d . . . . .
H4 H 0.3485 -0.5704 -0.1629 0.020 Uiso 1 1 calc R U . . .
C5 C 0.05174(14) 0.1912(2) 0.07694(8) 0.01276(19) Uani 1 1 d . . . . .
C6 C 0.09516(15) 0.3956(2) 0.15794(8) 0.0162(2) Uani 1 1 d . . . . .
H6 H 0.2264 0.4380 0.1903 0.019 Uiso 1 1 calc R U . . .
C7 C -0.05093(16) 0.5304(2) 0.18919(9) 0.0175(2) Uani 1 1 d . . . . .
H7 H -0.0204 0.6646 0.2439 0.021 Uiso 1 1 calc R U . . .
loop_
_atom_site_aniso_label
_atom_site_aniso_U_11
_atom_site_aniso_U_22
_atom_site_aniso_U_33
_atom_site_aniso_U_23
_atom_site_aniso_U_13
_atom_site_aniso_U_12
N1 0.0111(4) 0.0136(4) 0.0156(4) 0.0000(3) 0.0021(3) -0.0005(3)
C1 0.0111(4) 0.0136(4) 0.0156(4) 0.0000(3) 0.0021(3) -0.0005(3)
C2 0.0111(4) 0.0121(4) 0.0143(4) 0.0015(3) 0.0025(3) -0.0006(3)
C3 0.0113(4) 0.0156(5) 0.0194(4) 0.0007(3) 0.0044(3) 0.0000(3)
C4 0.0158(5) 0.0161(4) 0.0201(4) -0.0001(4) 0.0074(4) 0.0008(4)
C5 0.0117(4) 0.0123(4) 0.0138(4) 0.0012(3) 0.0019(3) -0.0008(3)
C6 0.0142(5) 0.0168(5) 0.0167(4) -0.0026(3) 0.0015(3) -0.0016(4)
C7 0.0192(5) 0.0165(5) 0.0169(4) -0.0028(4) 0.0042(4) -0.0013(4)
loop_
_atom_type_symbol
_atom_type_description
_atom_type_scat_dispersion_real
_atom_type_scat_dispersion_imag
_atom_type_scat_source
C C 0.0033 0.0016 'International Tables Vol C Tables 4.2.6.8 and 6.1.1.4'
H H 0.0000 0.0000 'International Tables Vol C Tables 4.2.6.8 and 6.1.1.4'
N N 0.0061 0.0033 'International Tables Vol C Tables 4.2.6.8 and 6.1.1.4'
loop_
_geom_angle_atom_site_label_1
_geom_angle_atom_site_label_2
_geom_angle_atom_site_label_3
_geom_angle
_geom_angle_site_symmetry_3
C5 N1 C2 116.42(9) .
N1 C2 C3 119.20(9) .
N1 C2 C5 121.56(9) 3
C3 C2 C5 119.24(9) 3
C4 C3 C2 119.94(9) .
C3 C4 C7 120.89(10) 3
N1 C5 C6 119.15(9) .
N1 C5 C2 122.02(9) 3
C6 C5 C2 118.82(9) 3
C7 C6 C5 120.28(10) .
C6 C7 C4 120.82(10) 3
loop_
_geom_bond_atom_site_label_1
_geom_bond_atom_site_label_2
_geom_bond_distance
_geom_bond_site_symmetry_2
N1 C5 1.3458(13) .
N1 C2 1.3488(13) .
C2 C3 1.4273(14) .
C2 C5 1.4401(14) 3
C3 C4 1.3657(15) .
C4 C7 1.4252(16) 3
C5 C6 1.4265(14) .
C5 C2 1.4401(14) 3
C6 C7 1.3637(15) .
C7 C4 1.4252(16) 3
