#------------------------------------------------------------------------------
#$Date: 2019-12-02 13:46:09 +0200 (Mon, 02 Dec 2019) $
#$Revision: 244843 $
#$URL: file:///home/coder/svn-repositories/cod/cif/4/51/38/4513831.cif $
#------------------------------------------------------------------------------
#
# This file is available in the Crystallography Open Database (COD),
# http://www.crystallography.net/
#
# All data on this site have been placed in the public domain by the
# contributors.
#
data_4513831
loop_
_publ_author_name
'Sobczak, Szymon'
'Katrusiak, Andrzej'
_publ_section_title
;
 Singularities in Molecular Conformation
;
_journal_coden_ASTM              CGDEFU
_journal_issue                   11
_journal_name_full               'Crystal Growth & Design'
_journal_page_first              5530
_journal_page_last               5534
_journal_paper_doi               10.1021/acs.cgd.5b01156
_journal_volume                  15
_journal_year                    2015
_chemical_formula_moiety         'C6 H12 O'
_chemical_formula_sum            'C6 H12 O'
_chemical_formula_weight         100.16
_chemical_melting_point          220.65
_chemical_name_common            pinacolone
_chemical_name_systematic        3,3-Dimethyl-2-butanone
_space_group_crystal_system      monoclinic
_space_group_IT_number           11
_space_group_name_Hall           '-P 2yb'
_space_group_name_H-M_alt        'P 1 21/m 1'
_symmetry_space_group_name_Hall  '-P 2yb'
_symmetry_space_group_name_H-M   'P 1 21/m 1'
_atom_sites_solution_hydrogens   mixed
_atom_sites_solution_primary     direct
_atom_sites_solution_secondary   difmap
_audit_block_doi                 10.5517/cc13lk8j
_audit_update_record
;
2015-10-05 deposited with the CCDC.
2016-03-01 downloaded from the CCDC.
;
_cell_angle_alpha                90
_cell_angle_beta                 108.215(17)
_cell_angle_gamma                90
_cell_formula_units_Z            2
_cell_length_a                   5.6780(9)
_cell_length_b                   8.6234(15)
_cell_length_c                   6.9697(11)
_cell_measurement_reflns_used    2590
_cell_measurement_temperature    100
_cell_measurement_theta_max      28.7650
_cell_measurement_theta_min      3.7480
_cell_volume                     324.16(10)
_computing_cell_refinement
;
CrysAlisPro, Agilent Technologies,
Version 1.171.37.31 (release 14-01-2014 CrysAlis171 .NET)
(compiled Jan 14 2014,18:38:05)
;
_computing_data_collection
;
CrysAlisPro, Agilent Technologies,
Version 1.171.37.31 (release 14-01-2014 CrysAlis171 .NET)
(compiled Jan 14 2014,18:38:05)
;
_computing_data_reduction
;
CrysAlisPro, Agilent Technologies,
Version 1.171.37.31 (release 14-01-2014 CrysAlis171 .NET)
(compiled Jan 14 2014,18:38:05)
;
_computing_molecular_graphics    'Olex2 (Dolomanov et al., 2009)'
_computing_publication_material  'Olex2 (Dolomanov et al., 2009)'
_computing_structure_refinement  'ShelXL (Sheldrick, 2008)'
_computing_structure_solution    'ShelXS (Sheldrick, 2008)'
_diffrn_ambient_temperature      100
_diffrn_detector                 'CCD plate'
_diffrn_detector_area_resol_mean 16.1544
_diffrn_detector_type            Eos
_diffrn_measured_fraction_theta_full 0.957
_diffrn_measured_fraction_theta_max 0.961
_diffrn_measurement_device       'four-circle diffractometer'
_diffrn_measurement_device_type  'Xcalibur, Eos'
_diffrn_measurement_method       '\w scans'
_diffrn_orient_matrix_UB_11      0.0887847000
_diffrn_orient_matrix_UB_12      0.0370557000
_diffrn_orient_matrix_UB_13      0.0820305000
_diffrn_orient_matrix_UB_21      -0.0930896000
_diffrn_orient_matrix_UB_22      0.0510025000
_diffrn_orient_matrix_UB_23      0.0110398000
_diffrn_orient_matrix_UB_31      -0.0272836000
_diffrn_orient_matrix_UB_32      -0.0528859000
_diffrn_orient_matrix_UB_33      0.0679623000
_diffrn_radiation_monochromator  graphite
_diffrn_radiation_probe          x-ray
_diffrn_radiation_type           MoK\a
_diffrn_radiation_wavelength     0.71073
_diffrn_reflns_av_R_equivalents  0.0332
_diffrn_reflns_av_unetI/netI     0.0177
_diffrn_reflns_Laue_measured_fraction_full 0.957
_diffrn_reflns_Laue_measured_fraction_max 0.961
_diffrn_reflns_limit_h_max       7
_diffrn_reflns_limit_h_min       -7
_diffrn_reflns_limit_k_max       11
_diffrn_reflns_limit_k_min       -10
_diffrn_reflns_limit_l_max       8
_diffrn_reflns_limit_l_min       -8
_diffrn_reflns_number            5623
_diffrn_reflns_point_group_measured_fraction_full 0.957
_diffrn_reflns_point_group_measured_fraction_max 0.961
_diffrn_reflns_theta_full        25.242
_diffrn_reflns_theta_max         26.989
_diffrn_reflns_theta_min         3.077
_diffrn_source                   'Enhance (Mo) X-ray Source'
_exptl_absorpt_coefficient_mu    0.067
_exptl_absorpt_correction_T_max  1.00000
_exptl_absorpt_correction_T_min  0.61339
_exptl_absorpt_correction_type   multi-scan
_exptl_absorpt_process_details
;
CrysAlisPro, Agilent Technologies,
Version 1.171.37.31 (release 14-01-2014 CrysAlis171 .NET)
(compiled Jan 14 2014,18:38:05)
Empirical absorption correction using spherical harmonics,
 implemented in SCALE3 ABSPACK scaling algorithm.
;
_exptl_crystal_colour            'clear whiteish colourless'
_exptl_crystal_colour_lustre     clear
_exptl_crystal_colour_modifier   whiteish
_exptl_crystal_colour_primary    colourless
_exptl_crystal_density_diffrn    1.026
_exptl_crystal_density_method    'not measured'
_exptl_crystal_description       cylinder
_exptl_crystal_F_000             112
_exptl_crystal_preparation
'The low temperature experiment was performed using OxfordCryo system.'
_exptl_crystal_size_max          0.89
_exptl_crystal_size_mid          0.49
_exptl_crystal_size_min          0.49
_refine_diff_density_max         0.341
_refine_diff_density_min         -0.166
_refine_diff_density_rms         0.040
_refine_ls_extinction_coef       .
_refine_ls_extinction_method     none
_refine_ls_goodness_of_fit_ref   1.092
_refine_ls_hydrogen_treatment    mixed
_refine_ls_matrix_type           full
_refine_ls_number_parameters     60
_refine_ls_number_reflns         721
_refine_ls_number_restraints     0
_refine_ls_restrained_S_all      1.092
_refine_ls_R_factor_all          0.0503
_refine_ls_R_factor_gt           0.0473
_refine_ls_shift/su_max          0.000
_refine_ls_shift/su_mean         0.000
_refine_ls_structure_factor_coef Fsqd
_refine_ls_weighting_details
'w=1/[\s^2^(Fo^2^)+(0.0681P)^2^+0.1053P] where P=(Fo^2^+2Fc^2^)/3'
_refine_ls_weighting_scheme      calc
_refine_ls_wR_factor_gt          0.1257
_refine_ls_wR_factor_ref         0.1276
_reflns_Friedel_coverage         0.000
_reflns_Friedel_fraction_full    .
_reflns_Friedel_fraction_max     .
_reflns_number_gt                655
_reflns_number_total             721
_reflns_threshold_expression     'I > 2\s(I)'
_cod_data_source_file            1030727-1030734.cif
_cod_data_source_block           pin_lt100
_cod_depositor_comments
;
 Updated bibliographic information.

 Antanas Vaitkus,
 2019-12-02
;
_cod_original_cell_volume        324.16(9)
_cod_database_code               4513831
_shelxl_version_number           2013-4
_chemical_oxdiff_formula         C6H12O1
_shelx_space_group_comment
;
The symmetry employed for this shelxl refinement is uniquely defined
by the following loop, which should always be used as a source of
symmetry information in preference to the above space-group names.
They are only intended as comments.
;
_reflns_odcompleteness_completeness 93.46
_reflns_odcompleteness_iscentric 1
_reflns_odcompleteness_theta     28.84
_shelx_res_file
;
TITL lt100 in P21/m #11
REM reset to P21/m #11
CELL 0.71073 5.678011 8.623352 6.969683 90 108.2146 90
ZERR 2 0.000874 0.001488 0.001063 0 0.0168 0
LATT 1
SYMM -X,0.5+Y,-Z
SFAC C H O
UNIT 12 24 2

L.S. 90
PLAN  1
TEMP -173.15
BOND
MORE -1
CONF
fmap 2 53
acta
OMIT 0 54
OMIT 5 1 2
OMIT 0 3 7
OMIT -1 1 8
OMIT 3 2 4
OMIT 6 3 1
OMIT 4 1 3
OMIT -2 6 6
OMIT 2 1 5
OMIT 3 4 4
OMIT 6 0 1
OMIT 6 2 1
OMIT -1 5 1
OMIT -1 4 1
OMIT -1 3 1
OMIT 3 6 4
OMIT 0 4 0
OMIT -2 4 2
OMIT -1 2 1
OMIT -3 6 3
OMIT 0 6 0
OMIT -2 2 2
OMIT 0 8 0
OMIT -2 3 2
OMIT -1 1 1
OMIT 1 3 6
OMIT -2 0 6
OMIT -1 7 1
REM <olex2.extras>
REM <HklSrc "%.\\lt100.hkl">
REM </olex2.extras>

WGHT    0.068100    0.105300
FVAR      30.18158
C3    1    0.600067    0.250000    0.276304    10.50000    0.01628    0.01868 =
         0.01667    0.00000    0.00466    0.00000
C2    1    0.578417    0.250000    0.489342    10.50000    0.02176    0.01800 =
         0.01964    0.00000    0.00776    0.00000
O1    3    0.379054    0.250000    0.518335    10.50000    0.02416    0.05894 =
         0.02964    0.00000    0.01464    0.00000
C1    1    0.811595    0.250000    0.666000    10.50000    0.02761    0.05832 =
         0.01754    0.00000    0.00538    0.00000
PART -1
AFIX 137
H1A   2    0.847492    0.144225    0.718407    10.50000   -1.50000
H1B   2    0.790008    0.317683    0.772213    10.50000   -1.50000
H1C   2    0.949635    0.288091    0.622802    10.50000   -1.50000
AFIX   0
PART 0
C4    1    0.343122    0.250000    0.119363    10.50000    0.01918    0.03422 =
         0.02401    0.00000    0.00239    0.00000
C5    1    0.743454    0.395670    0.250688    11.00000    0.02596    0.01930 =
         0.02475    0.00190    0.00946   -0.00166
H5A   2    0.910837    0.391954    0.344491    11.00000    0.02775
H5B   2    0.751616    0.396805    0.111556    11.00000    0.04115
H5C   2    0.661856    0.490313    0.277237    11.00000    0.02880
H4A   2    0.365576    0.250000   -0.021279    10.50000    0.04486
H4B   2    0.249404    0.344288    0.134271    11.00000    0.03295
HKLF 4

REM  lt100 in P21/m #11
REM R1 =  0.0473 for     655 Fo > 4sig(Fo)  and  0.0503 for all     721 data
REM     60 parameters refined using      0 restraints

END

WGHT      0.0652      0.1188

REM Highest difference peak  0.341,  deepest hole -0.166,  1-sigma level  0.040
Q1    1   0.5898  0.2500  0.3806  10.50000  0.05    0.34
;
_shelx_res_checksum              34725
_shelx_hkl_file
;
   0   0   1 421564. 2749.79  10
   0   0   1 420552. 2716.46  12
   0   0  -1 432781. 2656.91  12
   0   0  -1 433755. 2143.27  11
   0   0  -1 416137. 2120.35   8
   0   0  -1 429962. 2740.24  10
   0   0   2 142949. 2253.16  12
   0   0   2 138266. 2542.82   5
   0   0   2 140773. 2269.08  10
   0   0  -2 137180. 1553.04   9
   0   0   2 142339. 1945.15  11
   0   0   2 141171. 1710.99  14
   0   0  -2 140184. 2138.59  12
   0   0  -2 137915. 1474.31  14
   0   0  -2 141412. 1705.75   8
   0   0  -2 145025. 2250.82  10
   0   0  -2 142425. 2407.09   5
   0   0  -3 42698.1 1057.58   9
   0   0  -3 43265.9 1637.25   5
   0   0  -3 44338.9 1479.36  12
   0   0   3 43723.5 1567.08  10
   0   0  -3 38543.1 769.184   4
   0   0   3 44327.3 1409.59  11
   0   0  -3 45114.2 1544.42  10
   0   0  -3 42527.4 1181.94   8
   0   0  -4 177690. 3399.62  12
   0   0  -4 174919. 2378.80   9
   0   0  -4 175367. 2751.96   8
   0   0  -4 174243. 3758.89   5
   0   0   4 175013. 3339.10  11
   0   0   4 170787. 2887.72  14
   0   0   4 172761. 3659.55  10
   0   0   5 189982. 3598.89  14
   0   0  -5 188732. 4381.38   5
   0   0  -5 193899. 2693.23   9
   0   0   5 187566. 4303.12  10
   0   0  -5 185701. 3960.99  12
   0   0   5 196669. 4221.82  11
   0   0   6 637.640 309.937  10
   0   0  -6 678.097 381.966   5
   0   0   6 795.207 285.244  14
   0   0  -6 455.877 231.085  12
   0   0   6 1067.08 453.321  11
   0   0   7 4188.33 913.055  10
   0   0  -7 1705.37 482.792  12
   0   0   7 5235.79 765.364  14
   0   0  -7 2642.71 847.507   5
   0   0   7 4303.75 886.663  11
   0   0   8 43699.8 2938.89  11
   0   0   8 47546.8 2912.38  10
   0   0  -8 48245.2 2971.28   5
   0   0  -8 43260.5 2583.12  12
   0   1   1 388417. 2954.13   8
   0   1  -1 393626. 2548.47   1
   0  -1  -1 390754. 2847.06  12
   0  -1  -1 397127. 2977.43   8
   0  -1   1 379198. 2985.42  11
   0   1   1 394681. 2842.04  12
   0   1  -1 387586. 3053.29  10
   0  -1  -1 392099. 2802.79   5
   0  -1  -1 407180. 2173.06  10
   0   1  -1 397895. 2954.27  14
   0  -1   1 395766. 2954.59   5
   0  -1   1 404692. 2668.66   1
   0   1  -1 384794. 3228.50  12
   0   1  -1 402388. 2063.95   4
   0  -1   1 389469. 2070.44   4
   0   1   1 392900. 2935.26   5
   0   1  -1 390330. 2812.11   5
   0   1   1 423035. 2198.86  10
   0  -1   1 382094. 3087.47  10
   0   1  -1 385479. 2932.22  11
   0  -1   2 242797. 3016.36  11
   0   1   2 258222. 2983.73   8
   0   1  -2 251805. 3231.94   5
   0  -1  -2 254766. 2698.89  10
   0   1  -2 255199. 3159.63  12
   0   1  -2 252548. 2735.19  11
   0   1  -2 248292. 2803.60   9
   0  -1   2 247055. 3311.22  10
   0   1  -2 253435. 2126.38   1
   0  -1   2 236472. 3406.64   5
   0  -1   2 246046. 3314.94  12
   0   1   2 249429. 3387.02   5
   0  -1  -2 247975. 2885.85  12
   0  -1  -2 253967. 3195.49   5
   0   1   2 257135. 3005.37  12
   0  -1   2 256021. 2926.03  14
   0   1  -2 260500. 3254.05  10
   0  -1  -2 257715. 2901.69   8
   0   1  -2 258050. 2659.25  14
   0  -1  -2 258831. 2621.63   4
   0   1   2 255388. 2735.59  10
   0   1   2 257165. 1740.51   2
   0   1   3 56154.0 1641.77   8
   0  -1  -3 55010.9 1337.87   4
   0   1  -3 52358.5 1705.99  12
   0   1  -3 51231.1 952.403   1
   0   1  -3 51165.7 1824.82   5
   0   1  -3 50900.6 1455.79   9
   0   1   3 56304.3 1646.35  10
   0  -1   3 53269.4 1851.21  10
   0  -1  -3 56675.3 1573.09   8
   0   1  -3 55452.1 1312.70  14
   0   1   3 49769.1 781.212   2
   0  -1   3 55868.9 1557.58  14
   0  -1   3 55530.8 1758.35  11
   0   1  -3 53738.4 1076.99   8
   0   1   3 56590.9 1420.37  11
   0  -1  -3 54396.1 1575.25  10
   0   1   3 55402.8 1235.27  14
   0  -1  -3 52481.4 1822.88   5
   0  -1  -3 54743.2 1635.18  12
   0   1  -4 1526.51 243.583   8
   0   1   4 1974.98 309.911  14
   0   1  -4 1870.74 322.199   9
   0  -1  -4 2319.63 330.069   4
   0  -1   4 1987.43 438.210  10
   0  -1   4 2274.47 509.851  11
   0  -1  -4 1504.03 633.194   5
   0   1  -4 1963.02 647.868   5
   0   1  -4 2956.64 1046.19  12
   0  -1   4 2216.16 393.403  14
   0   1   4 1851.30 403.965  10
   0  -1  -4 1593.69 160.068   1
   0   1   4 2280.78 378.143  11
   0  -1  -5 18704.5 1433.45   5
   0   1  -5 20330.4 926.198   8
   0   1   5 19813.5 1278.21  11
   0  -1   5 20052.0 1499.00  10
   0  -1  -5 19256.9 887.194   4
   0   1   5 19660.7 1082.30  14
   0   1  -5 19230.0 1321.93  12
   0  -1  -5 19586.6 1299.40  12
   0   1  -5 19796.4 1495.37   5
   0   1   5 22135.0 1416.56  10
   0  -1   5 20204.5 1249.88  14
   0  -1   5 20174.9 1449.66  11
   0   1  -6 16819.4 1475.14   5
   0   1  -6 17314.7 1362.37  12
   0  -1   6 17451.9 1288.23  14
   0   1   6 18259.2 1435.70  11
   0  -1   6 18613.2 1596.48  11
   0  -1   6 18366.7 1576.63  10
   0  -1  -6 16468.0 1326.92  12
   0  -1  -6 16685.1 1442.13   5
   0   1   6 18359.6 1444.79  10
   0   1   6 17913.0 1193.36  14
   0  -1  -7 52910.7 2838.06   5
   0   1  -7 52102.7 2827.39   5
   0   1   7 52760.7 2664.81  10
   0   1   7 50696.7 2699.61  11
   0  -1   7 54567.7 2980.31  10
   0   1   7 53628.0 2345.95  14
   0  -1  -7 46278.7 2448.79  12
   0  -1   7 54024.8 2497.12  14
   0  -1   7 55926.2 3082.83  11
   0   1  -7 48316.4 2495.19  12
   0   1   8 9555.64 1313.50  11
   0   1  -8 12245.9 1536.36   5
   0  -1   8 11793.7 1559.79  11
   0   1  -8 9784.51 1237.30  12
   0  -1   8 11908.9 1508.72  10
   0   1   8 13194.0 1503.53  10
   0  -1  -8 11431.8 1471.25   5
   0  -1  -8 10072.1 1287.12  12
   0   2  -1 330021. 3234.39   1
   0   2  -1 328780. 3466.53  11
   0   2   1 335020. 3408.48  12
   0   2   1 335350. 2700.31   9
   0  -2   1 322892. 3282.66  10
   0  -2   1 323859. 2994.27   4
   0   2  -1 327232. 2401.24   8
   0  -2   1 331097. 2538.84   8
   0  -2  -1 328177. 2483.63  13
   0  -2  -1 323185. 2496.92   5
   0  -2   1 323711. 2684.68   5
   0   2   1 332666. 3394.97   8
   0   2  -1 329407. 2528.65   5
   0   2  -1 324758. 3060.50  10
   0   2  -1 312730. 3558.69   9
   0  -2   1 340078. 3395.21   1
   0  -2  -1 331892. 3466.84   8
   0   2   1 332903. 2712.05   5
   0  -2  -1 327934. 3498.55   4
   0   2   2 158866. 2565.95  12
   0  -2   2 149916. 2727.51  11
   0   2  -2 154048. 2697.78  10
   0  -2  -2 149354. 2544.27   4
   0   2  -2 150486. 1467.12   8
   0  -2  -2 145282. 2393.71   5
   0  -2  -2 153955. 2600.67  12
   0   2  -2 158054. 2583.37  14
   0  -2  -2 155884. 1852.63  10
   0   2  -2 153534. 2468.53   5
   0   2   2 150772. 2644.25   8
   0   2  -2 146937. 2591.43   9
   0   2  -2 146767. 2825.30  12
   0  -2   2 148558. 2803.20  10
   0  -2  -2 155984. 2666.85   8
   0   2  -2 154288. 2230.44   1
   0   2  -2 151940. 2542.79  11
   0   2   2 146818. 2613.90   5
   0  -2   2 147721. 1812.19   4
   0  -2   2 144451. 2613.36   5
   0  -2  -3 63653.0 1975.80   5
   0   2  -3 68954.2 2040.30   5
   0  -2   3 63900.1 2052.29  11
   0   2   3 71263.3 2040.68   8
   0   2  -3 68629.9 1810.19  14
   0  -2  -3 65722.1 1805.67   4
   0  -2   3 64924.6 2188.17  10
   0   2   3 70957.9 1272.56   2
   0   2  -3 65568.1 2056.69  12
   0  -2  -3 68439.4 1490.05   1
   0  -2  -3 67434.7 1606.81  10
   0   2   3 68819.6 1646.21  10
   0  -2  -3 66556.1 1934.27  12
   0  -2   4 16470.0 1247.09  10
   0   2   4 15735.6 1135.19   8
   0   2   4 15741.7 797.399  14
   0  -2  -4 15102.4 936.165   4
   0  -2  -4 15296.6 713.836   1
   0   2   4 12912.2 531.774   2
   0   2  -4 14253.5 547.269   8
   0   2   4 16743.3 997.896  10
   0   2  -4 16498.8 1240.49  12
   0  -2  -4 16528.2 1165.07   5
   0  -2   4 16489.7 1111.52  14
   0  -2   4 16055.8 1216.86  11
   0   2  -4 16178.8 1161.09   5
   0  -2   5 123207. 3285.34  14
   0  -2  -5 115505. 3203.68  12
   0   2   5 111647. 2483.32  14
   0  -2   5 113695. 3692.75  10
   0   2  -5 110488. 1800.46   8
   0  -2  -5 101568. 1752.14   1
   0   2  -5 116307. 3339.85  12
   0  -2  -5 114577. 2698.28   4
   0   2  -5 109308. 3405.77   5
   0  -2  -5 110771. 3317.93   5
   0   2   5 119561. 3078.00  10
   0  -2   5 119407. 3702.12  11
   0   2   5 105253. 2739.17  11
   0  -2   6 35685.5 2312.16  10
   0   2  -6 37796.3 2223.15   5
   0   2   6 32263.0 1810.98  11
   0   2  -6 34283.6 1981.20  12
   0  -2   6 39591.1 2383.87  11
   0  -2  -6 35162.7 1997.26  12
   0  -2   6 40387.9 2075.50  14
   0   2   6 35613.9 1622.78  14
   0  -2  -6 35546.4 2084.15   5
   0   2   6 39874.7 2031.11  10
   0  -2   7 3447.25 774.412  10
   0  -2  -7 2865.46 658.341  12
   0   2  -7 3667.81 836.659   5
   0   2   7 2833.35 532.112  14
   0   2  -7 2343.84 587.211  12
   0  -2  -7 2587.52 681.978   5
   0   2   7 2655.26 623.902  11
   0  -2   7 3451.82 803.156  11
   0  -2  -8 7771.20 1156.12  12
   0  -2   8 7727.76 1338.63  11
   0   2  -8 6990.35 1065.50  12
   0   2  -8 8799.33 1329.16   5
   0  -2   8 8489.24 1340.74  10
   0   2   8 6072.45 1029.54  11
   0  -2  -8 7758.35 1199.20   5
   0  -3   0 635.364 268.187   4
   0  -3   0 649.007 230.636   1
   0  -3   0 610.634 186.817   3
   0  -3   0 373.363 125.392  10
   0   3   0 578.525 143.452  10
   0  -3   0 558.272 221.132   8
   0   3   0 327.502 137.994   8
   0   3   0 507.873 232.042   9
   0   3   1 133252. 1789.82  13
   0   3  -1 127914. 2486.25   3
   0   3  -1 128969. 1500.38   5
   0   3  -1 129185. 1957.05   8
   0   3  -1 132429. 2554.95  11
   0  -3  -1 127268. 2650.79   4
   0  -3  -1 133171. 2523.90   1
   0  -3  -1 130185. 2568.02   8
   0  -3  -1 129353. 1695.43   6
   0  -3   1 128803. 2100.46   8
   0  -3   1 127435. 2375.02   4
   0   3  -1 125955. 1669.08   6
   0  -3  -1 129895. 1515.08   5
   0  -3   1 126955. 2307.44  10
   0   3   1 128347. 2475.18   8
   0   3  -1 131178. 2610.49   9
   0   3   1 133387. 2248.36   9
   0  -3  -1 134278. 2114.59  13
   0  -3   1 132743. 2611.40   1
   0  -3  -1 132013. 1098.04  10
   0   3  -1 128687. 2097.44  10
   0   3  -2 80306.3 1340.84   8
   0   3  -2 80421.2 1767.58   5
   0  -3   2 70690.2 1901.04   5
   0   3   2 78629.8 2153.31   8
   0  -3   2 79022.5 1780.49   4
   0  -3  -2 80501.6 1527.50  13
   0  -3   2 78327.6 2219.60  10
   0  -3  -2 76809.2 1971.69   1
   0  -3  -2 77362.9 1717.09   5
   0  -3  -2 75316.1 2169.22   4
   0   3   2 82970.7 1471.36   9
   0  -3   2 74957.6 2127.68  11
   0   3  -2 79129.3 1206.34   7
   0  -3   2 82547.3 2112.17   1
   0  -3  -2 79406.1 1150.72  10
   0   3   2 73860.3 1922.70   5
   0  -3  -3 19967.7 1175.33  12
   0  -3   3 19590.6 1267.80  11
   0  -3   3 18927.1 777.824   4
   0   3  -3 20283.4 1266.86  12
   0  -3  -3 19749.6 772.391  10
   0   3  -3 19755.4 1087.25   5
   0   3   3 21114.5 1243.44   8
   0   3  -3 18142.0 572.055   8
   0  -3  -3 19512.7 998.457   1
   0  -3  -3 18540.3 1055.12   5
   0  -3  -3 19605.3 1147.56   4
   0  -3   3 19171.8 1274.31  10
   0   3  -3 19836.2 897.285   7
   0   3   4 85.3448 144.533   2
   0  -3  -4 193.584 133.316   1
   0   3  -4 453.617 280.033   5
   0   3  -4 105.788 57.3214   8
   0  -3  -4 609.166 384.715   4
   0   3  -4 71.9638 47.2073   8
   0  -3  -4 158.413 300.818   5
   0  -3  -4 163.175 102.213  10
   0  -3   4 336.850 340.908  10
   0   3   4 329.171 245.277   8
   0  -3   4 28.1441 202.002  11
   0   3   5 4982.80 579.125  11
   0   3  -5 6833.16 863.367  12
   0  -3  -5 6034.89 820.484   5
   0  -3  -5 7282.33 810.614   4
   0  -3   5 7123.96 993.059  10
   0   3   5 3300.96 308.863   2
   0   3  -5 6354.77 847.489   5
   0  -3  -5 6764.63 833.963  12
   0   3   5 6982.16 894.494   8
   0  -3   5 6324.68 911.090  11
   0   3   5 6592.38 614.058  14
   0  -3  -6 10199.4 1130.67  12
   0  -3   6 11590.9 1316.29  10
   0   3  -6 9764.27 1101.78  12
   0   3   6 7874.05 854.370  11
   0   3   6 9618.79 838.495  14
   0  -3  -6 9167.01 1088.04   5
   0   3  -6 10709.0 1192.90   5
   0  -3   6 9927.37 1272.32  11
   0  -3  -7 10822.5 1329.84   5
   0   3   7 13264.3 1106.35  14
   0  -3  -7 9465.08 1183.07  12
   0  -3   7 18161.5 1888.23  10
   0   3  -7 8805.06 1164.01  12
   0   3   7 9113.05 1092.66  11
   0  -3   7 14721.2 1838.46  11
   0   3  -7 14724.4 1546.91   5
   0   3  -8 8131.41 1252.62   5
   0  -3   8 7037.77 1259.49  10
   0  -3  -8 7209.14 1128.06   5
   0   3   8 6682.21 1036.51  11
   0   3  -8 6277.78 1009.83  12
   0  -3  -8 7163.85 1151.87  12
   0  -4   0 505967. 5419.95   8
   0  -4   0 511230. 5867.65   4
   0  -4   0 479320. 3986.44  10
   0   4   0 469560. 4895.59   8
   0   4  -1 162837. 2565.72  10
   0  -4   1 170485. 2896.36   8
   0   4  -1 168851. 2640.80   8
   0   4   1 164212. 3164.28   8
   0   4  -1 166349. 1569.19   5
   0  -4  -1 162426. 3410.08   4
   0   4   1 169855. 3028.81   9
   0  -4  -1 161148. 1786.64   6
   0  -4  -1 168928. 1669.77  10
   0  -4  -1 165560. 1584.87   5
   0   4  -1 163536. 1847.37   6
   0  -4   1 165525. 3236.43   4
   0   4  -1 170776. 3170.02   3
   0   4   1 168207. 2425.43  13
   0  -4   1 167800. 2922.72  10
   0  -4  -2 152165. 3463.17   4
   0  -4   2 157688. 3024.56   4
   0   4   2 167875. 2665.98   9
   0  -4  -2 152146. 1423.66  10
   0  -4   2 156841. 3361.36  10
   0  -4  -2 156703. 2403.92   5
   0  -4   2 155239. 2525.88   8
   0   4  -2 159655. 3477.99   3
   0   4   2 155666. 3338.57   8
   0   4  -2 159601. 2338.54   8
   0  -4  -2 158441. 2699.52   6
   0   4  -2 161388. 2399.54   5
   0   4  -2 147900. 2587.47   6
   0  -4  -3 24826.5 1464.29   4
   0   4  -3 24903.3 844.856   7
   0   4   3 25326.8 1496.35   8
   0   4  -3 25030.0 1532.58  12
   0  -4   3 25800.6 1547.88  10
   0  -4   3 26526.6 1535.74  11
   0  -4   3 24821.4 1128.40   4
   0   4  -3 23947.0 780.031   8
   0  -4  -3 23539.6 1164.00   5
   0   4   3 26614.2 823.560   9
   0  -4  -3 23257.0 708.737  10
   0   4  -3 23947.1 1186.04   5
   0  -4  -4 816.353 504.778   5
   0   4  -4 634.114 225.357   7
   0  -4  -4 566.302 159.519  10
   0  -4   4 1085.47 447.754  11
   0   4   4 579.602 365.218   8
   0   4  -4 909.816 515.803   5
   0  -4   4 1028.26 428.432  10
   0  -4   5 78421.5 3357.15  10
   0  -4  -5 79062.6 3009.84  12
   0   4  -5 82192.4 2864.13   5
   0   4  -5 75440.6 2995.08  12
   0  -4  -5 74764.0 2718.42   5
   0   4   5 81878.3 3145.24   8
   0  -4   5 75909.6 3221.65  11
   0  -4  -5 74574.3 2766.61   4
   0   4   5 82003.3 1922.84   2
   0  -4   6 48345.5 2892.42  10
   0  -4  -6 46942.6 2314.03   4
   0  -4   6 52449.5 2939.45  11
   0  -4  -6 48682.9 2423.81   5
   0   4   6 48706.4 1854.69  14
   0   4  -6 48024.9 2537.46  12
   0   4  -6 50894.1 2575.43   5
   0  -4  -6 51029.8 2641.35  12
   0   4   6 47933.8 2082.51  11
   0   4  -7 1066.80 492.165  12
   0  -4   7 1442.17 602.690  11
   0   4  -7 1227.11 501.903   5
   0  -4   7 1456.82 650.959  10
   0   4   7 1276.05 429.830  11
   0   4   7 1358.81 397.535  14
   0  -4  -7 1406.03 559.707   5
   0  -4  -7 785.567 519.409  12
   0   4   8-120.715 343.963  11
   0   4  -8 344.407 301.630   5
   0   4  -8 782.295 446.848  12
   0   5   0-210.133 144.962   8
   0  -5   0 271.649 159.128  10
   0  -5   0-117.043 194.341   4
   0  -5   1 4008.60 569.021   4
   0   5   1 4099.03 440.476  13
   0   5   1 3643.35 551.748   8
   0   5  -1 2776.22 208.905   6
   0   5  -1 3222.08 191.566   5
   0  -5  -1 3865.08 307.311  10
   0   5  -1 4545.99 606.059   3
   0  -5  -1 3051.45 562.301   4
   0  -5  -1 2902.66 181.452   5
   0  -5  -1 2725.89 195.878   6
   0  -5   1 4179.47 513.703  10
   0   5  -1 4028.48 479.995   8
   0  -5  -2 20989.2 853.907   5
   0  -5  -2 20910.2 952.569   6
   0   5  -2 20881.6 1347.75   3
   0   5   2 21560.1 1361.12   8
   0  -5   2 19096.0 1049.44   8
   0  -5  -2 21274.9 1446.93   4
   0  -5   2 21875.9 1300.71   4
   0   5  -2 21817.3 851.765   5
   0   5  -2 19126.8 939.233   6
   0   5  -2 21293.0 986.138   8
   0  -5   2 21550.7 1333.98  10
   0  -5  -3 1785.89 348.126   5
   0   5   3 1685.31 522.664   8
   0   5  -3 1654.50 249.371   8
   0  -5  -3 1913.07 531.693   4
   0   5  -3 1689.51 339.438   5
   0  -5   3 1552.60 471.788  10
   0  -5   3 2098.53 424.797   4
   0   5  -3 1333.29 370.258   3
   0   5   3 2074.88 308.508   9
   0  -5   4 798.215 460.998  10
   0  -5   4 817.035 261.431   4
   0   5   4 1010.13 410.734   8
   0  -5  -4 1556.68 412.110   5
   0   5  -4 2218.05 547.196   5
   0  -5  -4 2799.63 642.815   4
   0  -5  -5 1497.18 446.126   5
   0  -5   5 1535.09 570.765  10
   0   5  -5 1477.70 469.985   5
   0  -5  -5 1895.97 506.771   4
   0  -5   5 1179.40 516.013  11
   0   5   5 2037.33 402.118   2
   0   5   5 1190.07 541.896   8
   0   5  -5 1910.89 578.099  12
   0  -5  -6 9524.17 1073.51   5
   0  -5   6 10690.2 1354.86  11
   0   5   6 10830.6 1342.45   8
   0   5  -6 9816.15 1131.36   5
   0  -5  -6 8433.53 1087.26   4
   0   5  -6 9563.03 1145.05  12
   0  -5   6 10290.0 1394.68  10
   0   5  -7 9152.75 1307.02  12
   0   5   7 11026.5 1164.35  11
   0   5   7 10809.7 1028.87  14
   0  -5   7 11907.9 1615.75  10
   0  -5  -7 10970.6 1287.64   5
   0   5  -7 11159.8 1380.04   5
   0  -5   7 10418.8 1543.66  11
   0   6   0 631438. 6808.73  13
   0   6   0 631469. 7094.91   8
   0  -6  -1 46716.0 1228.68  10
   0  -6   1 47288.1 2204.69   4
   0   6   1 46527.5 2046.81   8
   0  -6  -1 45055.6 2268.43   4
   0   6  -1 49518.5 2017.74   3
   0   6  -1 44409.2 1739.73   8
   0   6   1 48939.9 1632.03  13
   0  -6   1 46173.5 1837.73  10
   0  -6   2 681.195 280.083   4
   0   6  -2 546.298 180.976   6
   0   6  -2 707.870 281.458   3
   0   6   2 783.173 342.231   8
   0   6  -2 855.751 216.474   8
   0  -6  -2 771.191 441.788   4
   0  -6  -2 933.789 207.806   6
   0  -6  -2 945.444 186.716   5
   0   6  -2 697.044 159.402   5
   0  -6   2 387.394 192.193  10
   0  -6  -3 8422.19 1073.93   4
   0   6  -3 10621.7 708.133   8
   0  -6  -3 9336.33 706.518   5
   0   6  -3 9743.19 709.444   5
   0  -6   3 10824.3 1028.88   4
   0   6  -3 9145.11 1039.55   3
   0   6   3 7789.05 982.654   8
   0  -6   3 9839.95 1093.45  10
   0   6  -4 41256.1 1752.27   5
   0   6  -4 36969.6 2226.23   3
   0   6   4 39374.2 2302.22   8
   0  -6   4 38788.3 1792.04   4
   0   6  -4 35387.4 2280.29  12
   0  -6   4 36364.4 2325.55  10
   0  -6  -4 38987.9 1726.00   5
   0  -6  -4 37747.4 2255.59   4
   0   6   5 57448.6 2043.69   2
   0   6   5 53690.3 2824.67   8
   0   6  -5 48902.3 2667.95  12
   0  -6  -5 47976.8 2671.04   4
   0  -6  -5 53935.1 2288.88   5
   0   6  -5 54956.4 2330.27   5
   0  -6   5 54492.0 3049.46  10
   0  -6  -6 437.182 332.713   5
   0  -6  -6 754.624 327.487   4
   0   6   6 153.926 277.374   8
   0  -6   6-322.302 402.654  10
   0   6  -6 187.050 219.721   5
   0   6  -6 16.8642 235.786  12
   0   6   7 1700.07 554.245  11
   0   6   7 615.553 284.699  14
   0   6  -7 1036.01 517.976  12
   0   6  -7 1296.39 490.962   5
   0  -6  -7 656.847 384.857   5
   0   7   0 420.433 307.377   8
   0  -7   0 680.827 407.109   4
   0   7   0-6.08443 217.748  13
   0  -7   0-242.623 245.439  10
   0  -7   0 152.464 150.195   7
   0  -7  -1 70751.8 3058.94   4
   0   7   1 74626.9 2203.87  13
   0  -7  -1 69074.6 1645.67  10
   0   7  -1 69739.3 2403.67   8
   0  -7   1 68337.3 2383.75  10
   0  -7   1 70490.0 2984.64   4
   0   7   1 69580.2 2672.67   8
   0   7  -2 9777.98 1025.26   3
   0  -7   2 8433.74 979.294  10
   0   7   2 7915.21 965.478   8
   0  -7   2 7624.49 982.238   4
   0   7  -2 7204.14 737.163   8
   0  -7  -2 8071.75 1094.30   4
   0   7  -3 27639.6 1885.73   3
   0  -7   3 27399.8 1906.11  10
   0  -7   3 27287.4 1783.36   4
   0   7   3 28717.6 1971.38   8
   0  -7  -3 27012.5 2020.03   4
   0   7   4 737.176 482.039   8
   0  -7   4 866.075 382.436   4
   0   7  -4 1281.69 1048.42  12
   0  -7   4 1067.73 531.672  10
   0   7   5 22215.3 1952.20   8
   0  -7  -5 21017.7 1879.44   4
   0   7  -5 20591.7 1879.01   3
   0  -7   5 23874.7 2129.27  10
   0   7   5 25580.6 1491.78   2
   0   7  -5 20687.5 1807.76  12
   0   7  -6 5327.68 1029.58   3
   0   7   6 7293.82 1261.14   8
   0  -7  -6 6132.47 1051.04   4
   0  -7   6 7475.90 1287.95  10
   0   7  -6 4565.24 961.607  12
   0   7   7 24491.0 1592.66  14
   0   7   7 26166.1 1746.15  11
   0   8   0 231529. 5055.20   8
   0   8   0 239979. 4854.90  13
   0  -8   0 238248. 4114.61  10
   0   8   1 14658.4 1312.72   8
   0  -8   1 14054.1 1537.61   4
   0  -8  -1 13332.0 1487.35   4
   0  -8   1 14466.3 1175.76  10
   0   8   1 14681.9 1067.46  13
   0   8  -1 14129.6 1188.64   8
   0   8  -2 1882.16 553.547   3
   0  -8   2 1244.55 409.636   4
   0  -8  -2 1832.51 707.988   4
   0  -8   2 2279.32 532.474  10
   0   8  -2 1247.01 360.248   8
   0   8   2 1627.06 504.727   8
   0   8  -3 4731.47 859.697   3
   0  -8   3 3595.55 754.728  10
   0  -8  -3 3525.79 952.093   4
   0   8   3 5611.03 1011.32   8
   0  -8   3 3719.28 758.884   4
   0   8  -4 18183.5 1805.02  12
   0  -8   4 19944.1 1873.93  10
   0   8  -4 18578.1 1702.74   3
   0  -8  -4 18403.1 1848.84   4
   0   8   4 17986.0 1756.27   8
   0  -8   5 28153.0 2422.90  10
   0  -8  -5 25185.7 2216.65   4
   0   8  -5 24597.0 2124.57  12
   0   8   5 29807.1 2365.91   8
   0   8  -5 23717.4 2049.19   3
   0   8  -6-54.7608 323.607  12
   0  -8  -6-576.203 419.102   4
   0   9   0 52.4355 249.611  13
   0   9   0 92.1841 295.124   8
   0  -9   0 156.145 297.809   4
   0   9   1 441.068 338.231   8
   0   9  -1 613.401 354.879   8
   0   9  -1-263.909 337.694  13
   0  -9  -1 467.896 288.467   4
   0   9   1 1249.28 373.118  13
   0  -9   1 562.539 341.704   4
   0   9   2 3512.46 787.334   8
   0  -9   2 2252.51 659.984   4
   0  -9   2 2555.52 658.402  10
   0  -9  -2 1785.48 637.579   4
   0  -9   3 252.439 247.879   4
   0  -9   3 445.320 378.974  10
   0   9   3 755.363 427.560   8
   0   9  -3 923.062 416.767   3
   0  -9  -3 459.862 390.396   4
   0  -9  -4 364.370 736.532   4
   0   9  -4 1081.64 735.627  12
   0  -9   4-400.352 310.803  10
   0   9   4-367.675 290.828   8
   0   9  -5 470.958 437.274  12
   0  -9  -5-194.618 384.735   4
   0  -9   5 387.353 531.615  10
   0 -10   0 9791.82 1454.30   4
   0  10   0 10035.2 1265.51   8
   0  10   0 8741.95 1034.66  13
   0  10   1 4929.72 715.760  13
   0 -10   1 4096.22 964.377   4
   0 -10  -1 5355.77 1111.09   4
   0  10  -1 4501.14 822.266  13
   0  10   1 4705.13 909.778   8
   0  10  -1 5040.02 858.611   8
   0  10   2 13753.0 1543.37   8
   0 -10   2 14925.5 1783.82   4
   0 -10  -2 11996.7 1715.32   4
   0 -10  -3 2394.37 732.006   4
   0 -10   3 2021.69 745.462   4
   0  10   3 2460.62 886.176   8
   0 -10   4 2243.30 979.523  10
   0  11   0 76.8663 312.498  13
   0  11   0 706.471 349.576   8
   0  11  -1 60.3201 248.366  13
   0 -11   1-271.910 482.056   4
   0  11   1 448.087 338.423   8
   0 -11   2-43.2739 451.207   4
   1   0  -9 179.796 266.276  12
  -1   0   8 35983.1 2601.11  11
   1   0  -8 30961.9 2375.97   5
  -1   0   8 33759.0 2225.62  14
   1   0  -8 30360.6 2011.67  12
  -1   0   7 11044.9 1294.83  11
  -1   0   7 11209.9 1178.07  14
  -1   0   7 12898.3 1388.83  10
   1   0  -7 9878.74 1041.65  12
   1   0  -7 9230.47 1216.23   5
   1   0  -6 279.270 276.844  12
  -1   0   6 940.685 417.493  10
  -1   0   6 574.667 264.056  14
   1   0  -6 313.032 325.309   5
  -1   0   6 371.922 333.907  11
  -1   0   5 41403.7 2009.43  10
  -1   0   5 36464.4 1659.76  14
   1   0  -5 39197.5 933.906   2
   1   0  -5 37587.6 2145.64   5
  -1   0   5 39781.2 1864.99  11
   1   0  -5 40163.8 1157.66   9
   1   0  -4 86369.0 1407.56   2
  -1   0   4 88784.6 2627.07  10
  -1   0   4 85863.0 2327.44  11
   1   0  -4 85106.5 2789.63   5
  -1   0   4 84929.8 1896.24   9
   1   0  -4 86510.2 1611.40   9
  -1   0   4 83146.4 2231.67  14
   1   0  -4 81614.3 2045.72  12
  -1   0   3 910338. 7964.95   6
   1   0  -3 906553. 5522.87  12
  -1   0   3 930447. 5542.39   9
  -1   0   3 897189. 6247.30  14
  -1   0   3 912524. 6331.60  11
  -1   0   3 914132. 6015.27  12
   1   0  -3 922215. 5233.56  11
   1   0  -3 919367. 4785.16   9
   1   0  -2 37378.7 1224.21  10
  -1   0   2 33570.2 971.587  11
  -1   0   2 36919.2 942.258   9
   1   0  -2 35641.3 831.172   9
   1   0  -2 34404.1 871.889  11
  -1   0   2 37949.0 874.394  12
   1   0  -2 36982.7 805.279  12
   1   0  -2 36000.1 935.998  14
   1   0  -2 36699.6 1290.74   6
  -1   0   2 35682.9 1302.33   6
  -1   0   2 35929.0 1028.20  14
   1   0  -1 10758.2 393.855   9
   1   0  -1 12196.5 440.419  14
  -1   0   1 11266.3 610.905   6
  -1   0   1 11423.6 620.358   7
  -1   0   1 10993.3 440.571   9
   1   0  -1 10520.1 416.896  11
  -1   0   1 11774.0 471.515  14
   1   0  -1 10668.9 567.661   6
   1   0   0 672367. 3727.08   5
  -1   0   0 657951. 4271.85   7
  -1   0   0 664557. 3707.76   6
   1   0   0 665379. 4236.31   7
   1   0   1 451438. 3278.96   8
   1   0   1 454754. 3911.60  12
  -1   0  -1 447802. 4237.70   7
   1   0   1 447901. 4237.22   7
  -1   0  -1 444718. 3675.16   5
  -1   0  -1 444528. 3745.16  12
   1   0   1 442445. 3134.43  10
   1   0   2 198761. 3256.20  12
  -1   0  -2 193571. 3003.82   5
  -1   0  -2 194561. 2513.28  10
  -1   0  -2 191877. 3045.07  12
   1   0   2 194165. 2328.36   8
   1   0   2 192549. 3134.87   5
  -1   0  -2 190110. 2424.61   8
   1   0   2 193994. 2781.66  10
  -1   0  -2 193193. 3350.22   7
   1   0   2 191582. 1611.88  14
   1   0   2 183531. 2091.82   4
   1   0   3 786.150 299.284  10
  -1   0  -3 520.665 217.828   5
   1   0   3 572.612 200.983   8
   1   0   3 988.821 341.196  11
   1   0   3 487.506 158.688   4
  -1   0  -3 808.257 248.238   8
   1   0   3 425.883 130.881  14
  -1   0  -4 122048. 3155.38  12
   1   0   4 117805. 2837.06  11
  -1   0  -4 120286. 3264.81   5
   1   0   4 125016. 2398.32   8
   1   0   4 122014. 3198.34  10
  -1   0  -4 126066. 2518.87   8
   1   0   4 125755. 2282.61  14
   1   0   5 340131. 5995.71  10
  -1   0  -5 322837. 5703.77  12
   1   0   5 324492. 5569.88  11
  -1   0  -5 343105. 6093.54   5
   1   0   5 342503. 4390.45  14
  -1   0  -6 2635.63 582.132  12
   1   0   6 3600.57 715.423  10
   1   0   6 3734.44 728.518  11
  -1   0  -6 3275.66 685.913   5
   1   0   7 6781.70 1079.68  11
  -1   0  -7 8688.11 1169.43   5
   1   0   7 9072.18 1195.57  10
  -1   0  -7 7568.26 1076.36  12
   1   0   8 2351.90 657.569  10
   1   1  -9 1235.83 484.326  12
   1  -1  -9 1363.41 591.629  12
   1  -1  -8 4477.83 844.587  12
   1  -1  -8 3910.89 1225.94   5
  -1  -1   8 7650.71 1096.30  14
   1   1  -8 2875.25 1182.65   5
  -1   1   8 7230.28 1042.13  14
   1   1  -8 3551.20 739.659  12
  -1  -1   8 7340.89 1255.64  11
  -1   1   8 6517.02 1160.29  11
  -1  -1   8 8435.41 1435.40  10
   1   1  -7 1353.15 428.012  12
  -1   1   7 1547.08 523.492  11
   1  -1  -7 575.973 312.031  12
  -1  -1   7 1253.04 411.467  14
   1  -1  -7 1310.80 522.985   5
  -1   1   7 1044.46 392.296  14
   1   1  -7 1240.47 564.057   5
  -1  -1   7 1367.18 436.992  11
  -1  -1   7 984.425 435.429  10
   1  -1  -6-291.019 333.783   5
   1   1  -6 120.711 255.547  12
   1  -1  -6 193.765 266.646  12
  -1   1   6 377.152 295.131  11
   1   1  -6 891.018 412.360   5
   1  -1  -6 562.465 246.608   4
  -1  -1   6-15.2127 229.319  14
  -1  -1   6 130.251 284.781  11
  -1   1   6-180.317 301.305  14
  -1  -1   6 54.4514 274.878  10
  -1   1   5 885.668 331.692  14
   1   1  -5 8300.63 1245.81   5
   1  -1  -5 10968.6 1311.09   5
  -1  -1   5 917.609 443.281  10
  -1  -1   5 1075.98 386.363  14
   1  -1  -5 17039.7 1157.00  12
   1   1  -5 2105.63 452.417  12
  -1  -1   5 1359.60 462.819  11
  -1   1   5 1391.75 371.336  11
   1  -1  -4 3061.72 529.051   5
  -1   1   4 3765.73 444.685  11
   1   1  -4 3371.88 592.979   5
   1  -1  -4 3762.83 450.823  12
   1  -1  -4 3343.08 293.574   2
  -1  -1   4 3143.98 497.903   9
  -1  -1   4 3803.90 560.564  11
  -1   1   4 3330.52 313.571   9
  -1  -1   4 3618.24 550.200  14
  -1   1   4 3460.73 450.661  14
  -1  -1   4 3390.88 575.337  10
   1   1  -4 3430.32 434.878   9
   1   1  -4 3632.17 483.248  12
  -1  -1   3 319567. 3923.85   9
   1  -1  -3 297411. 3813.61   8
  -1  -1   3 306311. 4059.89  14
   1  -1  -3 310118. 3481.53  12
  -1   1   3 308979. 3325.66  14
   1  -1  -3 324677. 2706.84   2
   1   1  -3 326239. 3718.92   9
  -1   1   3 321732. 3585.09  12
   1  -1  -3 326499. 4251.72  10
  -1  -1   3 309667. 4093.90  11
  -1   1   3 326221. 2662.36   9
  -1  -1   3 314103. 3793.41  12
  -1  -1   3 315907. 4597.24  10
   1  -1  -3 319620. 4594.17   5
   1   1  -3 316543. 3479.92  12
  -1   1   3 313080. 3296.72  11
   1   1  -3 325056. 4686.30   5
   1   1  -2 611367. 4642.55  14
  -1  -1   2 566886. 4828.11  14
   1   1  -2 612217. 4551.89   9
   1   1  -2 576149. 3685.52  12
   1   1  -2 610946. 4725.90  11
   1  -1  -2 588200. 4029.77  12
  -1   1   2 592980. 3209.74  11
   1   1  -2 619409. 5312.29  10
  -1   1   2 596851. 3751.38  14
   1  -1  -2 616254. 3554.88   2
  -1   1   2 600293. 3867.43  12
  -1   1   2 593222. 2941.44   9
  -1  -1   2 627537. 5447.20  10
   1  -1  -2 607233. 5212.49   6
  -1   1   2 593659. 3774.88   2
   1   1  -2 610208. 5247.51   6
  -1  -1   2 585973. 5217.63   6
  -1   1   2 589331. 5265.28   6
  -1  -1   2 577106. 4728.67  11
  -1  -1   2 599489. 4725.33   9
  -1  -1   1 676112. 4107.70   7
   1   1  -1 691112. 4427.76  14
   1   1  -1 685443. 4138.80   7
  -1   1   1 636281. 3609.21   2
   1  -1  -1 669502. 4814.66   7
   1  -1  -1 673357. 4137.79   6
   1   1  -1 655395. 4155.19   9
   1   1  -1 638693. 4391.29  10
  -1  -1   1 638682. 4172.30   6
  -1  -1   1 650652. 4514.49  14
   1  -1  -1 650357. 3568.08   2
  -1   1   1 673369. 4317.78   6
  -1  -1   1 624600. 4304.22   9
   1   1   0 199898. 2401.45   7
  -1  -1   0 211606. 1836.17  13
   1   1   0 196897. 1921.46   9
   1  -1   0 200300. 2371.46   7
   1   1   0 201880. 1786.22  12
   1  -1   0 211484. 1910.78   2
   1   1   0 195622. 2509.68   8
  -1   1   0 199450. 2370.02   7
   1   1   0 195036. 2482.03   4
  -1  -1   0 202297. 2410.06   7
  -1  -1   0 203073. 1845.41  12
  -1  -1   0 198989. 2054.20   9
  -1   1   0 207387. 2050.33   6
  -1   1   0 208950. 1914.69   2
   1  -1   0 198271. 1419.81  11
   1  -1   0 204043. 2074.77   5
   1   1   0 203298. 2036.81   5
  -1  -1   0 206037. 2064.64   6
  -1  -1  -1 30949.3 1091.23   8
  -1   1  -1 30641.9 1043.03   7
   1  -1   1 29743.9 1160.14  12
   1  -1   1 31033.1 842.095  11
   1  -1   1 31312.9 1072.68   7
  -1  -1  -1 30575.4 695.725   9
   1   1   1 29930.3 1036.76   8
   1   1   1 31692.5 997.785  12
   1   1   1 30324.3 1032.47   4
  -1   1  -1 30906.4 974.867   5
  -1   1  -1 30478.6 1112.53  12
  -1  -1  -1 30826.7 986.337   5
   1   1   1 31902.1 1003.69   5
  -1   1  -1 31638.2 703.974   2
  -1  -1  -1 31541.6 983.544  12
   1  -1   1 31775.5 977.118  10
   1   1   1 29914.6 687.351  10
   1  -1   1 32353.8 1013.47   5
  -1  -1  -1 29968.2 1024.20   4
  -1  -1  -1 30690.2 1165.69   7
   1  -1   2 365783. 2276.91   8
   1  -1   2 393342. 4481.52   5
   1   1   2 377522. 2908.63   1
   1   1   2 364703. 3499.65  10
   1   1   2 374850. 3700.14   4
  -1  -1  -2 390554. 3052.23  10
  -1   1  -2 374544. 2511.33  14
  -1   1  -2 367345. 4120.32   5
   1   1   2 371197. 3927.47   8
  -1   1  -2 374202. 2214.83   2
  -1   1  -2 373082. 4447.31   7
   1  -1   2 374654. 4217.56  10
   1  -1   2 382930. 3873.46  11
  -1  -1  -2 374177. 4090.74   8
  -1  -1  -2 373837. 4167.62   5
   1   1   2 384482. 4388.08   5
  -1  -1  -2 373955. 4129.08  12
  -1  -1  -2 352260. 3704.57   4
  -1   1  -2 368740. 4484.70  12
  -1  -1  -2 379916. 2332.03   9
   1  -1   3 68933.1 1991.07  11
  -1   1  -3 77923.6 1259.33  14
   1   1   3 65727.9 1618.62   4
   1   1   3 69581.4 1233.57  14
  -1   1  -3 68047.4 1237.84   8
   1  -1   3 66278.1 1141.19   8
   1  -1   3 55965.1 946.727   1
   1   1   3 69063.2 1872.30   8
  -1  -1  -3 70986.5 1963.53   8
  -1   1  -3 70121.0 2145.54   5
  -1  -1  -3 67490.1 1663.05   4
  -1  -1  -3 70478.5 2170.38   5
   1   1   3 68023.6 1905.22  10
  -1  -1  -3 71350.9 1649.64  10
  -1   1  -3 88455.9 2504.74  12
   1  -1   3 70224.5 2225.85  10
  -1  -1  -4 84879.9 2703.44   5
   1  -1   4 88377.2 2101.44  14
  -1   1  -4 79825.1 2646.49  12
   1   1   4 85819.7 2315.64   8
   1   1   4 76574.4 2170.01  11
  -1   1  -4 82187.8 1611.68   8
  -1   1  -4 81546.5 1380.27  14
  -1  -1  -4 80314.2 2531.37  12
   1   1   4 81736.5 2451.54  10
   1  -1   4 79428.4 2732.07  10
  -1   1  -4 82435.9 2672.04   5
   1  -1   4 81676.6 2563.88  11
   1   1   4 81621.3 1714.25  14
   1   1   5 375.573 218.946  11
   1   1   5 528.221 219.830  10
  -1  -1  -5 524.475 276.782   5
  -1  -1  -5 715.137 134.424   9
   1  -1   5 279.091 136.553  14
  -1  -1  -5 470.040 230.477  12
   1  -1   5 506.023 282.978  10
   1  -1   5 237.817 271.334  11
   1   1   5 417.704 171.603  14
  -1   1  -5 250.751 272.963   5
  -1   1  -5 829.672 392.137  12
   1   1   5 712.648 275.858   8
  -1  -1  -6 11837.5 1309.00   5
   1   1   6 14277.4 1309.46  10
   1   1   6 11370.1 1151.11  11
  -1   1  -6 12780.1 1366.48   5
  -1  -1  -6 13981.8 1316.95  12
  -1   1  -6 13838.7 1317.39  12
   1  -1   6 14533.9 1432.65  11
   1  -1   6 14586.8 1467.43  10
  -1  -1  -7 3587.92 798.548   5
  -1  -1  -7 2929.23 707.615  12
  -1   1  -7 3193.95 684.986  12
   1  -1   7 3587.92 863.413  11
   1  -1   7 3393.66 766.375  10
   1   1   7 2169.78 543.896  11
  -1   1  -7 2932.47 734.054   5
   1   1   7 4028.81 785.673  10
   1  -1   8 120.544 280.538  10
   1   2  -9 6085.85 962.350  12
   1  -2  -9 7415.68 1140.34  12
   1   2  -8 26385.4 1881.51  12
   1  -2  -8 26205.7 1966.20  12
  -1   2   8 27854.3 2176.58  11
   1  -2  -8 24002.0 2095.73   5
   1   2  -8 27556.0 2251.19   5
  -1   2   8 28531.1 1967.38  14
  -1  -2   8 31619.4 2581.14  11
  -1  -2   8 29165.0 2393.89  10
  -1  -2   8 27848.9 2169.91  14
  -1  -2   7 2561.52 661.756  11
   1  -2  -7 2469.34 620.578   5
   1   2  -7 2891.87 581.819  12
   1  -2  -7 2393.96 622.624  12
  -1  -2   7 1756.54 593.521  10
  -1   2   7 2234.74 516.210  11
  -1   2   7 1465.94 386.784  14
   1   2  -7 2613.95 696.000   5
  -1  -2   7 2269.98 622.529  14
  -1  -2   6 299.793 261.390  11
  -1  -2   6 854.697 353.286  14
   1  -2  -6 636.172 433.276   5
   1   2  -6 788.530 344.725  12
   1  -2  -6 752.798 323.549  12
   1  -2  -6 679.924 301.736   4
  -1   2   6 260.209 182.225  11
  -1  -2   6 131.420 220.976  10
   1   2  -6 718.348 363.155   5
  -1   2   6 887.278 315.216  14
   1   2  -5 27153.1 2032.61   5
  -1  -2   5 3098.60 692.094  14
   1   2  -5 22117.8 1251.81   1
   1   2  -5 2141.20 274.143   4
  -1   2   5 3063.27 465.577  14
   1  -2  -5 34212.4 2137.91   5
  -1  -2   5 3164.40 666.121  10
   1   2  -5 3304.77 587.876  12
  -1   2   5 2974.40 473.026  11
  -1  -2   5 4024.33 755.811  11
  -1   2   4 15214.2 754.422   2
  -1  -2   4 17355.5 1257.09  14
   1   2  -4 17255.0 1286.58   5
   1  -2  -4 17820.1 1263.03   5
  -1  -2   4 18423.7 1306.09  10
  -1  -2   4 16228.2 1221.09  11
  -1   2   4 18013.1 931.999  14
   1   2  -4 16929.3 756.719   4
  -1   2   4 19806.2 942.934  11
  -1   2   4 14050.0 471.743   9
   1  -2  -4 17766.3 1070.71  12
   1   2  -4 17458.9 1028.13  12
  -1  -2   3 139598. 3090.19   9
  -1   2   3 153205. 1452.64   9
   1  -2  -3 154181. 2779.51  10
   1  -2  -3 144374. 3056.56   5
   1   2  -3 139635. 2250.99   4
   1   2  -3 147272. 2656.21  12
  -1  -2   3 142397. 3056.33  11
  -1  -2   3 146333. 3293.69  10
  -1   2   3 149874. 2196.75   2
   1   2  -3 150723. 3210.18   5
  -1  -2   3 146361. 3141.06  14
  -1   2   2 53149.6 1586.62   6
   1   2  -2 53682.8 1651.40  11
   1   2  -2 47864.3 1217.03   7
   1   2  -2 52704.7 1570.45   6
   1   2  -2 54104.9 1639.33   9
   1   2  -2 50949.4 1392.49   4
   1  -2  -2 51489.2 1534.26   6
   1   2  -2 55225.5 1691.35  10
   1   2  -2 53087.7 1608.30  14
  -1  -2   2 53553.3 1682.51  10
  -1  -2   2 53035.9 1668.19   9
  -1   2   2 55022.0 1254.68   2
  -1  -2   2 51006.5 1555.88   6
  -1   2   2 55339.4 1464.22  12
   1  -2  -2 51762.8 1547.34   8
  -1  -2   1 759089. 4780.02   6
  -1  -2   1 837807. 5965.27   4
   1   2  -1 763108. 5117.87  10
   1  -2  -1 820506. 5325.48   8
   1   2  -1 761612. 4521.33   6
  -1   2   1 763179. 3132.31  13
  -1   2   1 868167. 5097.09   6
   1   2  -1 817802. 5732.56   8
   1   2  -1 747647. 5672.90  14
   1  -2  -1 835563. 4669.08   6
  -1  -2   1 793091. 4259.60   7
   1  -2  -1 803321. 5789.42   7
   1   2  -1 857199. 5946.40   9
  -1  -2   1 760632. 5787.50   9
  -1  -2   1 714060. 5453.22  10
   1   2  -1 790921. 4190.94   7
  -1   2   1 757409. 4594.66   2
   1   2  -1 831795. 5879.16   4
   1   2  -1 800339. 5132.14   3
  -1   2   0 485759. 3525.95   2
  -1   2   0 481702. 3054.25  11
   1   2   0 475986. 3375.75  13
   1  -2   0 494356. 3542.33   8
   1   2   0 464698. 4463.53   8
  -1   2   0 497436. 3475.15   3
  -1  -2   0 464095. 4590.59   4
   1   2   0 485182. 3890.49   9
   1   2   0 479867. 4629.34   4
  -1  -2   0 516463. 3952.30  13
   1   2   0 474127. 3890.73   7
  -1  -2   0 478706. 3212.22   6
   1   2   0 480684. 3754.32  12
  -1   2   0 479207. 3186.90   6
  -1   2   0 467398. 3799.41   7
   1  -2   0 467392. 3738.54   7
  -1  -2   0 480235. 4096.65   9
   1   2   0 448010. 3039.43   5
  -1  -2   0 479630. 3935.82   7
   1  -2   0 487867. 3113.82   5
  -1  -2   0 467069. 4623.17   8
   1  -2   1 5831.51 468.114  11
   1   2   1 5833.44 348.503   9
   1  -2   1 5681.16 291.174   8
   1  -2   1 5814.68 438.264   5
  -1  -2  -1 5857.01 570.945   8
   1  -2   1 5990.18 454.020   7
  -1   2  -1 5859.82 445.621   7
  -1  -2  -1 5522.78 400.032   9
  -1  -2  -1 5745.46 543.578   4
  -1  -2  -1 5683.04 497.526  12
   1  -2   1 6003.84 472.866  10
   1   2   1 5941.51 480.927  12
   1   2   1 6148.42 500.203   1
   1   2   1 5547.32 241.064  10
  -1  -2  -1 6258.35 459.724   5
   1   2   1 6375.12 451.140   5
  -1   2  -1 6794.52 429.794  11
  -1   2  -1 6229.40 456.574   5
   1   2   1 5727.26 529.688   8
  -1  -2  -1 5849.30 575.799   7
   1   2   1 5754.48 535.605   4
  -1  -2  -2 154683. 1884.10   9
  -1  -2  -2 149020. 2830.62   4
  -1  -2  -2 158783. 2842.29  12
  -1   2  -2 155108. 1855.35   2
  -1   2  -2 162931. 2358.94  14
  -1  -2  -2 158614. 2698.55   5
   1  -2   2 159068. 2853.91  11
   1   2   2 159600. 2959.44   8
   1   2   2 161380. 2872.91   5
   1  -2   2 156492. 3006.32  10
  -1   2  -2 155569. 2701.52   7
   1   2   2 158186. 2836.53   4
  -1   2  -2 159031. 3255.85  12
   1   2   2 155005. 1973.78  10
  -1   2  -2 155401. 2645.88   5
   1   2   2 156616. 2350.79   1
  -1  -2  -3 74032.1 2199.49   5
  -1  -2  -3 74336.1 1185.91   9
   1   2   3 74180.7 2073.32   4
   1  -2   3 76786.7 1602.56   1
  -1   2  -3 75575.7 1642.48  14
  -1   2  -3 76790.5 2235.65   5
   1   2   3 77451.2 2220.97   8
  -1  -2  -3 73554.4 2092.06   4
   1  -2   3 76180.2 2296.52  11
  -1   2  -3 71849.7 1159.03   2
  -1  -2  -3 76374.1 1507.98  10
   1   2   3 74327.3 1809.80  10
   1  -2   3 75959.4 2456.11  10
   1   2   4 97866.2 1797.14  14
  -1  -2  -4 89836.6 1106.72   9
  -1   2  -4 105591. 2995.10   5
   1  -2   4 105936. 3302.20  10
   1   2   4 89926.7 1200.48   2
  -1  -2  -4 102470. 2580.57   4
  -1  -2  -4 101049. 2889.54  12
  -1   2  -4 101561. 3128.31  12
   1  -2   4 104954. 3095.38  11
   1   2   4 105778. 2838.45   8
  -1   2  -4 93531.1 1171.86   2
   1   2   4 104607. 2553.94  10
  -1  -2  -4 98270.9 2953.63   5
  -1   2  -5 121554. 3721.05  12
  -1  -2  -5 113393. 3413.85  12
   1   2   5 130584. 3416.78   8
  -1  -2  -5 114398. 3583.55   5
  -1   2  -5 122002. 3647.56   5
  -1  -2  -5 116354. 2748.18   4
   1  -2   5 120648. 3957.26  10
   1  -2   5 129057. 3938.58  11
   1   2   5 117105. 2390.43  14
   1   2   5 123773. 3223.69  10
   1   2   6 4673.63 770.058   8
  -1   2  -6 3458.58 756.279   5
   1  -2   6 5116.47 933.402  11
   1   2   6 1975.46 410.631  11
  -1  -2  -6 3202.86 755.017   5
  -1   2  -6 4444.88 809.794  12
  -1  -2  -6 4276.85 758.476  12
   1   2   6 4721.60 756.472  10
   1  -2   6 5451.31 989.482  10
   1   2   7 636.676 278.432  11
  -1   2  -7 766.871 362.599  12
   1  -2   7 1782.72 646.568  11
  -1  -2  -7 1322.80 546.285  12
  -1  -2  -7 1603.56 518.593   5
   1  -2   7 2013.55 607.468  10
  -1   2  -7 1730.28 605.134   5
   1  -2   8 2519.02 743.320  10
   1  -3  -8 24768.5 2019.16  12
  -1  -3   8 23296.3 2245.64  11
   1   3  -8 26156.0 2263.07   5
  -1   3   8 24361.8 1805.71  14
   1   3  -8 21901.3 1765.92  12
  -1  -3   8 29461.6 2487.17  10
  -1   3   8 23851.3 1918.70  11
   1  -3  -8 25824.5 2122.41   5
  -1   3   7 536.656 326.490  14
  -1   3   7 404.993 192.492  11
   1   3  -7 475.877 334.247  12
   1  -3  -7 174.939 283.915  12
  -1  -3   7-115.226 227.631  11
  -1  -3   7 560.888 385.227  10
   1   3  -7 409.938 311.508   5
   1  -3  -7-266.525 364.754   5
   1  -3  -6 49301.0 2500.65   5
   1   3  -6 53947.7 2674.15   5
  -1   3   6 44099.8 1871.73  14
   1   3  -6 49080.2 2240.69  12
  -1  -3   6 49693.9 2762.45  10
  -1  -3   6 50637.2 2707.91  11
   1  -3  -6 49901.4 2118.36   4
   1  -3  -6 49312.5 2357.87  12
  -1   3   6 52846.3 2152.91  11
   1   3  -5 23140.8 1746.46   5
   1  -3  -5 32106.2 1761.71  12
  -1  -3   5 7805.41 995.972  11
   1   3  -5 26243.0 1467.26   1
   1  -3  -5 27813.7 1797.46   5
   1   3  -5 13713.8 1394.28  12
  -1  -3   5 7991.83 1028.61  10
  -1   3   5 7451.24 688.114  11
   1   3  -4 74653.8 1815.24   4
  -1  -3   4 71612.5 2620.83  11
  -1   3   4 75755.5 1803.86   2
   1   3  -4 73065.6 2262.84   1
   1  -3  -4 70694.8 2414.45   5
  -1  -3   4 73265.2 2760.05  10
   1   3  -4 74233.3 2333.46  12
  -1   3   4 70400.1 910.699   9
   1   3  -4 80890.5 2689.12   5
   1   3  -3 99111.7 2593.70   1
   1   3  -3 97408.6 2537.88  12
   1  -3  -3 106108. 2253.00  10
   1   3  -3 104583. 2256.96   4
   1   3  -3 94461.6 2124.55   8
   1   3  -3 91388.5 1890.14   7
   1   3  -3 105796. 2692.86   5
  -1  -3   3 106980. 2976.12   9
  -1   3   3 100754. 2083.08   2
   1  -3  -3 97287.0 2491.18   5
  -1  -3   3 98099.9 2832.39  10
   1   3  -2 6135.71 550.619   8
   1  -3  -2 6739.02 555.855   6
   1   3  -2 6111.29 377.894   7
  -1  -3   2 6180.06 559.387   6
  -1  -3   2 6028.04 609.406   4
   1   3  -2 6388.99 575.487   6
   1   3  -2 6022.23 643.411   3
  -1   3   2 6513.60 560.457   6
  -1   3   2 5999.82 644.368   8
   1  -3  -2 7096.95 416.842  13
  -1  -3   2 7116.45 749.185   9
  -1  -3   2 7126.31 683.465  10
   1   3  -2 6515.13 597.820   4
   1   3  -2 6423.39 651.775   1
  -1   3   2 6635.05 537.752   2
  -1  -3   1 334553. 4515.26   9
   1  -3  -1 351508. 4020.25   8
  -1   3   1 363052. 3285.98   6
  -1  -3   1 338073. 4215.46   3
  -1  -3   1 352409. 4398.91   8
   1  -3  -1 352701. 4091.67   7
  -1   3   1 328309. 3984.35   8
   1   3  -1 347446. 4434.40   4
   1   3  -1 350003. 4191.58   8
  -1  -3   1 352534. 4492.06   4
  -1   3   1 332446. 2812.91  13
   1   3  -1 328456. 2878.43   6
  -1  -3   1 341806. 2713.19   7
   1   3  -1 349051. 3721.56  10
   1   3  -1 344299. 4627.69   1
  -1  -3   1 343874. 3152.41   6
   1   3  -1 341028. 2687.12   7
  -1  -3   1 348213. 3784.41  10
   1   3  -1 306697. 3800.84   3
   1  -3  -1 345931. 2882.19   6
  -1   3   0 219557. 2802.57   3
  -1  -3   0 223965. 3068.12   3
  -1  -3   0 208390. 3198.56   9
   1   3   0 220627. 3206.67   9
   1   3   0 212706. 3526.80   4
   1  -3   0 198026. 2558.46   7
   1   3   0 210662. 3488.54   1
  -1  -3   0 205970. 3503.10   8
   1  -3   0 219443. 2797.91   8
  -1  -3   0 201474. 3496.27   4
   1  -3   0 216733. 2081.43   5
   1   3   0 206706. 3334.18   8
   1   3   0 214810. 2034.11   5
  -1   3   0 220818. 2181.06   6
   1  -3   0 215518. 2549.54  10
  -1  -3   0 215479. 2179.46   6
  -1  -3   0 215229. 2809.15   7
  -1   3   0 223445. 2716.97  11
   1   3   0 210902. 2738.44  13
   1   3   0 208988. 2104.42  10
   1  -3   0 218574. 2996.51   3
  -1   3   0 201303. 2718.60   7
  -1   3  -1 22298.3 851.913   7
  -1  -3  -1 22247.1 1237.80   4
   1  -3   1 22890.2 762.140   8
  -1   3  -1 22472.0 827.295   5
  -1  -3  -1 21665.3 1126.68   7
   1  -3   1 22179.3 1037.96  10
   1  -3   1 22069.9 1016.33  11
   1  -3   1 23338.8 861.645   7
   1   3   1 22274.3 1115.77   1
   1  -3   1 23730.1 904.254   5
  -1  -3  -1 21847.0 845.641   5
   1   3   1 22459.0 1166.93   8
   1   3   1 22393.1 891.356   9
  -1   3  -1 24954.3 1001.77  11
   1   3   1 23354.2 884.004   5
  -1   3  -1 22809.1 1086.78   3
  -1  -3  -1 20999.8 989.743   9
  -1  -3  -2 35.0214 168.515   5
  -1   3  -2 306.824 153.500   7
  -1   3  -2 24.1409 215.662  12
  -1  -3  -2 82.1692 124.332   9
  -1   3  -2 270.844 172.859   5
  -1  -3  -2-50.6065 158.773   4
   1   3   2 3.69902 76.1162   9
  -1  -3  -2-198.966 177.553  12
   1   3   2 45.6839 145.540   1
   1  -3   2 101.202 127.482  11
   1  -3   2 50.4863 188.884  10
   1   3   2 110.035 62.4772  10
   1  -3   3 35742.0 1752.87  11
  -1  -3  -3 31579.0 888.117   9
  -1   3  -3 33999.1 1422.62   7
  -1  -3  -3 33110.3 1651.28   4
   1  -3   3 34350.5 1041.90   4
   1  -3   3 37241.5 1400.62   1
   1   3   3 36432.7 1691.13   8
   1  -3   3 34994.5 1772.98  10
  -1  -3  -3 35028.1 1536.77   5
  -1   3  -3 35074.4 1493.99   5
   1   3   3 36162.3 1065.55  10
  -1   3  -4-235.889 275.264   5
  -1   3  -4-161.362 95.7243   2
   1  -3   4 6.13278 182.184  11
   1   3   4 63.1672 191.609   8
  -1   3  -4-80.6149 298.979  12
   1   3   4 151.875 144.929  10
  -1  -3  -4-91.3940 225.585   5
   1  -3   4-124.762 239.505  10
  -1  -3  -4-117.216 232.777  12
  -1  -3  -4 528.069 317.764   4
  -1  -3  -4 496.339 173.830  10
   1   3   5 154.064 251.180   8
  -1   3  -5 390.307 207.645  12
  -1  -3  -5 469.192 329.344   5
  -1  -3  -5 709.777 311.582   4
   1   3   5 351.305 187.088  14
   1  -3   5 423.216 385.797  10
  -1  -3  -5 811.618 387.970  12
   1   3   5 439.450 214.438  10
   1  -3   5 522.824 366.665  11
  -1   3  -5 196.251 189.733   5
   1   3   6 12849.2 1288.93   8
   1  -3   6 14046.4 1537.88  11
   1  -3   6 12522.5 1489.34  10
  -1  -3  -6 9496.06 1202.46  12
  -1  -3  -6 10670.9 1177.07   5
  -1   3  -6 11114.6 1302.76  12
  -1   3  -6 11451.2 1271.76   5
  -1  -3  -7 1891.93 573.495   5
  -1  -3  -7 1678.48 594.498  12
   1  -3   7 1892.33 713.960  11
   1   3   7 1853.98 519.871  11
  -1   3  -7 2654.88 674.612  12
   1  -3   7 1239.47 491.832  10
  -1   3  -7 3074.90 750.797   5
   1   4  -8 20746.3 1779.47  12
  -1  -4   8 27243.9 2497.23  10
   1  -4  -8 23189.7 2002.52   5
  -1   4   8 20122.3 1625.98  14
   1   4  -8 21414.4 2087.34   5
  -1   4   8 21538.9 1822.10  11
  -1  -4   8 24391.8 2374.32  11
   1   4  -7 13779.7 1491.88   5
  -1   4   7 12078.5 1107.50  14
   1  -4  -7 12956.3 1411.19   5
   1   4  -7 13244.9 1321.11  12
  -1  -4   7 12291.6 1527.89  11
  -1  -4   7 13741.4 1670.75  10
  -1   4   7 12907.6 1202.89  11
   1  -4  -6 72.3187 317.028   5
  -1  -4   6-370.282 354.890  10
  -1   4   6 370.579 223.195  14
  -1  -4   6 362.203 404.904  11
   1   4  -6 74.3642 195.079  12
   1   4  -6 83.3528 325.222   5
   1  -4  -6 61.0731 270.769   4
  -1   4   6 71.6147 207.960  11
   1   4  -5 24429.1 1150.49   8
  -1  -4   5 24169.0 1792.94  11
   1   4  -5 32663.2 2149.15   5
   1   4  -5 38546.4 1828.64   1
  -1   4   5 24699.2 1197.18   2
   1  -4  -5 42883.0 2265.84   4
   1   4  -5 24732.0 1667.58  12
  -1  -4   5 24643.4 1974.81  10
   1  -4  -5 48916.9 2279.46   5
   1   4  -4 14525.0 1111.44   1
   1   4  -4 13923.5 923.555   4
   1   4  -4 12963.2 796.509   7
   1   4  -4 14277.2 866.086   8
   1   4  -4 15045.0 1162.99   5
  -1   4   4 13446.8 633.957   9
   1   4  -4 13692.1 1116.48  12
  -1  -4   4 15271.0 1296.68  10
  -1   4   4 15798.5 925.670   2
   1  -4  -4 12654.4 1019.24   5
  -1   4   3 18539.3 1313.64   8
   1  -4  -3 18395.3 817.081  13
   1   4  -3 17802.3 1190.89   1
   1   4  -3 16879.6 963.990   8
  -1   4   3 19414.1 1026.47   2
   1   4  -3 15962.9 662.578   7
   1   4  -3 18065.2 1107.34   5
   1  -4  -3 16333.5 997.861   5
  -1  -4   3 18505.1 1267.31  10
  -1  -4   3 15921.4 1047.02   4
  -1  -4   2 6098.56 789.107   9
   1   4  -2 5115.31 258.533   7
  -1   4   2 5930.47 697.107   8
   1  -4  -2 6904.72 525.017   6
   1   4  -2 5484.66 664.359   1
   1   4  -2 6255.07 605.777   8
   1  -4  -2 5747.81 503.355   5
  -1  -4   2 5187.08 603.535  10
   1   4  -2 6401.72 531.042   6
   1   4  -2 6098.51 666.192   3
  -1  -4   2 6026.04 670.970   4
  -1  -4   1 477528. 3231.89   7
  -1  -4   1 492120. 6045.23   9
  -1   4   1 500971. 3787.67   6
   1   4  -1 474908. 5383.16   8
   1   4  -1 434197. 4965.89   3
  -1   4   1 449787. 5166.40   8
  -1  -4   1 489709. 6046.71   4
   1   4  -1 474492. 5963.46   1
  -1   4   1 459494. 4032.91  13
   1   4  -1 476410. 4573.36  10
   1  -4  -1 474670. 5148.01   7
  -1  -4   1 480073. 3615.50   6
  -1  -4   1 459702. 4748.95  10
   1  -4  -1 481028. 3254.64   6
   1   4  -1 469472. 3291.30   6
  -1  -4   0 300823. 2540.59   6
   1   4   0 293472. 4582.85   1
  -1  -4   0 300618. 4468.80   9
   1  -4   0 281468. 3236.08   7
   1   4   0 310976. 3821.73  13
  -1   4   0 298258. 3731.79   8
  -1  -4   0 297911. 3543.61   7
  -1  -4   0 291971. 4784.74   4
   1  -4   0 307472. 3892.48   8
  -1   4   0 315284. 3897.32  11
   1  -4   0 306036. 2425.23   5
  -1   4   0 305890. 2571.82   6
   1   4   0 292898. 4381.50   8
   1   4   0 305550. 2679.92  10
   1  -4   0 296527. 3491.78  10
   1   4   0 304404. 2356.89   5
  -1  -4  -1 6499.06 658.430   9
   1  -4   1 6873.03 508.920   5
   1   4   1 7401.49 615.720   9
   1   4   1 6787.68 709.354   8
   1   4   1 6512.99 476.865   5
   1  -4   1 7005.45 638.679  10
  -1  -4  -1 7207.03 802.911   4
  -1   4  -1 6253.92 471.096   7
   1  -4   1 7645.64 483.765   7
  -1  -4  -1 6141.47 451.574   5
  -1   4  -1 7014.92 650.580   3
  -1   4  -1 7005.09 464.200   5
   1  -4   1 7684.02 546.975   8
   1   4   1 7262.47 725.403   1
   1   4   2 52473.7 1398.03   9
  -1  -4  -2 46660.8 1541.18   9
  -1  -4  -2 48940.2 2101.63   4
   1   4   2 48127.1 1991.83   8
  -1   4  -2 49421.3 1367.38   7
  -1  -4  -2 49009.4 1505.61   5
  -1   4  -2 50319.2 1498.57   5
   1  -4   2 50778.0 1955.21  11
   1   4   2 48576.6 1659.02   5
   1  -4   2 51703.7 2025.38  10
   1  -4   2 49790.2 1113.94   8
  -1   4  -3 69980.5 2095.84   5
   1   4   3 68083.2 1153.36   9
   1  -4   3 72193.5 1887.36   4
   1   4   3 68446.7 2540.75   8
  -1   4  -3 72109.9 2837.51  12
  -1  -4  -3 67841.6 2104.52   5
   1  -4   3 71209.9 2568.37  11
  -1  -4  -3 68867.3 2608.01   4
   1  -4   3 72064.1 2727.71  10
  -1   4  -3 65815.1 1831.75   7
  -1   4  -4 60426.8 2224.41   5
   1   4   4 58188.2 2470.61   8
   1  -4   4 54153.1 1310.39   4
  -1  -4  -4 59445.7 2490.90   4
  -1  -4  -4 61430.7 2576.31  12
  -1  -4  -4 59046.2 2246.92   5
  -1   4  -4 56313.5 2585.97  12
   1  -4   4 58746.1 2623.29  11
   1  -4   4 59099.9 2767.05  10
  -1  -4  -5 46841.5 2207.12   5
  -1  -4  -5 47638.2 2455.10  12
   1  -4   5 48812.0 2646.47  11
   1  -4   5 46482.7 2704.80  10
   1   4   5 49385.5 2462.16   8
  -1  -4  -5 43531.1 2208.36   4
  -1   4  -5 45839.0 2223.06   5
  -1   4  -5 48492.1 2568.00  12
  -1  -4  -6 3737.33 763.109  12
   1   4   6 5662.23 917.575   8
  -1   4  -6 4742.84 878.641  12
  -1   4  -6 5805.61 879.634   5
   1   4   6 5125.70 732.873  11
   1  -4   6 5493.25 1039.68  11
  -1  -4  -6 4444.45 770.733   5
   1  -4   6 6418.86 1111.09  10
  -1   4  -7 9179.76 1236.01   5
  -1   4  -7 7825.33 1239.14  12
   1   4   7 7777.86 1016.09  11
  -1  -4  -7 6943.03 1158.90  12
  -1  -4  -7 7952.47 1140.79   5
   1  -4   7 7433.90 1320.46  11
   1  -4   7 7654.91 1329.92  10
   1   5  -8 3372.83 759.226  12
   1  -5  -8 5191.68 977.990   5
  -1   5   8 4263.72 758.548  14
  -1   5   8 4939.36 870.984  11
   1   5  -8 5438.86 1027.48   5
  -1   5   7 1028.63 405.253  14
   1  -5  -7 612.044 350.967   5
   1   5  -7 612.163 378.200  12
  -1   5   7 679.044 316.337  11
   1   5  -7 1457.73 613.178   5
  -1  -5   7 440.290 309.680  10
   1  -5  -6 13319.6 1310.22   4
  -1   5   6 13693.2 1064.22  14
   1   5  -6 12137.0 1241.18   5
   1  -5  -6 12096.8 1187.20   5
  -1   5   6 14259.2 1088.66  11
  -1  -5   6 14227.1 1647.57  10
   1   5  -6 12644.4 1260.45  12
   1   5  -5 5086.49 911.373  12
   1   5  -5 2136.52 964.847   5
   1  -5  -5 7640.13 1146.10   4
   1  -5  -5 1850.95 754.276   5
  -1  -5   5 192.178 354.614  10
   1  -5  -4 6175.47 892.527   4
   1  -5  -4 5608.00 688.730   5
   1   5  -4 5826.94 598.561   8
   1   5  -4 6081.00 718.468   5
   1   5  -4 3917.07 783.559  12
  -1  -5   4 5140.22 872.925  10
   1   5  -4 5243.53 405.610   7
   1   5  -4 7041.92 860.122   1
  -1   5   4 6771.34 691.722   2
  -1   5   4 6056.08 866.587   8
  -1   5   3 45297.0 1722.48   2
   1   5  -3 42241.8 2092.57   3
   1   5  -3 44272.7 1689.61   5
  -1  -5   3 40004.5 1850.47   4
   1   5  -3 43680.0 1641.06   8
   1  -5  -3 40937.5 1541.97   5
  -1   5   3 44571.9 2145.40   8
  -1  -5   3 41508.6 2063.99  10
   1   5  -3 41560.9 1995.91   1
   1   5  -2 14566.6 1116.68   3
   1   5  -2 15891.1 843.509   5
  -1   5   2 14329.0 1124.45   8
  -1  -5   2 15987.3 1172.96   4
   1   5  -2 16315.4 1219.60   1
   1  -5  -2 15455.1 785.962   5
   1  -5  -2 13585.3 695.722   6
   1   5  -2 16034.7 1041.49   8
  -1  -5   2 15342.9 1089.67  10
   1   5  -2 14517.2 757.825   6
   1  -5  -1 107871. 2542.74   7
  -1   5   1 104898. 1619.12   6
  -1  -5   1 104542. 1538.49   7
   1   5  -1 104466. 2751.95   8
  -1  -5   1 107830. 3158.89   4
  -1   5   1 102048. 2190.83  13
  -1  -5   1 114010. 3275.90   9
  -1  -5   1 102076. 2400.47  10
   1   5  -1 106521. 3074.72   1
  -1  -5   1 108355. 1625.92   6
   1   5  -1 101807. 2175.11  10
  -1   5   1 98095.4 2627.40   8
   1  -5  -1 97497.9 1886.10  10
   1  -5   0 111.184 134.876  10
  -1   5   0 425.195 205.532   8
   1   5   0-77.3336 70.0191   5
  -1  -5   0 797.196 335.450   9
   1   5   0 335.314 238.739   1
  -1   5   0 15.7133 71.8046   6
  -1  -5   0 63.6520 65.8536   6
   1   5   0 32.6960 68.2011  10
  -1  -5   0 5.48887 105.944   7
  -1  -5   0-218.989 303.706   4
   1   5   0 252.436 266.600   8
   1  -5   0 190.567 163.393   7
   1   5   0 430.175 170.800  13
   1  -5   0 196.692 91.4355   5
  -1  -5   0 163.210 92.1064  10
  -1   5  -1 11798.8 935.196   3
   1  -5   1 11252.1 583.954   7
  -1   5  -1 10766.1 735.070   8
  -1  -5  -1 10645.5 1092.97   4
   1   5   1 10324.6 948.908   8
   1  -5   1 10804.2 640.863   5
  -1   5  -1 10827.9 573.946   5
  -1  -5  -1 9938.83 566.668   5
   1  -5   1 12340.0 927.664  10
   1   5   1 10823.7 614.718   5
   1  -5   1 11456.6 798.830   8
  -1  -5  -1 8366.76 932.855   9
  -1   5  -2 12323.8 654.864   7
   1  -5   2 13867.2 1055.16   4
  -1   5  -2 14655.4 796.540   5
  -1  -5  -2 13260.1 1246.10   4
   1   5   2 14868.9 1197.87   8
   1  -5   2 14081.9 759.086   8
   1  -5   2 13222.8 931.872   5
   1   5   2 13772.5 910.989   5
   1  -5   2 14722.2 1185.67  10
  -1  -5  -2 14607.1 836.277   5
  -1   5  -2 12888.9 1092.32   3
   1  -5   3 12153.9 1208.63  10
   1  -5   3 11216.5 1073.98  11
   1   5   3 10855.5 604.389   9
  -1   5  -3 10564.2 727.824   7
   1  -5   3 10953.0 885.903   4
  -1  -5  -3 11962.4 1342.35   4
   1   5   3 11308.6 1126.07   8
  -1   5  -3 12436.2 1607.44  12
  -1  -5  -3 11422.9 864.299   5
  -1   5  -3 11712.1 858.096   5
  -1   5  -4 6927.28 1034.16  12
   1   5   4 10036.9 1154.69   8
  -1  -5  -4 8852.44 1086.06   4
   1  -5   4 9734.54 1209.36  10
  -1   5  -4 9237.67 874.621   5
   1  -5   4 10133.3 1133.12  11
  -1  -5  -4 9066.21 896.150   5
   1   5   5 522.062 339.382   8
  -1  -5  -5 488.056 315.104   4
  -1   5  -5 1021.94 349.984   5
   1  -5   5 865.931 353.351  10
  -1   5  -5-56.9536 250.368  12
  -1  -5  -5 347.263 282.998   5
   1  -5   5 397.439 441.142  11
   1   5   6 1173.47 488.054   8
   1  -5   6 1205.70 525.710  10
  -1   5  -6 1032.21 485.587  12
   1  -5   6 750.295 472.828  11
  -1  -5  -6 602.669 334.772   5
  -1   5  -6 412.076 316.087   5
   1   5   7 676.690 391.097   8
  -1   5  -7 1110.63 491.993   5
  -1   5  -7 1107.83 447.301  12
  -1  -5  -7 583.244 364.957   5
   1   5   7 1845.15 580.429  11
   1   6  -8 15391.0 1670.47   5
  -1   6   7 2519.72 524.714  14
   1   6  -7 1182.88 406.793  12
   1   6  -7 2004.77 627.475   5
   1  -6  -7 1086.34 438.577   5
  -1   6   7 1867.29 487.509  11
  -1  -6   7 2632.65 830.004  10
   1   6  -6 566.341 428.355  12
   1  -6  -6 358.240 324.310   5
   1   6  -6 299.498 273.721   5
  -1  -6   6 393.879 304.780  10
   1  -6  -6 266.840 319.257   4
  -1   6   5 4531.35 610.775   2
   1  -6  -5 3781.79 684.440   5
   1   6  -5 3673.79 747.561  12
   1   6  -5 5368.75 1018.61   3
  -1  -6   5 3898.23 850.110  10
   1   6  -5 5392.19 787.707   5
   1  -6  -4 9085.94 836.476   5
  -1   6   4 10280.2 906.088   2
  -1  -6   4 9326.90 967.855   4
  -1   6   4 10336.9 1165.42   8
   1   6  -4 9310.25 779.286   8
   1   6  -4 9626.60 886.227   5
   1   6  -4 8636.26 1099.84  12
   1  -6  -4 10925.2 1207.08   4
  -1  -6   4 9373.36 1140.51  10
   1   6  -4 9267.16 1101.76   3
   1   6  -3 102498. 3377.58   3
   1  -6  -3 104849. 2364.83   5
   1  -6  -3 103520. 3548.48   4
   1   6  -3 108793. 2488.54   5
  -1  -6   3 100186. 3254.90   4
   1   6  -3 103330. 2736.97   8
   1   6  -3 110955. 3499.09   1
  -1  -6   3 104621. 3369.43  10
  -1   6   3 105388. 3498.20   8
   1   6  -2 6877.79 829.670   3
   1  -6  -2 6922.76 459.812   6
   1   6  -2 6960.00 488.237   5
  -1   6   2 6232.27 757.450   8
   1   6  -2 6315.68 725.098   8
  -1  -6   2 6911.39 873.617   4
   1  -6  -2 6599.65 940.093   4
   1   6  -2 7847.85 954.448   1
  -1  -6   2 6299.06 751.001  10
   1  -6  -2 6369.18 456.900   5
   1  -6  -2 7072.01 501.755  10
   1   6  -2 6472.24 470.078   6
   1   6  -1-80.2929 184.480  13
   1   6  -1 316.534 272.825   8
   1  -6  -1-71.9605 233.123   4
   1   6  -1 1563.68 499.603   1
  -1  -6   1 1167.49 690.624   4
   1   6  -1-34.3291 47.2986   5
   1   6  -1 72.3568 48.6226   5
   1  -6  -1-97.1893 177.656   7
  -1   6   1 89.0589 162.533  13
  -1  -6   1 2504.98 296.031   7
  -1  -6   1 805.982 417.686  10
  -1   6   1 29.4110 193.892   8
   1  -6  -1-64.3273 113.484  10
  -1   6   0 76380.5 2335.01   8
  -1  -6   0 75310.2 3006.21   4
   1  -6   0 80065.5 2902.19   4
   1   6   0 76905.2 2663.94   8
   1  -6   0 69819.6 1796.41   7
  -1  -6   0 80265.4 1796.50  10
  -1  -6   0 77929.3 2029.00   7
   1   6   0 81149.5 2333.60  13
   1  -6   0 78143.9 2224.67  10
   1   6   0 76161.7 1412.11  10
   1  -6   1 52912.4 1233.82   7
  -1   6  -1 58942.7 2206.19   3
   1  -6   1 56937.9 2384.08   4
   1  -6   1 48889.7 1291.27   5
   1   6   1 51622.0 1290.35   5
  -1   6  -1 50284.2 1788.65   8
  -1  -6  -1 47599.6 2472.84   4
   1   6   1 53843.2 2338.67   8
  -1   6  -1 53899.8 1173.63   6
   1  -6   1 54502.3 2151.26  10
  -1  -6  -1 51936.9 1168.09   6
  -1   6  -2 16926.1 1298.61   3
  -1  -6  -2 16402.0 864.683   5
   1  -6   2 17399.0 1321.10   4
   1  -6   2 18627.9 1414.52  10
   1   6   2 16668.5 1365.46   8
   1  -6   2 15980.2 954.684   8
  -1   6  -2 17038.5 825.332   5
  -1  -6  -2 15899.7 1494.15   4
  -1  -6  -3 1176.32 1711.74   4
  -1   6  -3 302.033 243.600   5
   1   6   3-10.2982 242.006   8
   1  -6   3 789.239 705.388  10
   1  -6   3-35.9540 249.285   4
  -1  -6  -3 310.866 252.174   5
   1  -6   4 32084.7 2267.74  10
  -1  -6  -4 31789.7 1626.03   5
  -1  -6  -4 26587.5 2041.30   4
  -1   6  -4 33028.1 2277.76  12
  -1   6  -4 31699.6 1596.83   5
   1   6   4 29017.8 2014.90   8
   1   6   5 107926. 4119.93   8
  -1   6  -5 100586. 4086.51  12
  -1  -6  -5 88982.2 3757.43   4
   1  -6   5 103943. 4428.48  10
  -1   6  -5 101864. 3244.45   5
   1  -6   5 99966.5 4113.79  11
  -1  -6  -5 95703.8 3151.11   5
   1   6   6 2163.44 725.466   8
  -1   6  -6 1418.57 571.994  12
   1  -6   6 2166.79 729.897  11
  -1   6  -6 1726.33 541.611   5
  -1  -6  -6 1657.60 531.192   5
   1  -6   6 2009.61 762.682  10
   1   6   7 2188.02 704.183   8
  -1   6  -7 2067.80 622.484   5
  -1  -6  -7 1739.23 533.749   5
  -1   7   7 1032.00 411.429  14
   1   7  -7 76.5529 307.659  12
   1  -7  -6-338.606 405.142   4
   1   7  -6 278.364 345.765   3
   1   7  -6 209.067 306.020  12
  -1  -7   6 698.884 484.713  10
  -1  -7   5 1290.06 597.073  10
  -1   7   5 1103.37 396.492   2
   1   7  -5 2173.76 725.831  12
   1   7  -4 14579.0 1392.32  12
  -1   7   4 14647.4 1517.17   8
   1   7  -4 15369.7 1441.86   3
  -1   7   4 16476.6 1221.38   2
   1  -7  -4 14367.4 1492.17   4
  -1  -7   4 13843.4 1467.58  10
  -1  -7   4 14210.3 1303.96   4
  -1  -7   3 17114.4 1464.45   4
  -1   7   3 16681.3 1493.60   8
   1   7  -3 17243.8 1218.64   8
   1  -7  -3 17378.6 1597.64   4
  -1  -7   3 15800.1 1380.59  10
   1   7  -3 17310.1 1498.29   3
   1  -7  -2 58525.5 2875.42   4
   1   7  -2 64185.4 2636.09   3
  -1   7   2 61253.6 2633.93   8
   1   7  -2 62398.5 2393.72   8
  -1  -7   2 56109.3 2702.32   4
   1  -7  -2 64644.7 1689.29  10
  -1  -7   2 58851.5 2376.71  10
   1  -7  -1 44010.8 2447.70   4
  -1   7   1 38706.9 1985.33   8
   1   7  -1 42761.0 2053.41   8
  -1  -7   1 45101.2 2497.38   4
   1  -7  -1 39573.2 1713.11   7
  -1   7   1 38450.7 1607.19  13
   1   7  -1 35839.8 1910.79  13
  -1  -7   1 38795.6 1681.04  10
   1  -7  -1 43037.3 1589.39  10
   1  -7   0 42243.3 1421.13   7
   1  -7   0 48563.7 2497.88   4
  -1   7   0 46829.1 2024.40   8
   1   7   0 45228.7 2210.82   8
  -1  -7   0 42229.9 2453.26   4
  -1  -7   0 47034.4 1466.94  10
   1   7   0 46397.3 1950.87  13
   1  -7   0 47711.6 1907.52  10
  -1  -7  -1 2143.35 540.187   4
  -1   7  -1 1961.33 425.131   8
   1   7   1 2491.81 585.293   8
   1  -7   1 2675.15 635.451   4
   1  -7   1 2673.46 511.834  10
  -1   7  -2 50054.3 2384.94   3
   1  -7   2 52677.0 2527.98   4
   1   7   2 48748.7 2484.80   8
  -1  -7  -2 45968.0 2646.21   4
   1  -7   2 48150.5 2426.74  10
   1  -7   3 3076.49 685.091  10
   1   7   3 3472.98 718.205   8
  -1   7  -3 4151.32 901.092   3
  -1  -7  -3 5213.26 1070.16   4
   1  -7   3 3281.14 620.815   4
  -1  -7  -4 41858.9 2670.69   4
  -1   7  -4 42512.8 2749.48  12
   1   7   4 48536.8 2737.52   8
   1  -7   4 48437.5 2949.76  10
  -1   7  -4 43752.2 2523.82   3
   1  -7   5 571.318 448.858  10
  -1  -7  -5-112.253 338.355   4
  -1   7  -5-115.940 341.924   3
  -1   7  -5 486.684 421.143  12
   1   7   5 237.383 338.857   8
   1   7   6 17333.8 1863.57   8
   1  -8  -6-258.586 361.220   4
   1   8  -6 216.734 317.433  12
  -1  -8   6-735.110 512.927  10
   1   8  -5 2558.73 685.070   3
   1  -8  -5 3441.00 814.156   4
   1   8  -5 1526.73 581.429  12
  -1   8   5 653.214 353.934   2
  -1  -8   5 493.516 430.162  10
  -1   8   4 5360.09 778.729   2
  -1   8   4 6271.45 1066.92   8
   1   8  -4 5593.87 961.622   3
   1  -8  -4 5168.36 986.182   4
  -1  -8   4 4651.46 825.424   4
  -1  -8   4 5022.49 897.912  10
   1   8  -3 49607.1 2579.86   3
   1  -8  -3 41295.9 2654.75   4
  -1  -8   3 44422.8 2625.76   4
  -1   8   3 46067.1 2624.72   8
   1   8  -3 44912.6 2065.67   8
  -1  -8   3 44963.7 2422.98  10
   1  -8  -2 356.966 456.895   4
   1   8  -2-110.320 237.141   8
  -1  -8   2-107.968 362.697   4
  -1   8   2-139.851 256.122   8
   1  -8  -2-47.9225 181.431   7
  -1  -8   2 591.148 300.874  10
   1   8  -1-376.846 317.630   8
   1  -8  -1-165.533 378.882   4
   1  -8  -1 225.068 180.466   7
  -1   8   1-213.480 272.032   8
  -1   8   1 574.551 284.879  13
   1   8  -1-133.149 208.837  13
  -1  -8   1 531.052 481.370   4
  -1  -8   1-272.699 243.817  10
   1  -8  -1 93.2718 200.394  10
  -1  -8   0 30920.4 2345.06   4
   1  -8   0 32163.3 2205.91   4
  -1   8   0 36663.3 1950.18   8
   1   8   0 36878.6 1828.32  13
   1   8   0 33126.3 2021.70   8
  -1   8   0 34880.5 1868.65  13
   1  -8   0 35271.0 1776.01  10
   1  -8   1 20562.4 1783.10   4
  -1   8  -1 20904.7 1410.59   8
   1   8   1 18651.6 1601.47   8
  -1  -8  -1 19072.4 1828.60   4
   1  -8   1 20450.2 1526.36  10
   1  -8   2 7516.19 1026.06  10
  -1   8  -2 8192.04 1041.68   3
   1   8   2 6901.04 1016.43   8
   1  -8   2 8777.24 1126.14   4
  -1  -8  -2 6808.32 1153.91   4
  -1   8  -3 6112.09 1198.13   3
  -1  -8  -3 5673.04 1568.99   4
   1  -8   3 1858.88 760.395  10
   1  -8   3 976.021 566.793   4
   1   8   3 683.883 472.398   8
  -1   8  -4 14611.7 1506.40   3
   1   8   4 14661.0 1597.38   8
  -1  -8  -4 13424.7 1621.37   4
  -1   8  -4 13311.3 1604.31  12
   1  -8   4 13930.6 1672.78  10
   1   8   5 52151.0 3163.38   8
  -1  -8  -5 43454.8 3091.75   4
  -1   8  -5 45793.4 3092.00  12
   1  -8   5 51603.4 3434.43  10
  -1   8  -5 45198.3 2848.54   3
   1   9  -5 984.007 890.332  12
  -1   9   5 301.278 275.296   2
  -1  -9   5 1220.31 665.817  10
  -1  -9   4 344.863 300.250  10
  -1   9   4 519.422 401.125   8
   1   9  -4 1162.32 573.607   3
   1  -9  -4 460.373 270.217   4
  -1   9   4 474.031 273.750   2
   1   9  -3 6561.33 1014.19   3
  -1   9   3 5748.85 996.500   8
  -1  -9   3 5020.71 984.467   4
   1  -9  -3 4849.87 1014.68   4
  -1  -9   3 4924.83 853.553  10
   1   9  -2 130.464 237.567   8
  -1   9   2 297.071 306.407   8
   1  -9  -2 199.888 276.439   4
   1   9  -2-72.5809 196.310  13
  -1  -9   2 137.140 270.293   4
   1  -9  -1 27360.9 2280.88   4
  -1   9   1 25485.5 1905.71   8
   1   9  -1 25608.0 1797.83  13
  -1  -9   1 28563.4 2325.77   4
   1   9  -1 25508.8 1822.70   8
  -1   9   1 25273.4 1478.52  13
   1   9   0 553.490 342.905  13
   1   9   0 540.419 393.454   8
  -1   9   0 54.5748 181.442   8
  -1  -9   0 792.279 489.197   4
  -1   9   0 245.468 230.398  13
   1  -9   0 739.056 459.542   4
   1  -9   1 423.788 309.903  10
   1   9   1 604.294 317.231   8
  -1   9  -1 996.894 382.975   8
   1  -9   1 448.774 360.555   4
  -1  -9  -1 401.505 485.858   4
  -1  -9  -2 656.074 475.031   4
   1   9   2-62.6007 312.219   8
   1  -9   2 283.480 301.111   4
   1  -9   2-80.3382 317.548  10
  -1  -9  -3 663.766 660.200   4
  -1   9  -3 685.296 450.540   3
   1   9   3 1219.21 543.888   8
   1  -9   3 767.103 518.706  10
  -1   9  -4 1216.13 547.881  12
   1  -9   4 2902.53 848.337  10
  -1   9  -4 2716.56 683.636   3
  -1  -9  -4 2434.60 756.785   4
  -1  10   4 2208.69 553.462   2
  -1  10   3-509.782 369.200   8
  -1  10   3-80.9354 219.276   2
   1 -10  -3 372.883 426.994   4
   1 -10  -2 26.1316 365.433   4
  -1  10   2 49.6456 295.520   8
   1  10  -2-538.997 440.436  13
  -1 -10   2 823.850 523.410   4
   1 -10  -1 43354.5 3044.44   4
  -1  10   1 39364.7 2513.11   8
   1  10  -1 37669.5 2329.77   8
  -1 -10   1 41106.6 2992.68   4
  -1  10   1 35538.0 1834.38  13
   1  10  -1 35504.0 2188.24  13
   1 -10   0 13675.7 1721.58   4
  -1  10   0 14505.4 1462.58   8
   1  10   0 15755.5 1580.23   8
  -1 -10   0 13433.4 1786.84   4
  -1  10   0 16284.0 1436.04  13
   1  10   0 15990.8 1320.42  13
  -1  10  -1 3041.80 669.430  13
   1  10   1 3181.91 793.649   8
  -1 -10  -1 3374.58 915.029   4
   1 -10   1 2687.83 766.560   4
   1  10   2 3309.51 812.766   8
  -1 -10  -2 2708.09 793.186   4
   1 -10   2 3887.97 999.857   4
   1 -10   3 10817.8 1482.82  10
  -1 -11   3 2242.53 819.829   4
  -1 -11   2 2350.55 904.557   4
  -1  11   1 13697.6 1603.87   8
   1  11  -1 13499.4 1497.81   8
  -1  11   0 4018.04 743.753  13
   1  11   0 2221.26 640.365   8
   1 -11   1 571.022 561.327   4
  -1  11  -1-182.983 328.354  13
   1 -11   2 1975.33 839.304   4
  -2   0   9 375.292 265.090  14
  -2   0   9 796.214 541.336  11
   2   0  -8 10215.8 1403.26   5
  -2   0   8 12293.3 1425.64  14
   2   0  -8 10370.1 1088.21  12
  -2   0   8 12850.1 1494.17  11
  -2   0   7 10207.0 1163.36  14
   2   0  -7 9168.80 1276.40   5
  -2   0   7 9821.54 1202.05  11
   2   0  -7 9163.97 923.037  12
  -2   0   6 3688.08 583.055   9
  -2   0   6 4451.76 805.391  14
  -2   0   6 5098.97 802.679  11
  -2   0   5 58390.9 1930.52   9
  -2   0   5 54603.3 2199.94  14
   2   0  -5 57483.0 2632.75   5
   2   0  -5 54579.3 1709.11  12
  -2   0   5 59706.8 2224.21  11
  -2   0   4-27.7906 95.2642  12
   2   0  -4-60.7526 90.9934  12
  -2   0   4-67.2702 121.603   9
  -2   0   4 8.98496 246.569   6
  -2   0   4-61.5255 153.675  14
  -2   0   4 69.5430 127.539  11
  -2   0   3 89358.5 2011.45   9
   2   0  -3 82677.9 2450.44   7
   2   0  -3 89102.7 1731.26  11
   2   0  -3 84610.4 1392.66  12
  -2   0   3 90070.6 1476.73  12
  -2   0   3 85736.7 1936.46  11
  -2   0   3 85704.6 2161.35  14
  -2   0   3 85309.5 2564.27   6
   2   0  -3 89198.7 1657.72   9
  -2   0   2 14996.9 1116.35   6
  -2   0   2 18886.0 829.393   9
   2   0  -2 16725.8 701.398   9
  -2   0   2 17643.1 863.066  14
   2   0  -2 17262.4 731.151  14
   2   0  -2 20404.4 1144.49   7
  -2   0   2 17460.5 1104.53   7
   2   0  -2 16729.8 724.601  11
  -2   0   1 10204.0 729.456   6
  -2   0   1 10474.6 580.890   9
  -2   0   1 10728.9 782.035   7
   2   0  -1 12538.8 527.811  14
  -2   0   1 11623.9 442.786  13
  -2   0   1 11123.1 387.545  12
   2   0  -1 9661.81 744.170   7
  -2   0   1 10113.3 546.343  14
   2   0  -1 11618.4 706.861   6
  -2   0   0 377111. 3316.62  12
  -2   0   0 377671. 4616.84   7
   2   0   0 373065. 4563.85   7
   2   0   0 380739. 2140.50  14
   2   0   0 380425. 3677.37  12
  -2   0   0 378512. 4086.39   6
  -2   0   0 371306. 2707.21  14
   2   0   1 287036. 3686.61   8
  -2   0  -1 285137. 3637.58  12
   2   0   1 289674. 4412.42   7
   2   0   1 292325. 3898.86  12
  -2   0  -1 286663. 3771.89   5
   2   0   2 539072. 5221.12   4
  -2   0  -2 533754. 5822.01  12
   2   0   2 538273. 5081.69   8
   2   0   2 543968. 6720.25   7
  -2   0  -2 535516. 5834.58   5
   2   0   2 554100. 3618.36   2
   2   0   2 537416. 5147.03  10
  -2   0  -3 7332.00 794.927  12
   2   0   3 8377.41 663.794   8
   2   0   3 7874.83 624.337   4
   2   0   3 8837.08 734.500  11
   2   0   3 5828.56 314.072   2
  -2   0  -3 8106.08 801.269   5
   2   0   3 7831.09 783.002  10
   2   0   4 2606.97 472.324  11
  -2   0  -4 2169.61 476.684   5
  -2   0  -4 2171.40 487.495  12
   2   0   4 2174.58 362.789   8
   2   0   4 2338.48 501.387  10
  -2   0  -5 18698.5 1471.44   5
  -2   0  -5 17079.3 1443.86  12
   2   0   5 17352.9 1352.15  11
   2   0   5 18668.7 1491.15  10
   2   0   6 23512.1 1840.56  10
  -2   0  -6 21220.8 1753.34  12
   2   0   6 20416.3 1707.39  11
  -2   0  -6 22503.5 1780.93   5
  -2   0  -7 10170.4 1319.21  12
  -2   0  -7 12740.4 1462.44   5
   2   0   7 10187.1 1323.86  11
   2   0   7 11933.8 1443.93  10
  -2   1   9 6331.57 1125.61  14
  -2  -1   9 7456.36 1277.03  14
  -2  -1   9 8311.97 1360.57  11
  -2   1   9 9301.94 1406.02  11
  -2   1   8 657.089 346.299  14
  -2   1   8 666.861 405.550  11
   2   1  -8 1146.69 386.740  12
   2  -1  -8 475.870 288.345  12
  -2  -1   8 597.664 362.274  14
  -2  -1   8 1219.05 532.249  11
   2  -1  -8 408.912 335.619   5
   2   1  -8 1257.25 568.361   5
  -2  -1   7 5910.02 936.121  14
  -2   1   7 6793.05 951.470  14
   2   1  -7 7507.78 1152.68   5
   2   1  -7 6541.55 793.023  12
   2  -1  -7 6026.89 795.019  12
  -2   1   7 7835.53 1017.09  11
   2  -1  -7 5882.89 1019.53   5
  -2  -1   7 7195.37 1045.89  11
  -2  -1   6 23276.5 1520.89   9
  -2  -1   6 23663.8 1707.32  11
  -2   1   6 24890.6 1173.04   9
   2  -1  -6 23586.4 1885.29   5
  -2  -1   6 22985.7 1653.24  14
  -2   1   6 25961.0 1624.65  11
   2   1  -6 23597.3 1880.41   5
  -2   1   6 23178.7 1531.61  14
   2   1  -6 23539.9 1307.75  12
   2  -1  -6 25330.8 1423.01  12
  -2  -1   5 32482.3 1581.56   9
  -2   1   5 31403.4 1266.98   9
  -2  -1   5 30378.4 1731.90  14
   2   1  -5 30470.5 1927.77   5
   2  -1  -5 29208.1 1886.40   5
  -2   1   5 30533.7 1528.85  11
  -2   1   5 28970.1 1516.54  14
   2  -1  -5 30449.7 1378.17  12
   2   1  -5 34514.8 1352.48  12
  -2  -1   5 28335.6 1652.63  11
  -2  -1   4 17500.8 1135.70   9
  -2   1   4 12574.2 750.477   9
  -2  -1   4 17924.1 1389.73   6
  -2   1   4 12668.4 1110.51   6
  -2   1   4 11885.6 854.314  14
  -2   1   4 12009.1 757.781  12
   2  -1  -4 12117.1 784.185  12
   2   1  -4 13004.7 676.532  12
  -2  -1   4 12162.4 783.056  12
   2   1  -4 12058.5 1018.84   7
  -2  -1   4 13543.0 1043.02  11
  -2   1   4 13025.5 825.701  11
  -2  -1   4 17344.1 1266.27  14
  -2  -1   3 4317.11 526.565   9
  -2  -1   3 4932.67 639.914   6
  -2   1   3 4808.72 419.510   9
  -2   1   3 4388.21 573.894   6
   2  -1  -3 4484.03 627.886   7
  -2   1   3 4804.23 469.595  14
  -2   1   3 4687.74 388.971  12
   2   1  -3 5031.29 304.975  12
   2   1  -3 4167.13 545.982   7
  -2   1   3 4654.75 395.689  11
  -2  -1   3 4760.76 550.634  14
   2  -1  -3 5246.11 318.436  11
  -2  -1   2 214.559 193.104   9
   2   1  -2 104.609 86.7080   9
  -2   1   2 644.701 178.550   9
  -2   1   2 295.524 216.320   6
  -2  -1   2 41.4317 173.484   6
  -2   1   2 1052.35 215.218  14
   2  -1  -2 392.417 234.612   7
   2  -1  -2 220.559 52.9099  11
   2   1  -2 76.6863 181.282   7
  -2  -1   2 565.845 227.385  14
  -2  -1   2-8.28860 109.208   7
  -2  -1   1 39401.2 1374.14   6
  -2  -1   1 38814.4 1262.79   9
   2   1  -1 38529.7 1294.40   6
   2  -1  -1 42050.7 1333.51   6
  -2   1   1 39396.0 1362.62   6
   2   1  -1 39782.3 1112.01   9
  -2  -1   1 38415.4 1106.86  13
  -2   1   1 41009.6 948.371  14
   2   1  -1 39764.0 1172.72  14
   2  -1  -1 37861.9 1462.14   7
  -2   1   1 38696.2 1509.95   7
   2   1  -1 40980.8 904.869  13
   2  -1  -1 40339.4 1161.97   2
   2   1  -1 38933.9 686.930  12
   2   1  -1 34450.5 1391.06   7
  -2  -1   1 38126.4 1419.16   7
  -2  -1   1 39768.8 1261.75  14
   2   1   0 137341. 1936.23  14
  -2   1   0 133200. 2770.03   7
   2  -1   0 131640. 2341.13   5
  -2   1   0 140104. 1399.60  14
   2   1   0 130158. 2748.22   8
  -2   1   0 137452. 2374.86  12
   2   1   0 131623. 2737.92   7
   2   1   0 138664. 2023.42  12
   2  -1   0 144565. 2104.08   2
   2  -1   0 133613. 2703.76   7
  -2  -1   0 130144. 2725.64   7
  -2  -1   0 132093. 2139.83   9
   2   1   0 132777. 2330.19   5
  -2  -1   0 133653. 1892.46  12
  -2   1   0 132522. 2426.83   6
  -2  -1   0 135732. 2455.90   6
   2  -1   1 7256.95 455.155   2
  -2  -1  -1 7186.65 476.720   9
  -2   1  -1 7043.52 628.026  12
   2   1   1 7224.31 675.544   8
   2   1   1 6692.11 724.255   7
   2  -1   1 7754.58 473.066  11
   2  -1   1 7004.51 674.123   7
   2   1   1 7323.43 683.951  12
  -2   1  -1 5738.43 557.311   5
  -2  -1  -1 6395.87 587.099   5
   2   1   1 7368.19 679.511   4
  -2  -1  -1 7003.97 561.268  12
   2   1   1 7055.11 375.083  14
  -2  -1  -2 179583. 3331.20  12
   2  -1   2 173843. 3167.24  10
  -2  -1  -2 179059. 2310.21   9
   2  -1   2 171590. 3706.37   7
   2   1   2 169228. 2667.35  10
   2   1   2 168430. 3149.07   8
   2  -1   2 170416. 2508.91   8
   2   1   2 162344. 3067.66   4
   2  -1   2 159119. 2061.29   2
  -2   1  -2 178210. 3566.46  12
  -2   1  -2 165656. 3234.16   5
  -2  -1  -2 168281. 3287.75   5
   2  -1   2 166291. 2699.64  11
  -2  -1  -3 14267.7 660.897   9
   2   1   3 12030.2 862.913   4
   2  -1   3 13218.6 670.974   8
   2   1   3 12849.5 914.182   8
   2   1   3 11466.6 417.122  14
   2  -1   3 11489.9 695.825   4
  -2  -1  -3 13445.2 1018.98  12
  -2   1  -3 14484.9 1165.42  12
  -2   1  -3 12962.5 1040.02   5
  -2  -1  -3 11820.2 993.201   5
   2   1   3 12604.7 900.665  10
   2  -1   3 12326.7 1016.71  10
   2  -1   3 11840.9 881.595  11
   2  -1   4 42587.8 1221.16   8
   2   1   4 42515.9 1735.09   8
   2  -1   4 42073.0 1902.11  11
   2   1   4 41649.9 1048.49  14
  -2  -1  -4 42642.2 1168.57   9
  -2  -1  -4 40990.4 2000.28  12
  -2   1  -4 43729.7 2140.16  12
  -2   1  -4 39585.8 1976.84   5
  -2  -1  -4 39388.3 1973.93   5
   2   1   4 39703.9 1658.18  11
   2   1   4 41504.1 1879.37  10
   2  -1   4 42172.8 2099.59  10
  -2   1  -5 4314.92 792.188  12
   2   1   5 6582.66 776.359   8
  -2  -1  -5 2726.06 643.769  12
   2  -1   5 5285.73 836.417  11
   2   1   5 4813.31 654.241  11
   2   1   5 6253.56 894.673  10
   2  -1   5 6411.61 977.369  10
  -2   1  -5 3770.27 777.548   5
  -2  -1  -5 4059.12 823.681   5
  -2  -1  -6 5000.71 838.977  12
   2   1   6 4261.75 736.603  11
  -2   1  -6 5823.65 948.154  12
   2  -1   6 3501.95 717.853  11
  -2   1  -6 5685.78 922.495   5
  -2  -1  -6 5025.46 934.085   5
   2   1   6 5032.95 835.299  10
   2  -1   6 5196.93 911.987  10
   2  -1   7 20881.4 2009.97  11
  -2  -1  -7 21573.4 1918.16   5
  -2  -1  -7 19606.2 1848.57  12
  -2   1  -7 21158.0 1900.57   5
   2   1   7 17230.8 1677.50  11
  -2   1  -7 21332.4 1938.81  12
   2  -1   7 22769.8 2052.13  10
  -2   2   9 1408.56 512.155  14
  -2  -2   9 1164.31 548.347  14
  -2   2   9 1299.22 572.474  11
   2  -2  -8 620.268 401.948   5
  -2  -2   8 683.932 438.810  11
   2  -2  -8-60.5009 238.616  12
  -2  -2   8-55.6761 293.274  14
  -2   2   8 443.503 260.494  11
  -2   2   8 528.777 301.661  14
   2   2  -8 176.976 320.042   5
   2  -2  -7 17130.9 1677.49   5
  -2   2   7 18716.9 1520.93  11
  -2   2   7 18166.6 1518.77  14
   2   2  -7 19224.8 1814.41   5
   2  -2  -7 17988.5 1467.41  12
   2   2  -7 18361.2 1302.19  12
  -2  -2   7 18058.6 1669.23  14
  -2  -2   7 18634.8 1725.61  11
  -2  -2   6 17858.6 1498.95   9
   2   2  -6 25770.6 2182.16   5
   2   2  -6 21850.4 1316.71  12
  -2   2   6 15692.1 1228.98  14
   2  -2  -6 26316.2 2183.17   5
  -2  -2   6 17403.7 1514.86  14
  -2  -2   6 17327.8 1516.65  11
   2  -2  -6 28012.2 1666.26  12
  -2   2   6 18659.1 1322.90  11
  -2  -2   5 11797.5 1055.52   9
  -2   2   5 12952.9 728.705   9
   2   2  -5 10925.7 1136.76   5
   2  -2  -5 11742.4 1213.80   5
  -2   2   5 10974.8 917.391  14
   2   2  -5 12231.1 868.366  12
  -2  -2   5 11427.8 1093.68  11
   2   2  -5 10514.3 1020.18   7
  -2   2   5 11945.8 909.229  11
  -2  -2   5 12884.5 1205.18  14
  -2  -2   4 70760.4 2380.14   9
  -2   2   4 67256.4 1545.53   9
  -2   2   4 64918.4 2617.08   6
  -2  -2   4 63828.5 2551.45   6
  -2  -2   4 66005.3 2531.32  14
  -2   2   4 63582.9 1877.25  14
   2   2  -4 67030.9 1690.43  12
   2   2  -4 60395.5 2128.83   7
  -2   2   4 67559.2 1730.13  11
  -2  -2   3 35177.1 1575.62   9
  -2  -2   3 33623.8 1625.13   6
  -2   2   3 35007.2 1008.29   9
  -2   2   3 36287.6 1227.43  14
   2   2  -3 34076.2 1022.72  12
  -2   2   3 35847.1 1685.11   6
  -2   2   3 34206.5 925.346  11
   2  -2  -3 33554.3 1729.63   7
  -2   2   3 33033.7 1267.55   2
   2   2  -3 32162.6 1417.63   7
  -2  -2   3 31895.4 1587.77  14
  -2   2   3 36033.1 1234.84  12
  -2   2   2 205523. 3710.82   6
  -2  -2   2 191973. 3622.78   6
  -2  -2   2 185485. 3462.34   9
  -2  -2   2 183779. 3648.98  14
   2   2  -2 216319. 3359.52   7
  -2  -2   2 199916. 3235.16   7
   2  -2  -2 207716. 3892.53   7
   2   2  -2 188746. 2939.75   3
  -2   2   2 195466. 2904.34   2
   2  -2  -1 2710.63 232.519   3
   2   2  -1 3045.41 330.199  13
   2   2  -1 2573.37 410.096  14
  -2  -2   1 2521.79 357.256   9
  -2  -2   1 2765.73 381.503   6
   2   2  -1 2890.53 262.298  12
  -2   2   1 3562.26 395.086   2
  -2   2   1 3556.86 430.070   6
  -2   2   1 3223.30 471.744   7
   2   2  -1 2851.11 464.707   8
   2   2  -1 2431.19 362.960   7
  -2  -2   1 2427.78 386.992   7
   2  -2  -1 3017.44 449.699   7
  -2  -2   1 2689.17 328.095   3
   2  -2  -1 3208.02 371.927   6
   2   2  -1 2626.01 354.866   6
   2   2   0 6501.09 574.519  14
  -2  -2   0 6674.99 582.171   9
   2   2   0 7069.45 519.166   9
   2  -2   0 7822.32 665.735   7
  -2   2   0 7705.40 605.668   6
  -2  -2   0 6797.31 584.538   6
   2   2   0 7339.38 713.177   8
   2  -2   0 7839.18 416.686  11
  -2   2   0 8093.92 562.693   2
   2   2   0 8059.08 689.687   7
  -2  -2   0 7616.11 691.279   7
   2   2   0 7770.52 502.457  12
  -2   2   0 7886.10 682.097   7
  -2  -2   0 8098.65 548.406  12
   2   2   0 4851.30 566.034   5
   2  -2   0 7771.62 561.002   5
  -2   2   0 7840.14 450.998   3
  -2  -2  -1 87686.9 1905.19   9
   2   2   1 90347.1 2579.52   7
   2   2   1 89274.9 2463.33   8
  -2   2  -1 90460.8 2495.97  12
  -2  -2  -1 83045.5 2128.33   5
   2  -2   1 89365.2 1824.91  11
  -2  -2  -1 87871.7 2048.10  12
   2  -2   1 86860.5 2358.45   7
  -2   2  -1 89785.5 1761.43   2
  -2   2  -1 83463.7 2102.24   5
   2  -2   1 88880.8 2053.10  10
   2  -2   2 104492. 2402.00  11
  -2  -2  -2 108342. 2069.36   9
  -2   2  -2 110655. 1674.11  14
  -2   2  -2 106969. 1854.70   2
   2  -2   2 109276. 2879.33   7
   2   2   2 103226. 2724.36   8
  -2   2  -2 105285. 2573.01   5
   2  -2   2 107030. 1733.20   8
  -2  -2  -2 103588. 2582.95   5
   2   2   2 104455. 1915.04  10
   2  -2   2 104214. 2664.64  10
   2  -2   3 568.052 298.075  10
  -2  -2  -3-250.782 177.679   9
   2   2   3 75.1946 152.237   1
  -2   2  -3 583.176 258.122  12
  -2   2  -3 76.0789 62.7401  14
   2  -2   3 50.6675 55.7491   8
  -2  -2  -3-237.811 182.824  12
   2   2   3-67.2492 176.201   8
  -2   2  -3 224.734 257.722   5
   2  -2   3-123.435 196.756  11
  -2  -2  -3 8.62962 191.994   5
   2   2   3 68.8738 172.649  10
  -2  -2  -4 21341.9 872.620   9
   2  -2   4 21442.3 1467.40  11
   2   2   4 21218.4 758.608  14
   2   2   4 21618.2 1380.05   8
  -2  -2  -4 20423.7 1429.11  12
  -2   2  -4 20111.2 1513.08  12
  -2  -2  -4 21200.9 1453.19   5
  -2   2  -4 20947.2 1449.41   5
   2   2   4 20810.4 1246.78  10
   2  -2   4 21634.5 1599.26  10
  -2  -2  -5 12374.8 1239.81  12
   2  -2   5 12265.0 1305.28  10
   2   2   5 14723.0 1185.45   8
  -2   2  -5 13583.3 1336.80  12
  -2   2  -5 12241.9 1219.23   5
  -2  -2  -5 12728.4 1256.10   5
   2  -2   5 14775.9 1385.36  11
   2   2   5 11631.3 1040.62  11
   2   2   5 12619.7 1087.76  10
   2  -2   6 123.806 274.212  10
   2  -2   6 370.104 425.566  11
  -2  -2  -6-249.686 283.673  12
  -2   2  -6 126.055 315.873  12
   2   2   6 183.256 249.944  11
  -2   2  -6 135.026 359.162   5
  -2  -2  -6 304.307 403.254   5
  -2  -2  -7 11160.0 1379.15   5
   2   2   7 9065.49 1194.73  11
   2  -2   7 12172.1 1551.42  11
  -2   2  -7 10664.3 1384.23  12
  -2   2  -7 11368.5 1417.99   5
   2  -2   7 11375.2 1507.56  10
  -2   3   9 34996.2 2528.95  14
  -2   3   8 128.390 340.512  14
  -2  -3   8 239.520 251.167  11
  -2   3   8-198.414 196.095  11
   2   3  -8 390.167 463.705   5
   2  -3  -8-161.571 323.153   5
  -2  -3   7 11003.9 1363.16  11
  -2  -3   7 10532.4 1389.78  14
   2   3  -7 11523.8 1415.00   5
   2  -3  -7 11120.6 1314.78   5
   2   3  -7 10679.2 1019.45  12
  -2  -3   7 12186.5 1514.17  10
   2   3  -7 7877.71 1019.50   7
  -2   3   7 12723.2 1216.56  11
  -2   3   7 9730.19 1082.71  14
  -2   3   6 2804.42 496.497  11
  -2   3   6 2729.48 496.461  14
  -2  -3   6 3014.12 676.802  14
   2   3  -6 3342.67 544.649  12
  -2  -3   6 2889.77 647.151  11
   2   3  -6 2876.61 689.566   5
   2  -3  -6 2973.37 653.817   5
   2   3  -6 2247.63 502.131   7
  -2  -3   6 3802.02 835.261  10
   2   3  -5 12165.4 1044.28   7
  -2   3   5 15887.1 734.176   9
  -2  -3   5 13335.4 1358.47   9
   2   3  -5 15680.9 1377.56   5
   2  -3  -5 14698.7 1346.16   5
  -2   3   5 11772.5 919.520  14
   2   3  -5 14755.9 993.780  12
  -2   3   5 15736.6 970.702  11
  -2  -3   5 14939.9 1400.81  14
  -2  -3   5 15391.1 1541.08  10
  -2   3   4 3995.87 371.056   9
  -2   3   4 3976.91 476.496   2
   2   3  -4 3985.76 485.616  12
  -2  -3   4 3773.68 642.124   9
  -2  -3   4 4411.96 767.033  14
  -2  -3   4 3456.37 641.692   6
  -2   3   4 4402.64 685.557   6
  -2  -3   4 3964.39 762.481  10
   2   3  -4 3305.69 497.741   7
  -2   3   4 3868.86 402.348  11
  -2  -3   3 175976. 3898.31   9
  -2  -3   3 170528. 3627.09   6
  -2   3   3 181763. 3806.58   6
  -2   3   3 188901. 3177.54   2
   2   3  -3 169620. 3013.59   7
  -2   3   3 184378. 1921.79  11
   2  -3  -3 159234. 3922.23   7
   2   3  -3 174612. 2870.72  12
  -2  -3   2 17616.8 1237.73   9
  -2   3   2 21165.4 1169.37   6
  -2  -3   2 18187.2 1084.80   6
   2   3  -2 19627.6 1031.28   3
  -2  -3   2 18036.1 947.827   7
   2   3  -2 21921.5 1024.32   7
  -2   3   2 19515.3 989.253   2
   2  -3  -2 18845.3 1261.58   7
   2   3  -2 22069.4 1263.42   8
   2  -3  -1 201243. 2576.82   3
  -2   3   1 208631. 3143.74   6
  -2  -3   1 194274. 3630.73   9
   2   3  -1 193656. 3005.16  13
   2   3  -1 189652. 3741.88   8
  -2  -3   1 192203. 3149.00   7
   2   3  -1 180887. 2766.16  12
   2   3  -1 192747. 3124.22   7
   2  -3  -1 186426. 3437.14   7
  -2   3   1 214219. 3148.10   2
  -2   3   1 195116. 1552.65  11
  -2  -3   1 195321. 3044.00   6
   2   3  -1 183727. 2874.39  10
   2  -3  -1 200650. 2839.44   6
   2   3  -1 197562. 2861.22   6
  -2  -3   0 40916.6 1584.46   9
  -2   3   0 44473.1 1265.04   3
  -2   3   0 43457.2 1380.05   2
   2   3   0 39974.7 1292.60   5
   2   3   0 39816.0 1768.94   8
  -2  -3   0 39700.5 1798.66   4
   2  -3   0 39814.6 1312.95   5
   2   3   0 39744.8 1578.02   7
   2   3   0 39856.1 1293.86  12
   2  -3   0 40712.5 1532.76   7
  -2   3   0 40467.7 1577.66   7
   2  -3   0 41383.3 1157.39  11
  -2   3   0 40942.5 945.458  11
  -2   3   0 42285.4 1374.37   6
  -2  -3   0 42297.7 1406.10   6
   2  -3   1 112533. 2529.02  10
  -2  -3  -1 108414. 3038.35   4
   2   3   1 111608. 2989.35   8
  -2  -3  -1 114091. 2637.14  12
   2  -3   1 112678. 2638.97   7
  -2   3  -1 115361. 3152.48  12
  -2   3  -1 118946. 2224.79   2
  -2  -3  -1 112438. 2496.76   9
   2  -3   1 115148. 2393.68  11
  -2   3  -1 113615. 2414.96   5
  -2  -3  -1 109655. 2414.96   5
  -2   3  -1 114563. 1900.60  11
  -2   3  -2 49411.0 1752.15   5
  -2  -3  -2 48447.5 1547.21   9
   2  -3   2 44269.9 982.314   8
   2   3   2 49112.3 2049.10   8
   2  -3   2 51094.2 1839.39  11
   2  -3   2 50964.9 1945.65   7
  -2   3  -2 49105.6 1394.32   2
   2   3   2 51712.5 1870.92   1
  -2  -3  -2 57898.1 2067.80  12
  -2  -3  -2 48050.9 2087.35   4
  -2   3  -2 60868.0 2434.46  12
  -2  -3  -2 51673.0 1824.99   5
   2   3   2 50040.9 1189.09  10
   2  -3   2 49169.6 1940.64  10
  -2   3  -3 14847.8 790.623  14
   2   3   3 15052.6 1203.91   8
  -2   3  -3 14809.5 750.060   2
  -2  -3  -3 15786.0 1243.73   4
  -2  -3  -3 14182.8 1144.36  12
  -2   3  -3 15096.1 1304.65  12
  -2  -3  -3 16437.9 1159.85   5
   2  -3   3 15082.1 1138.79  11
  -2  -3  -3 14997.7 834.457   9
  -2   3  -3 15632.3 1104.94   5
   2   3   3 15161.5 823.395  10
   2  -3   3 15322.8 1262.65  10
   2   3   3 14825.3 944.424   1
  -2   3  -4 25414.0 1775.54  12
   2   3   4 25603.2 1619.33   8
  -2   3  -4 25064.3 897.833   2
  -2  -3  -4 24958.9 1628.41  12
  -2   3  -4 25869.0 1600.40   5
  -2  -3  -4 24265.6 1571.26   5
   2  -3   4 25119.7 1683.18  11
   2   3   4 25658.2 1259.26  10
   2  -3   4 26306.0 1841.88  10
   2   3   5 25738.4 1727.95   8
  -2   3  -5 23453.8 1694.59   5
   2  -3   5 26290.1 1950.34  11
  -2   3  -5 20778.2 1738.30  12
  -2  -3  -5 22944.7 1680.60   5
  -2  -3  -5 23898.2 1741.61  12
   2  -3   5 27446.4 2083.32  10
   2   3   6 3742.96 741.614   8
  -2   3  -6 4465.91 913.824  12
  -2  -3  -6 3259.62 747.091  12
   2   3   6 3830.42 706.958  11
   2  -3   6 4002.85 856.433  11
  -2   3  -6 3019.30 731.641   5
  -2  -3  -6 4063.95 804.887   5
   2  -3   6 3769.83 870.945  10
   2  -3   7-97.4821 452.453  10
  -2   3  -7-247.539 433.416   5
  -2   4   8 6627.48 981.831  14
  -2  -4   8 7343.00 1350.30  10
   2   4  -8 7707.86 1246.74   5
   2  -4  -8 6941.05 1095.47   5
   2  -4  -7 13359.4 1459.79   5
   2   4  -7 12526.0 1439.57   5
  -2   4   7 8846.91 993.110  14
   2   4  -7 11886.1 1130.55  12
  -2   4   7 14417.2 1256.39  11
  -2  -4   7 13679.9 1660.03  10
   2  -4  -6 40612.5 2370.11   5
  -2   4   6 42309.6 1815.96  11
   2   4  -6 44516.6 2559.98   5
   2   4  -6 40570.0 2134.57   1
   2   4  -6 39895.6 1913.18  12
   2   4  -6 34476.0 1772.99   7
  -2  -4   6 43560.2 2668.40  10
  -2  -4   5 6715.68 1154.85   9
  -2   4   5 7384.86 474.328   9
  -2   4   5 6717.49 721.665   2
  -2   4   5 4983.89 598.569  14
   2   4  -5 6777.19 918.141   5
   2  -4  -5 7303.99 921.613   5
   2   4  -5 6595.52 709.409   7
   2   4  -5 6719.93 731.234  12
  -2   4   5 7250.85 631.344  11
  -2  -4   5 6257.77 988.739  10
   2   4  -5 6287.01 839.814   1
   2   4  -5 6181.81 715.770   8
  -2  -4   4 102580. 3174.05   6
   2   4  -4 92017.6 2712.67   8
   2  -4  -4 103303. 1814.80  13
  -2  -4   4 91476.4 3420.60   9
   2   4  -4 95131.6 2346.58   7
   2   4  -4 96145.5 2643.59  12
  -2   4   4 102216. 2633.26   2
  -2   4   4 109952. 1954.16  11
  -2   4   4 106835. 3311.35   6
  -2  -4   4 104805. 3541.10  10
  -2  -4   3 44082.1 2113.90   9
  -2   4   3 49214.3 1729.91   2
  -2  -4   3 42234.2 1811.20   6
  -2   4   3 44832.7 1898.66   6
   2   4  -3 39640.1 1790.07   8
  -2  -4   3 48870.5 2145.29  10
   2   4  -3 43579.9 1409.39   7
   2  -4  -3 40398.8 2070.24   7
   2   4  -3 42586.5 1921.82   3
  -2  -4   2 257986. 3411.56   7
  -2  -4   2 268513. 4959.24   9
   2   4  -2 270611. 4256.38   3
  -2   4   2 276376. 4257.92   6
  -2  -4   2 253771. 3977.60   6
   2   4  -2 278818. 4744.44   8
   2  -4  -2 268371. 4787.81   7
   2   4  -2 275268. 3434.30   7
  -2   4   2 246968. 3779.36   2
  -2  -4   1 17171.1 916.451   6
  -2  -4   1 17678.8 1217.96   9
  -2   4   1 19921.6 752.864  11
   2   4  -1 18071.7 1028.79  13
  -2  -4   1 17157.1 1265.10   4
   2   4  -1 17262.4 1210.40   8
   2   4  -1 18004.7 961.552   7
  -2  -4   1 16620.3 954.688   7
   2  -4  -1 16648.2 1071.43   7
   2   4  -1 18127.2 865.839   6
  -2   4   1 17766.3 926.985   6
  -2   4   1 18673.5 1016.99   2
   2   4  -1 17112.1 943.269  10
   2  -4  -1 17615.5 922.859   3
   2   4   0 66666.4 1675.75   5
  -2  -4   0 65370.2 2240.24   9
  -2   4   0 72571.5 1844.24   3
   2   4   0 66242.1 2413.50   8
   2  -4   0 67730.3 1688.30   5
  -2  -4   0 64822.9 2492.84   4
   2  -4   0 69382.9 2043.77   7
  -2   4   0 69153.0 1527.43  11
   2   4   0 65506.3 1499.49  10
  -2   4   0 72118.3 1959.61   2
   2   4   0 63734.5 2348.05   1
   2  -4   0 66038.9 1851.12  10
  -2   4   0 69550.9 1815.71   6
  -2  -4   0 68417.9 1806.04   6
  -2  -4  -1 43182.9 1721.13   9
  -2  -4  -1 39460.2 1497.94   5
   2  -4   1 43362.7 1346.79   8
   2   4   1 44018.2 2002.52   8
  -2  -4  -1 39725.4 2047.23   4
   2   4   1 43015.6 1923.93   1
  -2   4  -1 42075.5 1478.03   5
   2  -4   1 44140.2 1648.23   7
   2   4   1 41645.2 957.345  10
   2  -4   1 44980.8 1625.33  11
  -2   4  -1 44836.1 1518.65   2
   2  -4   1 46674.5 1792.48  10
  -2   4  -1 44892.4 1679.12   3
   2  -4   2 18849.6 1158.50   7
  -2  -4  -2 18612.1 1084.52   9
   2   4   2 15938.3 568.965  10
   2   4   2 17444.1 1197.81   1
  -2   4  -2 19092.7 1079.76   5
   2  -4   2 17041.8 664.325   8
   2  -4   2 19484.2 1322.72  10
   2   4   2 19815.4 1419.77   8
  -2  -4  -2 17600.1 1415.53   4
  -2  -4  -2 18533.0 1106.43   5
   2  -4   2 18505.4 1212.82  11
  -2   4  -2 19522.8 978.786   2
   2  -4   3-122.853 288.678  10
  -2  -4  -3 389.161 249.404   5
  -2  -4  -3 431.602 202.519   9
  -2   4  -3 509.021 183.604   2
   2   4   3-124.497 259.801   8
   2  -4   3 118.013 236.928  11
  -2  -4  -3-467.562 310.750  12
  -2   4  -3 253.644 265.473  12
  -2  -4  -3-15.6925 237.050   4
   2   4   3 78.1281 96.6476  10
  -2   4  -3 277.975 201.820   5
   2   4   4 35314.5 2064.42   8
  -2  -4  -4 34924.4 2047.20  12
  -2   4  -4 35813.2 1239.75   2
  -2   4  -4 35571.0 2232.96  12
  -2   4  -4 36609.5 1884.61   5
  -2  -4  -4 35526.6 1872.94   5
   2  -4   4 34896.4 2104.65  11
  -2  -4  -4 32718.3 2005.37   4
   2  -4   4 36045.6 2279.33  10
  -2   4  -5 11279.6 1162.14   5
   2   4   5 9958.03 1145.72   8
  -2  -4  -5 10208.7 1129.99   4
  -2  -4  -5 9768.97 1178.51  12
  -2   4  -5 8830.41 1178.85  12
  -2  -4  -5 10438.4 1140.22   5
   2  -4   5 11357.0 1341.18  11
   2  -4   5 10194.2 1351.38  10
   2   4   6 2509.14 622.317   8
  -2  -4  -6 2533.49 695.267  12
   2  -4   6 2387.27 703.039  11
  -2   4  -6 2160.04 668.337  12
  -2   4  -6 1665.90 536.423   5
  -2  -4  -6 1685.51 523.780   5
   2  -4   6 1945.73 596.754  10
  -2   5   8 333.739 203.446  14
   2   5  -8 972.931 562.566   5
   2  -5  -8 895.279 363.365   5
  -2  -5   7-8.21966 405.319  10
  -2   5   7 234.550 251.491  14
   2  -5  -7 299.644 269.301   4
   2   5  -7-113.700 321.484   5
   2  -5  -7 211.129 318.985   5
  -2   5   6 2530.87 487.120   2
  -2   5   6 2798.06 472.863  11
   2   5  -6 2376.01 529.281  12
   2   5  -6 3685.11 680.721   1
  -2   5   6 3630.95 615.807  14
   2   5  -6 2906.61 676.739   5
   2  -5  -6 2546.23 583.180   5
  -2  -5   6 2618.99 744.962  10
   2   5  -5-246.204 215.638  12
   2   5  -5 131.993 193.004   8
  -2   5   5 614.015 271.920   2
  -2  -5   5 285.638 404.014  10
   2   5  -5 426.320 261.488   1
   2   5  -5-48.5499 193.322   5
   2  -5  -5 564.140 319.244   5
  -2   5   5 312.467 203.150  11
  -2  -5   4 13507.8 1404.46   9
   2   5  -4 13036.3 1219.88   1
   2   5  -4 11493.2 1014.66   8
   2   5  -4 11986.2 1082.19   5
   2  -5  -4 11160.8 1005.89   5
   2   5  -4 12240.6 730.098   7
   2   5  -4 11852.6 1027.13  12
  -2   5   4 12530.5 995.278   2
  -2  -5   4 12656.1 1259.99  10
   2   5  -4 12199.4 1189.44   3
   2   5  -3 16860.2 1295.58   3
  -2  -5   3 16942.1 1435.28   9
  -2  -5   3 18078.7 1186.08   6
  -2   5   3 18922.9 1243.82   6
   2   5  -3 16482.1 1215.92   8
   2   5  -3 16258.0 1363.84   1
   2   5  -3 17289.0 777.231   7
   2  -5  -3 16089.2 1377.12   7
  -2  -5   3 17607.0 1413.13  10
  -2   5   3 19952.9 1179.96   2
  -2  -5   2 5431.79 598.280   6
  -2   5   2 5926.11 618.433   6
   2   5  -2 5962.35 708.482   3
  -2  -5   2 4994.25 774.510   9
   2   5  -2 6656.79 526.950   7
   2   5  -2 6409.31 797.455   8
  -2  -5   2 4997.85 829.940   4
  -2   5   2 5322.06 389.917  13
  -2  -5   2 5008.47 463.335   7
   2   5  -2 4883.14 800.776   1
   2  -5  -2 5491.60 731.830   7
  -2   5   2 5359.02 629.411   2
   2  -5  -2 5767.29 540.676   6
   2   5  -2 5878.76 543.634   6
  -2   5   1 20216.4 943.961  11
  -2  -5   1 18216.1 1340.43   9
  -2   5   1 19155.1 975.822   6
  -2  -5   1 17600.9 926.674   6
   2   5  -1 17764.4 1280.06   8
   2   5  -1 19109.5 1165.90  13
  -2  -5   1 17130.8 1376.00   4
  -2   5   1 18954.8 1128.89   2
   2  -5  -1 17949.8 1160.80   7
   2   5  -1 19059.1 1431.03   1
  -2  -5   1 16932.7 965.616   7
   2  -5  -1 18377.7 839.831   5
   2   5  -1 17382.8 863.499   5
   2   5   0 6399.63 627.232  13
   2   5   0 6148.36 777.424   8
   2   5   0 6723.42 785.529   1
   2  -5   0 5882.04 623.656   7
   2  -5   0 6153.95 519.965   5
   2   5   0 6220.04 503.619   5
  -2  -5   0 5530.46 826.787   4
  -2  -5   0 6361.10 780.852   9
   2   5   0 6682.86 483.323  10
   2  -5   0 7364.35 685.378  10
  -2   5   0 6130.03 648.412   2
  -2   5   0 6722.72 567.911   6
  -2  -5   0 5761.25 526.964   6
   2  -5   1 4047.35 568.908  10
  -2   5  -1 4291.02 575.367   3
  -2  -5  -1 3738.10 629.467   9
   2   5   1 4009.32 694.183   8
   2  -5   1 4340.35 485.552   8
   2  -5   1 4016.99 497.698   7
  -2  -5  -1 4009.03 720.924   4
   2   5   1 4167.71 648.210   1
  -2   5  -1 4673.36 502.289   6
  -2  -5  -1 3937.97 486.040   6
  -2   5  -1 4428.43 541.170   2
  -2  -5  -2 27699.3 1454.74   9
  -2   5  -2 34164.6 2156.75  12
   2   5   2 28123.0 1773.94   8
   2  -5   2 28909.4 1010.54   8
   2  -5   2 28770.4 1428.48   7
   2  -5   2 28479.5 1592.34  11
  -2   5  -2 28807.2 1361.01   5
  -2  -5  -2 29612.9 1418.19   5
  -2  -5  -2 27942.2 1913.18   4
   2   5   2 29793.6 1691.30   1
  -2   5  -2 30389.1 1671.81   3
  -2   5  -2 29630.4 1367.68   2
   2  -5   2 30006.4 1760.62  10
   2  -5   3 162.469 277.706  10
  -2   5  -3-192.891 207.095   5
  -2  -5  -3 219.485 276.255   5
  -2  -5  -3 71.2191 142.845   9
   2  -5   3 125.076 196.714  11
  -2   5  -3 120.875 117.814   2
   2   5   3 174.853 284.456   8
  -2   5  -3-279.304 335.868  12
  -2  -5  -3-12.1464 222.720   4
   2   5   4 25590.9 1859.13   8
  -2  -5  -4 23523.6 1843.60   4
  -2   5  -4 22980.7 1888.99  12
  -2   5  -4 25797.3 1575.78   5
  -2  -5  -4 25500.2 1607.04   5
   2  -5   4 25442.7 1867.88  11
   2  -5   4 25978.2 2037.18  10
  -2   5  -5 1105.78 420.290   5
   2   5   5 636.905 376.669   8
  -2  -5  -5 898.238 435.061  12
  -2   5  -5 1072.12 483.412  12
  -2  -5  -5 648.409 390.222   4
   2  -5   5 1264.50 537.481  11
   2  -5   5 1187.51 557.309  10
  -2  -5  -5 873.515 431.836   5
   2   5   6 2410.68 670.789   8
  -2  -5  -6 1777.63 553.833  12
  -2   5  -6 1776.59 586.897  12
   2  -5   6 1531.08 621.319  11
   2  -5   6 1279.54 514.492  10
  -2   5  -6 1764.74 558.603   5
  -2  -5  -6 2094.42 594.271   5
   2   6  -8 1477.63 528.267   5
   2  -6  -8 1213.36 484.942   5
   2  -6  -7 4519.33 876.972   4
  -2   6   7 3868.45 702.895  14
   2   6  -7 3907.99 794.895   5
   2  -6  -7 2999.59 717.485   5
  -2  -6   7 4602.29 1065.59  10
   2  -6  -6 20250.2 2041.64   4
   2  -6  -6 11495.7 1437.08   5
   2   6  -6 8081.01 1329.88   5
   2   6  -6 1149.92 976.868  12
   2   6  -6 19315.6 1930.60   3
   2   6  -6 16047.0 1504.66   1
   2   6  -5 9309.75 1122.16   1
   2   6  -5 7838.75 923.920  12
   2  -6  -5 7455.50 900.378   5
   2   6  -5 9362.68 1021.24   5
  -2   6   5 10257.3 977.521   2
  -2  -6   5 9962.98 1276.38  10
   2   6  -5 6624.70 1052.06   3
   2   6  -4-159.555 292.886   3
  -2   6   4 512.674 274.370   2
   2   6  -4 95.8267 173.029   8
   2   6  -4-135.040 237.695   5
   2  -6  -4 11.8240 151.900   5
   2   6  -4 267.397 305.029   1
  -2  -6   4 471.643 292.939  10
  -2  -6   3 20004.9 1695.30   9
   2   6  -3 17686.6 1407.36   3
   2   6  -3 15817.2 1417.61   1
   2   6  -3 15494.5 1233.36   8
   2  -6  -3 15370.0 1023.93   5
   2  -6  -3 14079.5 1332.94   7
  -2  -6   3 16273.6 1342.62  10
  -2   6   3 18457.2 1228.18   2
  -2  -6   3 13959.5 1375.12   4
   2   6  -2 1267.44 466.696   1
  -2  -6   2-13.5629 229.083   9
   2   6  -2-169.316 309.188  13
  -2   6   2 455.037 189.127  13
  -2  -6   2 318.327 151.581   6
  -2   6   2 315.519 216.399   6
   2   6  -2 500.397 360.587   3
  -2   6   2 406.361 301.501   2
  -2  -6   2 479.596 337.416   4
   2   6  -2 209.541 288.915   8
   2  -6  -2 173.516 246.277   7
   2  -6  -1 221.416 144.966   5
   2  -6  -1 287.069 183.708  10
   2   6  -1-211.765 305.753   8
  -2  -6   1 222.155 258.569   9
  -2   6   1 32.7108 174.600   2
   2   6  -1 79.0960 179.354  13
  -2   6   1-51.0852 125.696   6
  -2  -6   1 324.464 199.523   6
  -2  -6   1 536.708 372.143   4
  -2  -6   1 429.322 197.082   7
   2  -6  -1 159.564 162.678   7
   2   6  -1 869.942 416.800   1
  -2   6   0 9510.87 675.297   6
  -2  -6   0 9379.64 667.066   6
  -2  -6   0 7347.13 950.342   9
   2   6   0 8737.02 1038.58   1
   2   6   0 8752.88 1011.12   8
  -2   6   0 8602.85 821.421   2
  -2  -6   0 8870.68 1143.31   4
   2   6   0 9366.26 819.649  13
   2  -6   0 8663.44 592.137   5
   2  -6   0 9600.53 809.826   7
   2   6   0 9027.23 540.290  10
   2  -6   0 9492.51 871.482  10
  -2   6  -1 21427.8 1288.55   2
  -2  -6  -1 20432.5 1431.21   9
  -2   6  -1 22543.2 1365.58   3
   2   6   1 19656.1 1538.00   8
  -2  -6  -1 18799.5 1669.01   4
   2  -6   1 20969.8 1122.61   7
   2   6   1 20360.6 1536.69   1
   2  -6   1 22273.1 1453.79  10
  -2   6  -1 21427.0 1042.14   6
  -2  -6  -1 20639.3 1046.80   6
  -2  -6  -2 79899.5 2680.05   9
   2   6   2 81147.6 3230.53   8
  -2  -6  -2 73725.0 3330.74   4
   2  -6   2 82135.0 2290.88   7
  -2   6  -2 80935.8 2262.43   5
  -2  -6  -2 74555.5 2258.10   5
  -2   6  -2 80138.1 2832.33   3
   2  -6   2 79903.7 3087.80  10
  -2   6  -2 84559.0 2475.46   2
  -2   6  -3 340.076 231.418   5
  -2  -6  -3 348.809 233.238   5
  -2   6  -3 167.349 193.978   3
  -2   6  -3 986.383 320.010   2
   2  -6   3 924.579 373.608   4
   2  -6   3 982.880 439.686  10
  -2   6  -3-55.6230 267.126  12
  -2  -6  -3 766.965 503.216   4
   2   6   3 327.792 254.251   8
  -2   6  -4 147.160 277.570   5
  -2  -6  -4 419.376 297.298   5
   2   6   4 733.517 430.427   8
   2  -6   4 131.080 394.828  11
  -2   6  -4 518.989 433.687  12
  -2  -6  -4-217.656 306.255   4
   2  -6   4 621.465 504.469  10
   2   6   5 8894.50 1186.52   8
  -2  -6  -5 7577.82 1186.82   4
  -2   6  -5 8354.88 1302.31  12
  -2   6  -5 8382.36 1000.75   5
  -2  -6  -5 9161.83 1077.45   5
   2  -6   5 10027.8 1330.65  11
   2  -6   5 8909.51 1383.17  10
  -2   6  -6 9931.30 1196.53   5
   2   6   6 7979.30 1263.44   8
  -2  -6  -6 8796.44 1141.26   5
   2  -6   6 9184.88 1385.48  11
   2  -7  -7 9082.56 1321.76   4
  -2   7   6 772.477 364.348   2
   2   7  -6 569.014 274.181   3
   2  -7  -6 1104.38 502.199   4
  -2  -7   6 1218.60 586.336  10
   2  -7  -5 9583.06 1308.76   4
   2   7  -5 7333.46 1064.69  12
  -2   7   5 13128.3 1167.83   2
   2   7  -5 11232.3 1296.63   1
  -2  -7   5 10333.2 1333.01  10
   2   7  -5 9222.39 1216.68   3
   2   7  -4 11139.5 1264.55   3
   2   7  -4 11164.5 1076.83   8
   2  -7  -4 9189.38 1262.53   7
  -2   7   4 12070.3 1083.93   2
  -2  -7   4 11412.7 1296.92  10
   2   7  -4 11227.8 1298.90   1
   2   7  -3 7939.63 996.027   3
   2   7  -3 6218.79 966.992   1
   2   7  -3 6598.37 869.338   8
   2  -7  -3 6624.26 914.422   7
  -2  -7   3 6621.81 966.349   4
  -2  -7   3 7080.73 951.634  10
  -2   7   3 7593.13 907.018   2
   2  -7  -2 253.087 194.799  10
  -2  -7   2-1.87588 294.549   9
   2   7  -2 327.761 358.970   8
  -2   7   2-193.851 248.425   2
  -2   7   2 400.318 215.478  13
  -2  -7   2-94.6594 284.576   4
   2   7  -2 378.467 414.224   1
   2  -7  -2-26.6779 203.669   7
   2   7  -2-153.354 285.315  13
  -2   7   1 4957.55 702.858   2
  -2  -7   1 5557.88 944.756   9
   2  -7  -1 4474.48 630.138   7
   2   7  -1 5076.98 837.083   1
   2   7  -1 4648.07 745.015   8
  -2   7   1 5451.13 624.257  13
  -2  -7   1 4312.18 867.167   4
   2   7  -1 4636.96 658.251  13
   2  -7  -1 4390.74 585.216  10
   2  -7   0 999.351 348.767  10
  -2  -7   0 1326.05 520.465   9
   2   7   0 1278.71 548.667   1
   2   7   0 1262.68 437.765   8
   2   7   0 1790.04 463.411  13
  -2   7   0 572.896 286.830   2
  -2  -7   0 1218.26 543.685   4
   2  -7   0 1146.70 313.008   7
  -2  -7  -1 21321.7 1615.32   9
  -2   7  -1 19627.5 1320.76   2
  -2   7  -1 22272.2 1458.01   3
   2   7   1 20393.8 1777.90   8
  -2  -7  -1 18536.2 1790.13   4
   2  -7   1 20360.9 1526.13  10
  -2   7  -2 15134.1 1156.63   2
  -2   7  -2 14067.1 1266.98   3
   2  -7   2 13348.3 1326.12   4
   2   7   2 14612.0 1449.22   8
  -2  -7  -2 12969.9 1497.78   4
   2  -7   2 15279.0 1502.95  10
  -2   7  -3 9898.91 1378.61  12
   2   7   3 11530.4 1321.59   8
  -2  -7  -3 11881.2 1469.93   4
   2  -7   3 10846.1 1333.85  10
  -2   7  -3 12149.1 1015.49   2
  -2   7  -3 9492.81 1158.26   3
   2   7   4 21558.0 1902.38   8
  -2  -7  -4 17536.1 1838.39   4
  -2   7  -4 20021.5 1986.29  12
   2  -7   4 21436.8 2067.40  10
  -2   7  -4 16883.0 1655.40   3
  -2   7  -5 6064.59 1073.83   3
   2   7   5 10248.4 1374.43   8
  -2  -7  -5 9310.74 1407.08   4
  -2   7  -5 7093.39 1223.30  12
   2  -7   5 8694.71 1453.38  10
  -2   8   6 310.684 479.073   2
  -2  -8   6 541.471 505.264  10
   2   8  -5 2058.11 590.811   3
  -2   8   5 3467.44 697.344   2
   2  -8  -5 2752.58 790.904   4
   2   8  -5 2043.11 602.692  12
  -2  -8   5 3997.39 932.192  10
   2  -8  -4 1550.58 683.601   4
   2   8  -4 1208.53 563.182   3
  -2   8   4 1449.15 455.531   2
   2   8  -4 1297.59 525.557   1
   2  -8  -4 672.770 406.361   7
  -2  -8   4 780.388 423.070  10
   2  -8  -3 8895.96 1291.05   4
   2   8  -3 10277.2 1163.95   3
   2   8  -3 9116.74 1042.97   8
  -2  -8   3 9768.77 1303.20   4
   2  -8  -3 8745.47 1112.48   7
   2   8  -3 9894.20 1271.28   1
  -2  -8   3 10187.8 1170.80  10
   2   8  -3 10177.5 1215.77  13
  -2   8   3 11172.1 1143.63   2
   2  -8  -2 429.465 191.842  10
   2  -8  -2 688.681 454.590   4
   2   8  -2 254.005 327.421  13
   2   8  -2 609.825 373.572   8
  -2   8   2 508.572 235.006  13
  -2   8   2 960.293 400.111   2
  -2  -8   2 537.287 400.879   4
   2   8  -2 622.688 413.406   1
   2  -8  -2 525.206 197.053   7
   2  -8  -1 64.3202 184.464  10
   2  -8  -1 160.238 320.601   4
   2   8  -1 648.517 362.040  13
   2   8  -1 892.250 384.224   8
  -2   8   1-5.61973 208.140  13
  -2   8   1-28.5619 200.790   2
   2   8  -1 531.239 366.109   1
  -2  -8   1 583.777 436.317   4
   2  -8   0 2587.10 551.156  10
   2  -8   0 2581.16 636.449   4
   2   8   0 2063.25 558.105   8
   2   8   0 2818.95 560.291  13
  -2   8   0 2095.94 460.090   2
  -2  -8   0 1172.80 504.225   4
  -2   8  -1 12764.5 1135.31   2
   2  -8   1 13182.1 1435.67   4
   2   8   1 12663.8 1390.65   8
  -2  -8  -1 12156.4 1544.87   4
   2  -8   1 12716.9 1286.08  10
  -2   8  -2 36876.1 1957.80   2
  -2   8  -2 37213.6 2120.51   3
   2  -8   2 36491.5 2364.19   4
   2   8   2 35961.7 2398.01   8
  -2  -8  -2 34709.5 2594.02   4
   2  -8   2 39750.6 2486.26  10
  -2   8  -3 1473.59 494.965   3
  -2   8  -3 1226.14 361.985   2
  -2   8  -3 1147.82 600.923  12
  -2  -8  -3 854.807 500.402   4
   2   8   3 1341.48 532.949   8
   2  -8   3 891.745 440.439  10
  -2   8  -4-75.8723 318.451  12
   2   8   4-343.709 361.655   8
  -2   8  -4-74.5341 299.108   3
  -2  -8  -4-404.820 455.105   4
   2  -8   4 101.922 366.729  10
  -2  -8  -5 5415.33 1205.06   4
  -2   9   5 4943.23 829.432   2
   2  -9  -5 3315.78 895.507   7
  -2  -9   5 5165.20 1035.88  10
   2  -9  -4 4349.18 982.544   4
   2   9  -4 7215.57 1126.16   3
  -2   9   4 6180.32 872.754   2
  -2  -9   4 4776.37 927.034  10
   2  -9  -4 4324.75 898.448   7
   2   9  -3 5773.95 968.893  13
   2   9  -3 5676.41 861.482   8
   2  -9  -3 6402.74 1141.71   4
  -2  -9   3 5710.05 1109.73   4
  -2   9   3 6141.68 928.379   2
   2  -9  -2 813.890 562.296   4
   2   9  -2 358.938 262.099   8
   2   9  -2 242.270 335.381  13
  -2   9   2 173.837 309.196   2
  -2  -9   2 1209.90 604.254   4
  -2   9   1 15505.6 1375.71   2
   2  -9  -1 13732.6 1599.78   4
   2   9  -1 14438.8 1471.52   8
  -2  -9   1 15176.3 1787.82   4
   2   9  -1 13768.2 1258.09  13
  -2   9   1 16487.3 1199.38  13
   2  -9   0 165.339 346.663  10
   2   9   0 478.456 343.071   8
   2  -9   0 412.719 347.155   4
  -2   9   0 70.2524 223.204   2
  -2  -9   0-273.461 354.022   4
  -2  -9  -1 441.052 561.310   4
   2   9   1 860.391 449.355   8
   2  -9   1 215.700 385.420   4
  -2   9  -1 135.522 209.935   2
   2  -9   1-138.568 296.219  10
   2   9   2 4090.33 894.744   8
   2  -9   2 3860.89 815.056   4
  -2   9  -2 4218.53 739.545   2
  -2  -9  -2 4418.50 1133.11   4
   2  -9   2 5120.99 987.647  10
  -2   9  -3 2938.58 685.088   3
  -2   9  -3 2450.11 859.582  12
   2   9   3 2261.86 723.593   8
  -2   9  -3 2688.86 591.317   2
  -2  -9  -3 1784.89 679.522   4
   2  -9   3 1392.01 562.394  10
  -2 -10   3 3063.07 876.859   4
   2 -10  -2 37896.3 2882.21   4
   2  10  -2 30639.4 2223.93   8
  -2 -10   2 37453.6 2936.03   4
   2  10  -2 30939.9 2206.72  13
  -2  10   2 29381.8 2023.08   2
   2  10  -1 115.535 320.802  13
   2  10  -1 270.769 267.449   8
   2 -10  -1 199.592 416.461   4
  -2  10   1 454.749 376.982   2
  -2 -10   1-432.024 415.560   4
  -2  10   0 15887.7 1463.05   2
   2 -10   0 14620.0 1758.25   4
   2  10   0 16086.8 1662.02   8
  -2 -10   0 14257.9 1850.40   4
  -2  10   0 15025.4 1364.45  13
  -2 -10  -1 4165.76 1038.75   4
   2  10   1 5574.91 1027.57   8
   2 -10   1 4041.54 966.363   4
  -2  10  -1 5747.92 906.388   2
   2 -10   2 758.966 563.161   4
  -2  10  -2 202.671 290.530   2
   2 -10   2 1120.01 631.090  10
  -2  10  -3 300.813 221.046   2
   2  11  -1 17089.6 1785.75   8
  -3   0   9-91.2877 346.131  14
   3   0  -9 98.4004 430.568   7
   3   0  -8 19551.4 2075.30   5
  -3   0   8 19646.1 1904.60  14
  -3   0   8 21248.1 1853.37  11
   3   0  -8 19836.5 1915.27   7
   3   0  -7 22535.8 2064.15   5
  -3   0   7 20061.3 1749.48  14
  -3   0   7 20688.1 1643.76  11
   3   0  -7 18504.7 1767.50   7
  -3   0   6 2295.38 511.091   9
  -3   0   6 2223.41 636.286   6
  -3   0   6 2862.39 620.883  14
   3   0  -6 1731.48 358.332  12
  -3   0   6 2214.31 497.239  11
   3   0  -6 1785.28 534.891   7
  -3   0   5 3969.56 588.807   9
  -3   0   5 4838.21 852.946   6
  -3   0   5 3548.87 446.209  12
  -3   0   5 3337.25 611.596  14
   3   0  -5 3471.45 724.696   7
  -3   0   4 11960.2 927.637   9
  -3   0   4 12281.2 1182.72   6
  -3   0   4 11240.6 956.037  14
   3   0  -4 10720.4 1099.44   7
  -3   0   4 11248.9 555.386  12
  -3   0   3 298393. 5479.62   6
  -3   0   3 280003. 4181.98   9
  -3   0   3 261365. 4185.10  14
   3   0  -3 297862. 5351.12   7
   3   0  -3 275920. 3410.81  11
  -3   0   2 117064. 2989.96   6
  -3   0   2 119436. 2531.04   9
   3   0  -2 121123. 3192.52   7
  -3   0   2 116500. 2487.54  14
  -3   0   1 2869.06 388.346   9
  -3   0   1 3163.21 501.224   6
   3   0  -1 2667.58 273.000  14
  -3   0   1 2092.94 293.267  14
  -3   0   1 2838.39 288.482  13
  -3   0   1 2569.46 263.395  12
   3   0  -1 1941.99 426.188   7
  -3   0   0 81630.3 1921.20   9
  -3   0   0 71810.5 1507.01  14
   3   0   0 74250.5 2557.37   7
  -3   0   0 78631.3 1854.67  12
   3   0   0 79354.8 2102.55  12
  -3   0   0 78904.2 2369.57   6
   3   0   1 232.724 313.274   7
   3   0   1 149.201 167.910   8
   3   0   2 2667.75 469.045  10
  -3   0  -2 3911.80 574.782   5
   3   0   2 4018.37 591.006   8
  -3   0  -2 3543.59 571.907  12
   3   0   2 3841.93 688.000   7
  -3   0  -3 4056.00 695.452   5
   3   0   3 2060.54 419.875  10
   3   0   3 2558.60 471.097   8
   3   0   3 3251.70 527.347  11
  -3   0  -3 3486.18 617.107  12
  -3   0  -4 7538.24 954.991  12
  -3   0  -4 7104.95 1001.90   5
   3   0   4 7165.60 828.747  11
   3   0   4 10187.0 1106.46  10
  -3   0  -5 9994.55 1202.69   5
  -3   0  -5 8837.80 1124.95  12
   3   0   5 10171.3 1099.09  11
   3   0   5 9624.28 1161.10  10
  -3   0  -6 19227.2 1780.80  12
  -3   0  -6 22285.7 1938.49   5
   3   0   6 19867.0 1728.99  11
   3   0   6 21078.1 1862.11  10
  -3  -1   9 6682.28 1232.05  14
  -3   1   9 8206.86 1306.48  14
  -3  -1   9 8273.65 1315.06  11
   3   1  -9 5762.19 1068.95   7
  -3   1   8 715.950 339.317  11
  -3   1   8 418.697 306.354  14
  -3  -1   8 816.132 485.946  11
   3   1  -8 636.309 429.694   5
   3  -1  -8 667.627 369.174   5
   3   1  -8 341.869 309.278   7
   3  -1  -8 541.959 383.509   7
  -3  -1   8 674.829 288.248  14
  -3  -1   7 413.310 311.074   9
  -3   1   7 458.089 389.038  14
  -3  -1   7-85.4343 222.923  14
  -3  -1   7 321.198 306.907  11
   3   1  -7 266.860 371.765   5
   3  -1  -7 209.564 308.947   5
  -3   1   7 411.877 297.871  11
   3   1  -7 355.103 282.019   7
   3  -1  -7 481.249 310.395   7
  -3  -1   6 201.689 200.927   9
  -3   1   6-51.1031 180.706   9
  -3   1   6 257.216 234.439  14
  -3  -1   6 342.885 435.219   6
  -3   1   6 82.0238 458.770   6
  -3  -1   6 294.603 276.624  14
   3   1  -6-14.0631 104.625  12
  -3   1   6-108.113 168.259  11
   3   1  -6 419.396 323.108   7
   3  -1  -6 300.113 376.432   7
  -3  -1   5 26888.1 1617.93   9
  -3   1   5 27325.4 1384.23   9
  -3  -1   5 25337.9 1861.12   6
  -3   1   5 26192.7 1893.64   6
  -3   1   5 25679.9 1585.74  14
  -3  -1   5 24966.2 1694.73  14
   3   1  -5 23302.0 935.195  12
   3   1  -5 22176.9 1656.07   7
  -3   1   5 23890.6 1315.11  11
   3  -1  -5 21191.1 1715.24   7
  -3  -1   4 14750.7 1112.12   9
  -3  -1   4 11562.2 1188.31   6
  -3   1   4 12777.7 1247.05   6
  -3   1   4 13424.0 919.362   9
  -3   1   4 12794.7 1001.97  14
  -3  -1   4 13221.8 1112.99  14
  -3   1   4 12825.0 666.721  12
   3   1  -4 11129.8 1137.20   7
   3  -1  -4 11994.5 1188.13   7
   3  -1  -4 13919.6 591.995  11
  -3  -1   3 1138.76 328.629   9
  -3   1   3 766.001 227.313   9
  -3   1   3 754.183 349.487   6
  -3  -1   3 857.211 358.754   6
  -3  -1   3 1247.18 352.119  14
  -3   1   3 927.593 300.221  14
  -3   1   3 820.411 168.835  12
   3  -1  -3 1215.71 157.760  11
   3   1  -3 919.039 382.045   7
   3  -1  -3 1087.58 402.731   7
   3   1  -3 733.366 153.827  13
   3   1  -2 4822.84 358.779   3
  -3  -1   2 4554.31 560.197   9
  -3   1   2 4684.29 480.368   9
  -3   1   2 4473.70 593.173   6
  -3  -1   2 4482.75 588.201   6
  -3   1   2 4304.19 458.694  14
  -3  -1   2 3871.87 517.027  14
   3   1  -2 4695.11 364.570  13
   3   1  -2 4086.14 634.976   7
   3  -1  -2 4087.07 288.380  11
   3  -1  -2 4338.92 617.300   7
  -3  -1   1 68348.6 1988.49   9
  -3   1   1 68978.1 1538.07  14
  -3  -1   1 70114.4 1949.03  14
  -3  -1   1 70956.8 1271.24  12
   3   1  -1 72426.7 1428.91  12
  -3   1   1 72113.9 1698.93  12
   3  -1  -1 69929.4 2433.62   7
  -3  -1   1 72885.0 1708.33  13
   3   1  -1 71929.6 1657.13  14
   3   1  -1 67726.4 2357.80   7
  -3   1   1 70790.7 2236.44   6
  -3  -1   1 72408.1 2268.81   6
  -3  -1   0 12815.9 794.639   9
   3   1   0 11866.8 1016.40   8
  -3   1   0 12157.0 555.458  14
   3   1   0 12881.1 595.189  14
   3   1   0 13024.9 1086.01   7
   3  -1   0 13265.6 1082.70   7
  -3   1   0 13111.1 848.805  12
   3   1   0 13659.0 803.014  12
  -3  -1   0 12634.7 720.558  12
  -3   1   0 12673.6 970.563   6
  -3  -1   0 12428.5 952.206   6
  -3  -1  -1 59648.8 1858.23  12
  -3  -1  -1 57564.0 2113.28   5
  -3  -1  -1 60630.0 1720.18   9
   3   1   1 60070.9 2248.23   8
   3   1   1 56704.7 903.864  14
   3   1   1 57679.3 2415.32   7
   3  -1   1 61420.0 2424.84   7
  -3   1  -1 59095.5 1997.34  12
  -3   1  -1 59161.1 2122.37   5
   3  -1   1 62769.5 1485.69  11
   3  -1   2 585.232 276.185  10
   3   1   2 600.403 259.535  10
  -3   1  -2 577.520 303.964   5
  -3  -1  -2 628.161 325.646   5
  -3  -1  -2 591.485 204.512   9
   3   1   2 642.748 319.318   8
   3  -1   2 353.441 234.136   8
  -3  -1  -2 583.048 294.760  12
  -3   1  -2 406.511 252.757  12
   3   1   2 454.820 402.158   7
   3  -1   2 820.966 417.157   7
   3  -1   2 515.658 233.832  11
   3   1   3 928.777 284.379  10
   3  -1   3 1039.37 297.216  10
  -3   1  -3 1590.23 459.216   5
  -3  -1  -3 1400.49 450.887   5
   3  -1   3 1727.21 375.458  11
   3  -1   3 1331.04 276.156   8
  -3  -1  -3 1948.09 345.049   9
   3   1   3 1529.64 429.566   8
  -3  -1  -3 983.046 355.682  12
  -3   1  -3 1936.72 525.603  12
  -3  -1  -4 13391.5 824.982   9
   3   1   4 13828.8 1096.21   8
  -3  -1  -4 12124.9 1187.18  12
  -3   1  -4 13505.4 1281.84  12
  -3   1  -4 12888.8 1263.25   5
  -3  -1  -4 12663.4 1254.06   5
   3  -1   4 12202.8 1121.16  11
   3   1   4 12698.4 1029.90  11
   3   1   4 13231.1 1158.13  10
   3  -1   4 14351.4 1328.42  10
  -3   1  -5 2284.21 627.521   5
  -3  -1  -5 2272.88 599.906   5
  -3  -1  -5 1246.30 504.829  12
  -3   1  -5 650.961 391.546  12
   3  -1   5 1417.02 360.855  11
   3   1   5 1946.88 505.410  11
   3   1   5 1618.49 508.920  10
   3  -1   5 2028.87 597.479  10
  -3  -1  -6 5681.62 1008.64  12
  -3   1  -6 4562.04 906.412  12
  -3   1  -6 7133.34 1106.62   5
   3  -1   6 5189.33 902.492  11
   3   1   6 4142.12 784.505  11
   3  -1   6 4514.70 935.675  10
  -3  -1  -6 5270.16 931.125   5
   3  -1   7 4534.23 1005.18  10
  -3   2   8 11442.3 1385.97  14
   3   2  -8 12131.9 1637.47   5
   3  -2  -8 10540.7 1488.43   5
  -3  -2   8 11440.9 1529.41  14
   3   2  -8 9113.90 1234.49   7
  -3  -2   7 240.113 216.436   9
  -3   2   7 69.2778 358.653  14
  -3  -2   7 460.281 310.951  14
   3   2  -7 192.768 480.507   5
   3  -2  -7-75.0543 309.389   5
  -3   2   7-53.4108 166.403  11
   3   2  -7 36.3133 182.800   7
   3  -2  -7-605.632 413.533   7
  -3  -2   6 9906.47 1081.22   9
  -3   2   6 10444.5 847.728   9
  -3  -2   6 10200.6 1316.15   6
  -3   2   6 11748.2 1391.89   6
  -3   2   6 10388.9 1077.05  14
  -3  -2   6 9032.84 1153.74  14
   3   2  -6 9474.56 1095.38   7
  -3   2   6 9050.81 880.590  11
   3  -2  -6 9216.90 1225.86   7
   3   2  -5 62933.1 2610.20   7
  -3  -2   5 71093.1 2745.29   9
  -3   2   5 70662.6 2099.91   9
  -3  -2   5 66790.0 3000.91   6
  -3   2   5 68625.4 3082.35   6
  -3   2   5 62643.9 2362.55  14
  -3  -2   5 67092.9 2859.83  14
   3   2  -5 66537.0 1549.51  12
  -3   2   5 68185.4 2019.68  11
   3  -2  -5 65268.2 2993.49   7
  -3  -2   4 846.952 342.606   9
  -3   2   4 1124.26 251.835   9
  -3  -2   4 936.939 293.811   6
  -3   2   4 1192.44 434.136   6
  -3   2   4 1068.48 335.029  14
  -3  -2   4 814.224 388.084  14
  -3   2   4 743.512 241.750  12
   3   2  -4 827.307 142.767  12
  -3   2   4 720.161 182.259  11
   3   2  -4 457.680 231.724   7
   3  -2  -4 1302.40 421.455   7
  -3   2   3 27690.7 1830.18   6
  -3  -2   3 30675.7 1839.32   6
  -3  -2   3 33585.1 1720.38   9
  -3   2   3 25595.2 1082.52   9
  -3  -2   3 27662.6 1643.52  14
  -3   2   3 26506.3 1216.49  14
   3   2  -3 26931.9 1183.87  13
  -3   2   3 29495.1 1156.56  12
   3   2  -3 33991.9 1717.77   7
   3  -2  -3 32432.0 1879.95   7
   3   2  -3 29610.5 1292.38   3
  -3   2   2 114627. 2976.95   6
  -3  -2   2 111303. 2932.67   6
  -3  -2   2 112896. 2912.88   9
   3  -2  -2 114396. 1356.65   3
   3   2  -2 118978. 2111.58   3
  -3   2   2 116909. 2187.82  14
  -3  -2   2 109708. 2987.29  14
   3   2  -2 104118. 1100.41  12
   3   2  -2 117860. 2098.75  13
   3   2  -2 116585. 3031.55   7
   3  -2  -2 110977. 3204.18   7
  -3  -2   1 58510.7 2010.04   9
  -3   2   1 63710.5 1412.70  14
   3   2  -1 57139.7 2174.58   7
   3   2  -1 60798.6 1318.66  12
   3  -2  -1 56458.2 2215.71   7
   3  -2  -1 58585.0 892.819  11
  -3  -2   1 61063.0 1581.28   3
  -3   2   1 59756.0 2072.99   6
  -3  -2   1 58177.3 2071.17   6
  -3  -2   0 23908.1 1216.64   9
   3   2   0 21718.4 1434.59   8
   3   2   0 23119.2 1038.97  14
  -3  -2   0 21638.5 1022.43  12
   3   2   0 23342.7 1451.06   7
   3   2   0 24135.8 1076.35  12
   3  -2   0 23306.4 1422.00   7
  -3   2   0 24011.5 1295.43  12
   3  -2   0 23001.4 806.288  11
  -3   2   0 21949.1 749.178   3
  -3   2   0 22458.4 1276.54   6
  -3  -2   0 23524.7 1314.34   6
  -3  -2  -1 61091.0 1915.39   9
   3   2   1 62882.3 2420.75   8
   3   2   1 66823.2 1578.66  14
   3   2   1 62076.1 2549.68   7
  -3  -2  -1 66021.2 1983.43  12
   3  -2   1 66107.7 2485.94   7
  -3   2  -1 66932.1 2316.60  12
   3  -2   1 64282.6 1666.99  11
  -3   2  -1 64999.2 2209.24   5
  -3  -2  -1 66054.8 2260.71   5
   3  -2   1 65748.0 2031.20  10
   3  -2   2 1423.74 392.084  10
   3   2   2 602.332 238.880  10
  -3   2  -2 693.301 350.747   5
  -3  -2  -2 1035.87 389.029   5
  -3  -2  -2 392.681 135.924   9
   3   2   2 1016.94 412.907   8
   3   2   2 614.403 138.105  14
   3  -2   2 807.599 227.480   8
  -3  -2  -2 925.240 305.571  12
   3  -2   2 766.345 356.725   7
  -3   2  -2 239.612 213.198  12
   3  -2   2 710.340 217.674  11
  -3  -2  -3 50239.0 1678.00   9
   3   2   3 51703.1 2245.09   8
   3  -2   3 50801.2 1443.35   8
  -3  -2  -3 48725.1 2183.24  12
  -3   2  -3 50047.9 2351.75  12
  -3   2  -3 49712.9 2226.49   5
  -3  -2  -3 52051.6 2291.02   5
   3  -2   3 50881.0 2069.52  11
   3   2   3 50102.0 1837.52  10
   3  -2   3 52422.6 2349.90  10
  -3   2  -4 3234.54 717.935   5
  -3  -2  -4 2883.78 794.804   5
   3   2   4 6541.22 826.771   8
  -3  -2  -4 4515.45 780.029  12
  -3   2  -4 3630.17 734.255  12
   3  -2   4 5241.55 737.319  11
   3   2   4 6772.57 828.195  10
   3  -2   4 6779.27 957.848  10
  -3   2  -5 1372.80 530.096   5
  -3  -2  -5 1599.70 505.347   5
  -3  -2  -5 2508.28 603.621  12
  -3   2  -5 2368.21 658.833  12
   3  -2   5 2321.66 620.777  11
   3   2   5 2133.74 510.072  11
   3  -2   5 2397.86 631.813  10
  -3   2  -6 16701.5 1680.39   5
  -3  -2  -6 15294.2 1581.26  12
  -3   2  -6 16190.0 1698.66  12
  -3  -2  -6 16506.2 1666.10   5
   3  -2   6 16962.3 1728.45  11
   3   2   6 16811.8 1499.14  11
   3  -2   6 14452.3 1688.18  10
  -3   3   8 12438.0 1457.81  14
   3   3  -8 16746.4 1875.93   5
   3  -3  -8 14317.6 1726.70   5
  -3  -3   8 17526.4 1955.45  14
  -3  -3   7 314.068 446.754  14
  -3  -3   7 377.106 355.827   9
  -3   3   7 34.1331 178.746  14
   3   3  -7 645.492 502.887   5
   3  -3  -7 334.997 376.758   5
   3   3  -7 146.126 326.291   7
  -3  -3   6 45906.2 2567.89   9
   3   3  -6 44282.8 2272.34   7
   3   3  -6 43532.2 2612.92   5
   3  -3  -6 47463.4 2674.33   5
  -3   3   6 39771.6 2064.57  14
  -3  -3   6 46284.2 2783.00  14
  -3   3   6 49017.4 1942.11  11
   3  -3  -6 42550.1 2736.58   7
  -3  -3   5 41791.7 2244.79   9
  -3   3   5 42232.4 1524.16   9
  -3  -3   5 41236.6 2357.23   6
  -3   3   5 42111.9 2418.06   6
  -3  -3   5 37517.2 2319.84  14
  -3   3   5 38156.1 1802.59  14
   3   3  -5 43199.9 1386.87  12
   3   3  -5 39088.5 1980.60   7
   3  -3  -5 37483.5 2366.32   7
  -3   3   5 42792.9 1502.31  11
  -3  -3   4 152798. 4102.94   9
  -3  -3   4 148440. 4078.84   6
  -3   3   4 156629. 4248.36   6
  -3   3   4 152587. 2714.52   9
  -3   3   4 146508. 3134.70  14
  -3  -3   4 153897. 4275.07  14
   3   3  -4 154023. 2266.71  12
   3   3  -4 149287. 3610.54   7
   3  -3  -4 144608. 4271.87   7
  -3   3   4 147349. 2070.01  11
  -3  -3   3 2988.85 579.620   9
   3   3  -3 2601.40 472.116   3
  -3   3   3 2834.14 593.378   6
  -3  -3   3 2557.50 541.019   6
  -3   3   3 2454.78 418.046   2
   3   3  -3 2373.73 291.191  12
   3   3  -3 3139.35 564.586   7
   3   3  -3 1266.90 325.162  13
   3  -3  -3 2490.10 573.553   7
  -3   3   2 65229.8 2289.63   6
  -3  -3   2 63577.9 2242.74   6
   3  -3  -2 65989.5 1398.14   3
  -3  -3   2 62368.2 2403.92   9
   3   3  -2 67865.1 1857.02   3
   3   3  -2 58563.4 2450.33   8
  -3   3   2 69469.0 2117.74   2
   3   3  -2 67575.4 1835.50  13
   3   3  -2 60845.6 1268.00  12
   3   3  -2 63392.1 2190.36   7
   3  -3  -2 63215.1 2484.84   7
  -3   3   1 25644.5 1377.78   6
  -3  -3   1 23695.2 1329.22   6
  -3  -3   1 22624.8 1383.41   9
   3   3  -1 22271.3 1499.73   8
  -3   3   1 25379.3 1280.88   2
   3   3  -1 25127.9 1433.16   7
   3   3  -1 23965.7 922.007  12
   3  -3  -1 23889.4 1452.60   7
  -3   3   0 59793.4 1445.85   3
  -3  -3   0 53770.8 2028.83   9
   3   3   0 55409.0 2372.01   8
  -3   3   0 56638.2 1850.10   2
   3   3   0 55685.3 2296.28   7
   3  -3   0 56958.4 2246.50   7
  -3   3   0 56901.1 2247.95  12
   3  -3   0 59446.4 1504.89  11
  -3   3   0 60314.6 2072.84   6
  -3  -3   0 57523.6 2056.18   6
  -3  -3  -1 14501.0 1014.29   9
   3   3   1 14968.7 1250.07   8
  -3   3  -1 13931.5 919.051   2
   3   3   1 14191.7 1247.17   7
  -3  -3  -1 15619.4 1072.00  12
   3  -3   1 16099.5 1237.97   7
  -3   3  -1 15079.4 1216.79  12
   3  -3   1 15999.5 955.547  11
  -3   3  -1 14366.9 1074.98   5
  -3  -3  -1 14894.7 1117.04   6
   3  -3   1 16181.1 1074.52  10
  -3  -3  -2 64552.7 2112.42   9
   3   3   2 67039.3 2658.09   8
   3  -3   2 65608.7 2645.22   7
  -3  -3  -2 66534.3 2403.51  12
  -3   3  -2 66562.5 2687.46  12
  -3   3  -2 69285.3 2442.29   5
  -3  -3  -2 66437.4 2470.93   5
   3  -3   2 66939.5 2214.66  11
   3  -3   2 66850.9 2480.68  10
   3   3   2 63272.3 1675.71  10
   3   3   3 818.954 263.992  10
   3  -3   3 398.605 286.319  10
  -3   3  -3 729.290 342.705   5
  -3  -3  -3 1729.38 473.971   5
  -3  -3  -3 241.415 154.928   9
   3   3   3 929.433 379.283   8
  -3  -3  -3 128.816 249.018  12
  -3   3  -3 586.546 329.993  12
   3  -3   3 1016.18 433.721  11
   3   3   3 607.281 246.640   1
   3   3   4 20819.6 1576.49   8
  -3  -3  -4 15613.1 1428.61  12
  -3   3  -4 16050.1 1522.33  12
  -3   3  -4 16669.9 1439.41   5
  -3  -3  -4 16672.2 1453.42   5
   3  -3   4 20762.4 1611.49  11
   3  -3   4 20694.6 1771.54  10
  -3   3  -5 1867.56 570.489   5
  -3  -3  -5 2770.78 682.181   5
   3   3   5 2414.21 562.502   8
  -3   3  -5 2625.49 687.856  12
  -3  -3  -5 2716.06 657.382  12
   3  -3   5 2578.72 663.081  11
   3  -3   5 2240.71 693.564  10
  -3   3  -6 2798.42 705.813   5
  -3  -3  -6 2673.10 716.765   5
   3  -3   6 3019.48 806.992  11
   3  -3   6 3124.58 818.289  10
  -3   4   8 2861.94 646.152  14
   3   4  -8 6699.73 1204.06   5
   3  -4  -8 5926.72 1073.80   5
   3   4  -7 9673.98 1388.80   5
   3  -4  -7 9479.92 1391.59   5
   3  -4  -7 6869.75 1238.12   7
  -3  -4   6 7905.55 1154.57   9
   3  -4  -6 5840.99 1014.56   5
  -3   4   6 3927.05 633.748  14
   3   4  -6 6004.55 790.053   7
   3   4  -6 6904.71 1028.79   5
   3  -4  -6 5962.85 1123.24   7
  -3  -4   5 116176. 4014.36   9
  -3   4   5 123789. 2504.33   9
  -3  -4   5 113684. 3905.63   6
  -3   4   5 118797. 4086.36   6
  -3   4   5 99564.0 2883.32  14
   3   4  -5 109720. 2532.42  12
   3   4  -5 106628. 3090.52   7
   3  -4  -5 103998. 4051.46   7
  -3   4   4 443.853 235.598   2
  -3  -4   4 705.347 369.109   9
   3   4  -4 762.134 363.628   3
  -3  -4   4 747.201 287.716   6
  -3   4   4 698.935 368.372   6
   3   4  -4 313.468 207.320   8
   3   4  -4 669.146 232.770  12
  -3   4   4 721.782 149.067  11
   3   4  -4 780.691 311.065   7
   3  -4  -4 938.171 399.925   7
  -3   4   3 2423.23 454.859   2
  -3  -4   3 2228.53 624.029   9
   3   4  -3 2658.01 506.641   3
  -3   4   3 2335.01 503.875   6
  -3  -4   3 2346.12 546.475   6
   3   4  -3 2610.32 557.369   8
   3   4  -3 1790.69 382.739  13
   3   4  -3 3076.79 500.062   7
   3  -4  -3 2262.32 585.913   7
   3  -4  -2 41538.0 1351.08   3
  -3   4   2 42949.5 1877.52   6
  -3  -4   2 40013.9 1789.71   6
  -3  -4   2 40328.7 2077.15   9
   3   4  -2 37195.9 2026.24   8
  -3   4   2 38534.1 703.724  13
   3   4  -2 42406.1 1697.78  13
  -3   4   2 43811.7 1792.42   2
   3   4  -2 40817.1 1353.50  12
   3   4  -2 40803.2 1758.07   7
   3  -4  -2 38408.8 1985.06   7
  -3   4   1 91092.3 2609.63   6
  -3  -4   1 85869.8 2554.81   6
  -3  -4   1 75802.3 2732.46   9
   3   4  -1 79712.8 2967.81   8
   3   4  -1 86678.2 2134.17  13
   3   4  -1 84046.6 2633.49   7
  -3   4   1 89760.1 2451.01   2
   3  -4  -1 81552.6 2750.57   7
  -3  -4   0 21287.2 1408.17   9
  -3   4   0 24166.3 1055.07   3
   3   4   0 22604.3 1594.61   8
   3   4   0 22107.3 1450.46   7
  -3   4   0 23033.2 1235.96   2
   3  -4   0 22175.9 1404.86   7
  -3   4   0 22974.9 1306.32   6
  -3  -4   0 21951.4 1311.88   6
  -3  -4  -1 83750.2 2702.22   9
   3   4   1 86335.2 3150.39   8
  -3   4  -1 87440.6 2337.74   2
   3  -4   1 86010.6 2846.12   7
  -3   4  -1 91172.6 3250.75  12
   3  -4   1 85910.8 2369.91  11
  -3   4  -1 85237.2 2558.90   6
  -3  -4  -1 84723.7 2617.82   6
  -3   4  -1 82942.5 2305.55   3
   3  -4   1 82240.8 2603.24  10
   3   4   2 50.3463 110.375  10
   3  -4   2-253.509 263.812  10
  -3   4  -2 471.989 261.663   5
  -3  -4  -2 132.386 246.534   5
  -3   4  -2 112.519 126.695   2
  -3  -4  -2-282.258 269.239   9
   3   4   2 313.035 284.157   8
   3   4   2-0.99684 189.880   1
  -3  -4  -2 250.328 221.860  12
  -3   4  -2 4.71721 275.410  12
   3  -4   2 121.497 192.425   7
   3  -4   2 272.620 236.283  11
  -3  -4  -3 69002.7 2339.29   9
   3   4   3 71175.7 2545.18   1
   3   4   3 71813.6 3008.02   8
  -3   4  -3 74538.9 2066.44   2
  -3  -4  -3 72946.5 2929.51  12
  -3   4  -3 70464.6 3153.43  12
  -3   4  -3 73154.3 2668.87   5
  -3  -4  -3 73104.0 2763.06   5
   3  -4   3 74839.9 2841.70  11
   3  -4   3 70602.1 3020.91  10
  -3   4  -4 3892.15 759.150   5
  -3  -4  -4 2292.48 646.554   5
   3   4   4 5036.09 884.418   8
  -3  -4  -4 1773.63 667.639  12
  -3   4  -4 2625.36 665.949  12
   3  -4   4 4861.60 826.580  11
   3  -4   4 5369.73 968.515  10
   3   4   5 10731.7 1285.09   8
  -3  -4  -5 8438.61 1181.25  12
  -3   4  -5 8177.98 1196.28  12
  -3   4  -5 9303.65 1164.17   5
  -3  -4  -5 10837.1 1246.93   5
   3  -4   5 10559.5 1309.09  11
   3  -4   5 9051.59 1328.45  10
  -3   4  -6 11627.4 1423.11   5
  -3  -4  -6 11371.2 1381.67   5
   3  -4   6 12054.2 1581.46  11
   3   5  -8 1938.85 597.062   5
   3  -5  -8 1764.02 593.339   5
  -3   5   7 197.621 254.985  14
   3   5  -7 527.133 446.558   5
   3  -5  -7 873.676 488.122   5
   3  -5  -7 507.449 467.258   7
  -3  -5   6 6891.62 1183.78   9
   3   5  -6 5933.85 831.649   8
   3   5  -6 7486.63 1071.81   5
  -3   5   6 7245.82 878.449  14
   3  -5  -6 6962.66 1204.25   7
   3  -5  -6 5568.67 969.554   5
   3   5  -6 5980.64 943.783   1
   3   5  -6 6693.69 1009.14   3
  -3  -5   5 18977.4 1736.04   9
   3   5  -5 17793.1 1557.63   1
  -3   5   5 20165.1 1006.05   9
  -3  -5   5 19070.4 1611.65   6
  -3   5   5 20185.1 1699.67   6
   3   5  -5 16288.0 1380.85   8
  -3   5   5 21172.1 1445.56   2
   3  -5  -5 15653.2 1622.52   7
   3   5  -5 19484.3 1574.69   3
   3   5  -4 50720.1 2325.74   3
  -3  -5   4 51376.1 2716.39   9
  -3  -5   4 51249.1 2419.83   6
  -3   5   4 56587.3 2584.21   6
   3   5  -4 47159.8 2344.86   8
  -3   5   4 55220.2 2265.28   2
   3   5  -4 49779.3 1852.75   7
   3   5  -4 45717.6 1815.72  12
   3  -5  -4 46661.6 2589.73   7
  -3  -5   3 703.126 399.859   9
  -3   5   3 468.466 274.651   2
  -3   5   3 1195.81 448.401   6
  -3  -5   3 1031.12 381.815   6
   3   5  -3 957.460 366.349   3
   3   5  -3 919.133 315.191   8
   3   5  -3 259.394 179.513  13
   3   5  -3 786.149 261.605   7
   3  -5  -3 627.204 415.140   7
  -3  -5   2 2537.24 606.630   9
  -3   5   2 2320.84 502.992   2
  -3   5   2 2748.08 519.998   6
  -3  -5   2 2775.51 548.081   6
   3   5  -2 2127.89 540.469   8
  -3   5   2 2372.48 246.500  13
   3   5  -2 2510.88 462.536  13
   3   5  -2 2218.65 437.056   7
   3  -5  -2 1817.69 475.293   7
  -3   5   1 7536.76 768.624   6
  -3  -5   1 6923.95 729.156   6
  -3  -5   1 6979.19 903.459   9
   3   5  -1 6572.96 889.026   8
   3   5  -1 8172.53 767.709  13
   3   5  -1 7643.80 829.738   7
   3  -5  -1 7211.72 853.198   7
  -3   5   1 7933.49 788.881   2
  -3   5   1 7003.23 370.432  11
  -3  -5   0 3810.46 653.455   9
   3   5   0 4270.19 760.640   1
   3   5   0 3841.61 697.166   8
   3  -5   0 5189.78 695.533   7
  -3   5   0 4750.11 623.778   2
  -3   5   0 4813.62 406.226  11
   3   5   0 4221.39 453.837  10
   3  -5   0 4197.82 592.651  10
  -3   5   0 5492.43 659.474   6
  -3  -5   0 4717.40 617.192   6
  -3   5  -1 24540.8 1335.67   3
  -3  -5  -1 22169.8 1497.55   9
   3   5   1 22521.7 1729.26   8
   3  -5   1 24079.8 1496.14   7
   3   5   1 25056.1 1743.52   1
  -3   5  -1 26103.4 1914.56  12
  -3   5  -1 24691.5 1314.56   2
  -3   5  -1 25531.4 1405.78   6
   3  -5   1 22649.6 1469.62  10
  -3  -5  -1 23928.7 1397.83   6
  -3  -5  -2 8407.77 905.130   9
   3   5   2 8548.68 982.175   1
   3   5   2 9370.89 1138.98   8
   3  -5   2 9648.04 1027.58   7
  -3   5  -2 9630.89 824.599   2
  -3   5  -2 8778.37 1132.98  12
   3  -5   2 9199.53 948.547  11
  -3   5  -2 9559.99 927.622   5
  -3  -5  -2 8394.13 898.853   5
  -3   5  -2 7360.52 845.427   3
   3  -5   2 8869.97 1031.98  10
   3  -5   3 84.9222 239.551  10
  -3   5  -3-324.254 234.865   5
  -3  -5  -3 173.517 247.805   5
  -3   5  -3 43.1124 169.899   2
   3   5   3 139.935 224.786   1
   3   5   3 121.088 278.723   8
  -3   5  -3 114.268 379.106  12
   3  -5   3 286.645 311.386  11
  -3   5  -4 1179.99 410.879   5
  -3  -5  -4 1056.11 439.619   5
   3   5   4 1072.81 435.090   8
  -3  -5  -4 1245.99 529.238  12
  -3   5  -4 2094.28 636.509  12
   3  -5   4 1591.70 548.220  11
   3  -5   4 1151.52 513.857  10
  -3   5  -5 135.794 277.784   5
  -3  -5  -5 1052.91 465.178   5
   3   5   5 418.468 340.150   8
  -3  -5  -5-291.630 338.833  12
  -3   5  -5 128.661 390.424  12
   3  -5   5 63.1472 277.675  11
   3  -5   5 547.072 487.537  10
   3   6  -8 6013.27 1089.71   5
   3   6  -7 5885.52 1080.86   3
  -3   6   7 6316.53 935.361  14
   3   6  -7 5863.73 1021.70   5
   3  -6  -7 5244.05 975.829   5
   3  -6  -7 4868.03 1141.29   7
  -3   6   6 694.096 221.018   2
   3   6  -6 279.592 311.423   3
  -3   6   6 1763.29 501.922  14
   3   6  -6 848.386 411.313   1
   3   6  -6 668.269 455.157   5
   3  -6  -6 737.393 360.993   5
   3  -6  -6 1153.47 553.223   7
   3   6  -5 3364.00 760.163   1
  -3   6   5 3730.56 645.838   2
  -3  -6   5 3389.81 863.502   9
   3   6  -5 3391.91 710.954   3
   3   6  -5 3673.52 704.907   8
   3   6  -5 3417.54 694.567   5
   3  -6  -5 3479.34 676.043   5
   3  -6  -5 2251.35 732.055   7
  -3  -6   4 422.846 393.677   9
  -3   6   4 80.2992 170.180   2
   3   6  -4 48.3493 217.992   1
   3   6  -4 214.605 252.062   3
  -3  -6   4 816.407 401.015   6
  -3   6   4 133.250 221.099   6
   3   6  -4 503.812 286.092   8
   3  -6  -4 124.324 251.628   7
   3  -6  -3 41893.8 2472.31   7
  -3  -6   3 42094.6 2605.93   9
  -3  -6   3 46851.1 2152.11   6
  -3   6   3 46227.2 2215.60   6
   3   6  -3 38825.3 2083.06   3
   3   6  -3 43582.7 2352.86   8
   3   6  -3 41388.0 2127.64  13
  -3   6   3 42596.2 2028.00   2
   3   6  -3 42506.3 2472.62   1
  -3  -6   2 22888.2 1872.77   9
  -3   6   2 28004.9 1571.73   6
  -3  -6   2 25009.3 1452.72   6
   3   6  -2 21917.0 1695.66   8
  -3   6   2 28423.3 963.535  13
   3   6  -2 25810.0 1493.98  13
   3   6  -2 24777.3 1326.78   7
   3  -6  -2 25827.3 1725.76   7
   3   6  -2 24495.8 1866.76   1
  -3   6   2 27935.1 1620.50   2
   3  -6  -1 429.508 152.884  10
  -3  -6   1 2481.21 640.663   9
  -3   6   1 1745.61 389.542   6
  -3  -6   1 1717.60 357.208   6
  -3   6   1 2885.47 555.379   2
   3   6  -1 2057.62 548.785   1
   3   6  -1 1478.72 470.704   8
   3   6  -1 3809.21 577.997  13
   3  -6  -1 2075.72 490.728   7
  -3   6   0 10366.4 887.731   6
  -3  -6   0 8672.88 836.565   6
  -3  -6   0 8118.56 1022.51   9
   3   6   0 10940.6 1258.54   8
   3   6   0 9371.72 1133.14   1
  -3  -6   0 8660.51 1239.76   4
   3  -6   0 8498.05 907.481   7
  -3   6   0 9941.90 947.831   2
   3  -6   0 7289.05 793.608  10
   3  -6   1 1191.22 527.960  10
  -3  -6  -1 2083.71 1019.04   9
   3   6   1 523.543 403.336   1
  -3   6  -1 499.623 369.230   6
  -3  -6  -1 1211.31 466.405   6
  -3   6  -1 816.209 386.164   2
  -3   6  -1 580.228 394.459   3
   3   6   1 585.465 447.493   8
   3  -6   1 634.897 336.492   7
  -3  -6  -1 196.577 720.770   4
   3  -6   2 2317.96 568.434  10
  -3  -6  -2 1726.49 490.636   9
  -3   6  -2 2078.82 462.481   6
  -3  -6  -2 1816.78 447.631   6
  -3   6  -2 2127.40 443.601   3
  -3   6  -2 2023.80 402.698   2
   3   6   2 2944.60 735.028   8
   3   6   2 3047.66 658.001   1
  -3   6  -2 2667.11 775.324  12
   3  -6   2 2693.33 528.912   7
  -3  -6  -2 1824.16 718.314   4
   3  -6   3 2840.07 713.902  10
  -3   6  -3 2669.29 575.857   5
  -3  -6  -3 2417.14 595.601   5
  -3   6  -3 1873.47 474.076   3
  -3   6  -3 2836.07 493.472   2
   3   6   3 3149.38 771.105   8
  -3   6  -3 2539.13 714.546  12
   3  -6   3 2658.95 644.128  11
  -3  -6  -3 2251.93 673.489   4
  -3   6  -4 3544.42 761.847   5
  -3  -6  -4 2103.83 607.557   5
   3   6   4 4630.64 928.920   8
  -3   6  -4 2697.40 826.767  12
   3  -6   4 4884.46 867.487  11
  -3   6  -4 1370.38 481.749   3
   3  -6   4 5072.77 1042.14  10
  -3   6  -5 1367.41 443.981   5
  -3  -6  -5 1332.80 419.820   5
   3   6   5 872.305 502.772   8
   3  -6   5 1458.72 594.647  11
   3  -7  -7 1706.58 639.431   4
  -3   7   6 3962.24 765.410   2
   3   7  -6 2812.77 720.568   3
   3   7  -6 3906.12 804.291   1
   3  -7  -6 3039.05 844.183   7
   3   7  -5 11540.8 1318.21   3
   3   7  -5 10244.1 1319.60   1
   3   7  -5 9003.56 1083.89   8
  -3   7   5 12137.2 1222.78   2
   3  -7  -5 9411.37 1336.01   7
  -3  -7   4 1957.05 630.606   9
  -3   7   4 2577.51 566.866   2
   3   7  -4 1752.01 522.242   3
   3   7  -4 1657.26 558.920   1
   3   7  -4 1326.38 463.498   8
   3   7  -4 605.112 360.173  13
   3  -7  -4 923.827 337.874   7
  -3  -7   3 446.111 387.615   9
  -3   7   3 710.208 394.681   2
   3   7  -3-137.714 243.552   8
   3   7  -3 433.736 351.147  13
   3   7  -3 279.329 222.426   1
   3  -7  -3 160.147 211.594   7
  -3  -7   2 14676.1 1611.44   9
   3   7  -2 15671.8 1470.46   8
   3   7  -2 15957.9 1579.87   1
   3   7  -2 17426.8 1322.70  13
   3  -7  -2 15166.5 1361.06   7
  -3   7   2 19398.3 1409.72   2
   3  -7  -1 233.509 137.865  10
  -3  -7   1 1925.96 576.755   9
   3   7  -1 935.562 464.703   1
  -3   7   1 1304.85 431.055   2
   3   7  -1 1565.19 540.856   8
   3   7  -1 2116.44 478.753  13
  -3  -7   1 752.554 422.165   4
   3  -7  -1 2119.72 534.552   7
   3  -7   0 2993.27 565.673  10
  -3  -7   0 2971.70 724.464   9
   3   7   0 5820.57 1139.22   8
  -3   7   0 3841.73 623.973   2
   3   7   0 5216.54 904.287   1
   3  -7   0 4163.81 629.224   7
  -3  -7   0 4528.16 981.206   4
  -3  -7  -1 19215.8 1596.51   9
   3   7   1 19674.9 1726.60   8
  -3  -7  -1 18669.4 1908.88   4
  -3   7  -1 21121.3 1406.30   2
   3  -7   1 18650.5 1544.79  10
   3   7   1 21243.4 1762.04   1
   3  -7   2 3220.34 756.734  10
  -3  -7  -2 3512.03 666.590   9
  -3   7  -2 4148.76 709.122   3
   3   7   2 4436.21 850.436   8
  -3   7  -2 3251.96 847.875  12
  -3   7  -2 4763.33 690.775   2
   3   7   2 3082.35 699.147   1
  -3  -7  -2 3595.60 866.277   4
  -3   7  -3 358.404 309.408   3
  -3   7  -3-91.8315 190.363   2
   3   7   3-414.130 383.077   8
  -3   7  -3 265.318 346.658  12
  -3  -7  -3-173.419 289.057   4
   3  -7   3-27.5213 330.522  10
  -3   7  -4 3574.45 724.877   3
   3   7   4 7456.86 1225.53   8
  -3   7  -4 4550.52 1070.12  12
  -3  -7  -4 5263.01 1160.59   4
   3  -7   4 7661.02 1313.44  10
  -3   7  -5-83.4284 261.049   3
  -3   8   6 2833.01 666.407   2
   3   8  -6 1853.81 642.767   1
   3  -8  -6 1270.80 597.712   7
  -3   8   5 2900.40 679.049   2
   3   8  -5 3601.59 826.101   3
   3   8  -5 4078.48 882.221   1
   3  -8  -5 2769.57 804.429   7
  -3   8   4 443.060 291.633   2
   3   8  -4 306.459 311.933   3
   3   8  -4 146.161 238.540  13
   3   8  -4 171.604 294.623   1
   3  -8  -4-370.803 283.081   7
  -3  -8   3 9472.68 1460.38   9
   3   8  -3 11958.7 1459.44   1
   3   8  -3 10070.1 1229.92   8
   3   8  -3 9793.13 1169.54  13
   3  -8  -3 9439.23 1270.83   7
  -3   8   3 10004.4 1119.61   2
  -3  -8   2 8889.21 1303.44   9
   3   8  -2 6612.49 1003.25   8
   3   8  -2 6891.28 925.468  13
   3  -8  -2 6624.93 914.443   7
   3   8  -2 5949.09 1037.83   1
  -3   8   2 8968.87 1020.28   2
  -3  -8   2 5470.98 1128.51   4
   3  -8  -2 6494.20 781.549  10
   3  -8  -1-113.717 245.641  10
  -3  -8   1-376.787 393.245   9
  -3   8   1 301.417 268.011   2
   3   8  -1 385.984 337.359   8
   3   8  -1 481.766 367.616  13
   3   8  -1 35.9358 396.939   1
  -3  -8   1 258.091 445.878   4
   3  -8   0 3682.08 690.728  10
  -3  -8   0 3067.80 749.245   9
   3   8   0 5517.04 1046.17   1
  -3   8   0 4141.44 677.086   2
   3   8   0 4937.02 981.392   8
  -3  -8   0 4353.68 1022.20   4
  -3  -8  -1 2846.07 1029.21   9
  -3   8  -1 1764.63 465.757   2
   3   8   1 1135.29 482.353   8
   3   8   1 1614.47 600.110   1
  -3  -8  -1 1884.58 733.237   4
   3  -8   2 508.310 342.306  10
   3  -8   2 1103.41 559.066   4
  -3   8  -2 973.280 363.765   3
  -3   8  -2 1330.61 433.057   2
   3   8   2 1396.12 546.485   8
  -3   8  -2 1102.27 597.073  12
  -3  -8  -2 830.705 346.935   4
  -3   8  -3 1387.11 510.262   3
   3   8   3 1547.92 625.897   8
  -3   8  -3 1968.66 796.988  12
  -3  -8  -3 2709.89 875.880   4
   3  -8   3 1416.90 555.972  10
  -3   8  -4 599.433 358.296   3
  -3  -8  -4 2068.71 891.073   4
   3  -9  -5 9528.85 1430.77   7
  -3   9   4 28354.4 1997.94   2
   3  -9  -4 22312.2 2015.43   7
   3   9  -4 22621.6 2118.46   1
   3   9  -3 773.158 464.099   1
  -3   9   3-52.3357 224.206   2
   3   9  -3 669.461 412.764   8
   3   9  -3 453.075 395.429  13
   3   9  -2 1763.55 683.170   1
  -3   9   2 1903.09 534.348   2
   3   9  -2 947.074 452.257   8
   3   9  -2 1949.67 569.762  13
  -3  -9   2 1726.70 758.393   4
   3  -9  -1-337.065 361.730  10
   3   9  -1 440.339 387.132   1
  -3   9   1-471.140 304.903   2
   3   9  -1 247.579 331.703   8
   3   9  -1 624.005 403.761  13
  -3  -9   1-522.956 471.617   4
   3   9   0 12819.3 1546.55   8
  -3  -9   0 13546.7 1850.76   4
  -3   9   0 14654.8 1350.54   2
   3  -9   0 13173.7 1348.98  10
   3   9   1 7338.42 1182.21   8
   3  -9   1 7084.53 1162.47   4
  -3  -9  -1 5936.59 1265.97   4
  -3   9  -1 8661.79 1045.35   2
   3  -9   1 6989.07 1100.48  10
  -3   9  -2 4599.86 744.400   2
  -3  -9  -2 3571.54 992.545   4
   3  -9   2 3940.85 839.507  10
  -3   9  -3 823.413 416.066   3
   3  10  -3 8130.54 1225.21   8
   3  10  -2 2559.17 653.200   8
  -3 -10   2 1730.39 740.560   4
   3 -10  -1 17386.0 1980.47   4
   3  10  -1 14884.2 1715.31   8
   3 -10   0 697.389 646.201   4
   3 -10   1 25293.3 2360.47   4
   3 -10   1 25507.1 2205.42  10
  -4   0   8 385.962 413.063  14
   4   0  -8 1180.71 804.251   5
   4   0  -8 1563.05 634.934   7
  -4   0   7 1196.77 440.757   9
  -4   0   7 1552.27 612.666   6
  -4   0   7 460.893 355.498  14
   4   0  -7 669.960 394.942   7
  -4   0   6 96179.7 3327.95   9
  -4   0   6 96030.4 4124.20   6
  -4   0   6 90124.3 3616.86  14
  -4   0   5 78450.4 2821.26   9
  -4   0   5 74125.8 3333.55   6
  -4   0   5 71130.2 2899.96  14
   4   0  -5 80004.1 1722.67  13
   4   0  -5 70870.0 3173.89   7
  -4   0   4 14748.4 1497.29   6
  -4   0   4 14274.7 1224.30   9
  -4   0   4 13274.6 1149.01  14
   4   0  -4 14279.9 564.438  13
   4   0  -4 16446.3 1497.01   7
  -4   0   3 59511.7 2575.89   6
  -4   0   3 56841.6 2174.94   9
  -4   0   3 55531.0 2129.29  14
   4   0  -3 54945.9 2560.79   7
   4   0  -3 56746.6 1631.71  11
   4   0  -3 53776.3 1064.73   3
  -4   0   2 40367.7 2044.28   6
  -4   0   2 39895.3 1741.24   9
  -4   0   2 36659.6 1602.33  14
  -4   0   2 37448.3 820.493  12
   4   0  -2 39321.8 2110.99   7
  -4   0   1 22799.1 1254.26   9
  -4   0   1 21867.6 1118.69  14
  -4   0   1 22518.5 949.295  12
   4   0  -1 24504.6 1855.58   7
  -4   0   1 23172.6 1530.63   6
  -4   0   0 22544.9 1253.31   9
  -4   0   0 20692.6 971.840  14
   4   0   0 17785.4 1521.51   7
  -4   0   0 23045.8 1180.39  12
  -4   0   0 19970.4 1476.75   6
  -4   0  -1 31391.9 1428.31   9
   4   0   1 27216.5 1670.19   8
   4   0   1 27739.0 1889.36   7
  -4   0  -1 26445.6 1444.04  12
  -4   0  -1 29292.1 1773.09   6
  -4   0  -2 96891.1 2538.24   9
   4   0   2 94890.5 3064.16   8
   4   0   2 96311.9 3773.05   7
  -4   0  -2 93558.7 2998.47  12
  -4   0  -2 97429.7 3348.31   5
   4   0   2 94362.4 2770.39  10
   4   0   3 1202.67 406.293  10
  -4   0  -3 1910.88 527.671   5
  -4   0  -3 1521.08 379.069   9
   4   0   3 2362.70 519.418   8
  -4   0  -3 1382.33 435.628  12
   4   0   3 1794.26 427.703  11
   4   0   4 4695.63 811.731  10
  -4   0  -4 3655.08 749.068   5
  -4   0  -4 4132.42 574.364   9
  -4   0  -4 3505.74 700.868  12
   4   0   4 3829.29 629.546  11
  -4   0  -5 5187.23 940.925   5
  -4   0  -5 6308.70 1026.48  12
   4   0   5 6429.34 938.453  11
   4   0   5 4225.91 765.129  10
   4   1  -9 2847.51 800.944   7
   4   1  -8 12691.7 1688.71   5
   4  -1  -8 12574.4 1691.08   5
  -4   1   8 14551.4 1716.13  14
  -4  -1   8 14408.4 1745.30  14
   4   1  -8 11781.2 1503.11   7
   4  -1  -8 11327.2 1603.65   7
  -4  -1   7 10309.5 1656.64   6
  -4   1   7 9559.68 1694.50   6
  -4  -1   7 3386.10 858.953   9
  -4  -1   7 2421.92 763.940  14
  -4   1   7 2664.83 723.543  14
   4   1  -7 1720.06 645.075   7
   4  -1  -7 2262.84 766.966   7
  -4  -1   6 4519.16 759.749   9
  -4   1   6 4254.67 677.592   9
  -4  -1   6 4376.16 899.478   6
  -4   1   6 4842.83 951.208   6
  -4   1   6 4561.45 797.087  14
  -4  -1   6 4088.18 809.598  14
   4   1  -6 3626.17 803.405   7
   4  -1  -6 4118.13 865.069   7
  -4  -1   5 90215.0 3225.77   9
  -4   1   5 90139.2 2880.11   9
  -4  -1   5 84488.7 3580.52   6
  -4   1   5 85735.0 3617.15   6
  -4   1   5 83465.3 3085.01  14
  -4  -1   5 86114.4 3325.42  14
   4   1  -5 84740.6 3396.00   7
   4  -1  -5 81981.7 3524.28   7
  -4   1   4 15127.6 1480.81   6
  -4  -1   4 16741.1 1559.03   6
  -4  -1   4 17034.4 1334.02   9
  -4   1   4 17618.7 1232.59   9
  -4   1   4 14939.4 1177.71  14
  -4  -1   4 13136.4 1234.58  14
   4   1  -4 14516.7 756.762  13
   4   1  -4 15888.0 1466.31   7
   4  -1  -4 17607.9 1577.93   7
  -4  -1   3 700.389 239.145  14
  -4  -1   3 931.339 339.740   9
  -4   1   3 687.685 299.799   9
  -4   1   3 1456.97 486.811   6
  -4  -1   3 758.156 460.087   6
   4   1  -3 989.714 188.586   3
  -4   1   3 868.886 274.728  14
  -4   1   3 426.852 127.455  12
  -4   1   3 661.128 145.122  12
   4  -1  -3 1024.65 180.184  11
   4   1  -3 555.365 319.182   7
   4  -1  -3 87.6328 218.165   7
  -4  -1   2 82.6436 205.317   9
  -4   1   2 530.535 264.012   9
  -4   1   2 453.047 260.089   6
  -4  -1   2 302.119 237.953   6
  -4   1   2 480.535 200.877  14
  -4  -1   2 272.024 193.993  14
  -4   1   2 369.584 96.4664  13
  -4   1   2 546.576 187.213  12
   4   1  -2 841.823 402.811   7
   4  -1  -2 799.850 400.112   7
  -4   1   1 5148.85 630.644   9
  -4   1   1 4576.69 718.759   6
  -4  -1   1 4026.79 715.831   6
  -4  -1   1 4365.68 594.407   9
  -4   1   1 3514.44 422.243  14
  -4  -1   1 4751.47 571.076  14
  -4  -1   1 5002.68 428.634  12
  -4   1   1 4267.25 474.008  12
   4   1  -1 4660.85 499.043  12
   4   1  -1 3315.49 734.925   7
   4  -1  -1 4358.60 826.470   7
   4   1   0 69491.9 2922.17   7
  -4  -1   0 72067.2 2301.91   9
   4   1   0 70496.0 2828.24   8
   4   1   0 68852.9 1340.10  14
  -4   1   0 67698.3 1607.74  14
  -4  -1   0 69351.4 1950.65  12
   4  -1   0 69790.1 2862.06   7
  -4   1   0 69037.3 2154.69  12
  -4   1   0 71602.0 2687.49   6
  -4  -1   0 70697.0 2703.22   6
  -4   1  -1 3580.56 655.693   6
  -4  -1  -1 3175.02 654.581   6
  -4  -1  -1 3775.08 512.580   9
   4   1   1 3376.08 627.911   8
   4  -1   1 4006.29 618.424   8
  -4  -1  -1 3115.01 489.391  12
  -4   1  -1 3560.96 564.740  12
   4   1   1 3740.63 749.557   7
   4  -1   1 3692.74 726.898   7
   4  -1   1 3831.19 450.251  11
   4  -1   2 1256.30 397.570  10
   4   1   2 979.951 340.728  10
  -4   1  -2 808.312 370.333   5
  -4  -1  -2 909.007 377.402   5
  -4  -1  -2 1388.40 337.491   9
   4   1   2 1487.84 490.581   8
   4  -1   2 892.545 328.325   8
  -4  -1  -2 1091.75 384.422  12
  -4   1  -2 604.287 300.005  12
   4   1   2 1240.09 472.781   7
   4  -1   2 901.892 504.905   7
   4  -1   2 1225.43 311.567  11
  -4   1  -3 5117.18 864.674   5
  -4  -1  -3 5055.36 903.322   5
  -4  -1  -3 3297.20 542.457   9
  -4  -1  -3 4128.67 757.902  12
  -4   1  -3 4926.83 819.140  12
   4  -1   3 5171.56 670.982  11
   4   1   3 6097.85 744.723  10
   4  -1   3 6269.79 828.590  10
   4  -1   4 4153.10 867.300  10
  -4   1  -4 5070.65 897.374   5
  -4  -1  -4 5174.01 896.209   5
  -4  -1  -4 4232.71 793.555  12
  -4   1  -4 4009.83 788.457  12
   4  -1   4 4978.01 756.144  11
   4   1   4 5004.88 737.527  11
   4   1   4 4913.85 826.738  10
  -4   1  -5 4632.39 943.576   5
  -4  -1  -5 5012.24 941.836   5
  -4  -1  -5 3585.17 810.571  12
  -4   1  -5 3649.23 785.836  12
   4  -1   5 3668.48 721.653  11
   4   1   5 4241.13 749.089  11
   4  -1   5 3548.73 800.390  10
   4  -1   6 11024.6 1484.96  10
  -4   2   8 7672.66 1228.99  14
  -4  -2   8 6266.49 1168.16  14
   4   2  -8 6967.58 1194.66   5
   4  -2  -8 6102.28 1196.22   5
   4   2  -8 5686.90 1041.48   7
   4  -2  -8 5647.17 1181.18   7
  -4  -2   7 4393.25 827.228   9
  -4  -2   7 5520.15 1117.35   6
  -4   2   7 6123.09 1166.05   6
  -4   2   7 4134.50 828.062  14
  -4  -2   7 3920.63 889.853  14
   4   2  -7 3568.88 779.521   7
   4  -2  -7 2970.30 747.437   7
  -4  -2   6 17892.1 1577.99   9
  -4   2   6 19686.5 1367.26   9
  -4  -2   6 20448.3 1915.29   6
  -4   2   6 18933.0 1856.51   6
  -4   2   6 17997.3 1545.08  14
  -4  -2   6 17327.5 1648.81  14
   4   2  -6 17744.4 1608.56   7
   4  -2  -6 16036.8 1709.47   7
  -4  -2   5 96658.2 3509.55   9
  -4   2   5 97047.3 2851.81   9
  -4  -2   5 92340.9 3775.29   6
  -4   2   5 91841.3 3800.45   6
  -4   2   5 88278.3 3048.24  14
  -4  -2   5 90152.9 3530.79  14
   4   2  -5 88176.5 3360.20   7
   4  -2  -5 83769.3 3592.24   7
  -4  -2   4 80325.9 3054.40   9
  -4   2   4 77565.4 3444.80   6
  -4  -2   4 75400.4 3328.40   6
  -4   2   4 70434.8 2312.64   9
  -4   2   4 72895.1 2536.97  14
  -4  -2   4 65249.4 2885.34  14
   4   2  -4 76198.2 2127.99  13
   4   2  -4 79812.3 3138.07   7
   4  -2  -4 80325.3 3470.97   7
   4   2  -4 76504.7 2260.50   3
  -4   2   3 32897.6 1978.33   6
  -4  -2   3 32042.6 1935.91   6
  -4  -2   3 34660.7 1920.80   9
   4   2  -3 36610.6 1262.68   3
  -4   2   3 27581.1 1361.04   9
  -4   2   3 34908.1 1559.05  14
  -4  -2   3 31034.9 1855.26  14
   4   2  -3 34169.8 1210.13  13
   4   2  -3 33892.2 1957.77   7
   4  -2  -3 32996.1 2062.54   7
  -4  -2   2 185.223 317.967   9
  -4   2   2-256.727 355.559   6
  -4  -2   2-316.105 353.659   6
  -4   2   2 515.587 249.377  14
  -4  -2   2 138.245 184.586  14
  -4   2   2 490.735 112.168  13
  -4   2   2 235.095 160.536  12
   4   2  -2 446.828 345.243   7
   4  -2  -2 141.238 226.914   7
  -4  -2   1 42040.1 1946.68   9
   4   2  -1 40713.5 2313.05   8
  -4   2   1 40804.2 1365.77  14
   4   2  -1 39537.3 2141.77   7
   4  -2  -1 41553.0 2217.72   7
   4   2  -1 41588.6 1346.24  12
  -4   2   1 41594.6 1680.40  12
   4  -2  -1 40889.3 937.384  11
  -4  -2   1 39450.2 1338.87   3
  -4   2   1 42932.7 2061.59   6
  -4  -2   1 43590.8 2099.87   6
  -4  -2   0 112411. 3135.80   9
   4   2   0 122093. 3901.46   8
  -4   2   0 112843. 2002.36  14
  -4  -2   0 118608. 2641.42  12
   4   2   0 117011. 3864.17   7
   4  -2   0 113299. 3694.51   7
  -4   2   0 115277. 3033.01  12
   4  -2   0 120059. 2101.96  11
  -4   2   0 121630. 3493.98   6
  -4  -2   0 122818. 3555.63   6
  -4   2  -1 3752.00 669.249   6
  -4  -2  -1 2612.88 623.663   6
  -4  -2  -1 2291.93 429.636   9
   4   2   1 2978.70 650.655   8
  -4  -2  -1 3533.71 535.128  12
  -4   2  -1 2939.67 547.749  12
   4   2   1 2548.71 671.943   7
   4  -2   1 2734.99 669.861   7
   4  -2   1 2416.67 403.461  11
  -4  -2  -2 12339.9 1000.80   9
   4   2   2 12449.7 1232.42   8
   4  -2   2 12311.7 1009.69   8
   4  -2   2 11686.5 1266.05   7
  -4  -2  -2 12468.1 1077.95  12
  -4   2  -2 11704.4 1157.32  12
   4  -2   2 12513.0 975.255  11
  -4   2  -2 12305.8 1250.28   5
  -4  -2  -2 12996.4 1286.33   5
   4  -2   2 14483.5 1223.12  10
   4   2   2 12927.0 946.629  10
   4  -2   3 6065.54 794.895  10
  -4  -2  -3 5865.43 882.164   5
  -4  -2  -3 6271.11 714.958   9
   4   2   3 7348.94 947.093   8
  -4  -2  -3 5953.40 853.543  12
  -4   2  -3 5790.96 908.071  12
  -4   2  -3 5661.91 902.950   5
   4  -2   3 6042.78 745.699  11
   4   2   3 5467.23 696.055  10
   4  -2   4 3636.93 777.054  10
  -4   2  -4 3577.11 714.148   5
  -4  -2  -4 4688.05 851.202   5
   4   2   4 3343.65 694.524   8
  -4  -2  -4 3290.52 711.307  12
  -4   2  -4 4064.31 793.679  12
   4  -2   4 3895.60 675.327  11
  -4   2  -5 3554.96 806.005   5
  -4  -2  -5 3748.36 821.864   5
  -4  -2  -5 3198.93 741.735  12
  -4   2  -5 2986.79 768.366  12
   4  -2   5 3054.86 673.699  11
   4   2   5 3376.19 684.936  11
   4  -2   5 3741.22 859.857  10
   4   3  -8 17789.3 1990.44   5
   4  -3  -8 19100.4 2046.97   5
  -4   3   8 14168.7 1630.04  14
  -4  -3   8 20465.4 2183.76  14
  -4  -3   7 45787.3 2786.92   9
  -4  -3   7 46201.6 3110.20   6
  -4   3   7 47560.0 3181.37   6
  -4   3   7 37825.4 2417.19  14
  -4  -3   7 41854.3 2954.25  14
   4   3  -7 41819.9 2530.20   7
   4  -3  -7 39713.3 2886.41   7
  -4  -3   6 92.7854 250.933   9
  -4   3   6 294.173 242.860   9
  -4  -3   6 719.476 545.308   6
  -4   3   6 771.388 505.992   6
  -4   3   6 63.0554 257.193  14
  -4  -3   6-122.060 362.779  14
   4   3  -6-70.9412 194.796   7
   4  -3  -6 76.4994 337.716   7
  -4  -3   5 3739.89 763.493   9
   4   3  -5 3365.15 587.599   3
  -4   3   5 3441.04 523.730   9
  -4  -3   5 3678.11 785.396   6
  -4   3   5 2872.29 639.463   6
  -4   3   5 3595.08 622.263  14
  -4  -3   5 2845.48 655.515  14
   4   3  -5 4177.95 727.107   7
   4  -3  -5 3393.47 802.708   7
   4   3  -4 23104.6 1331.04   3
  -4  -3   4 25024.2 1833.96   9
  -4   3   4 25570.0 1929.01   6
  -4  -3   4 24666.9 1865.56   6
  -4   3   4 16758.0 1090.09   9
  -4   3   4 20758.4 1330.69  14
  -4  -3   4 21640.0 1740.23  14
   4   3  -4 27543.7 1767.38   7
   4  -3  -4 25851.7 2026.70   7
   4   3  -4 23895.2 1312.42  13
  -4   3   3 39003.1 2177.78   6
  -4  -3   3 38849.7 2176.17   6
  -4  -3   3 37771.1 2171.75   9
   4   3  -3 40784.1 1508.86   3
  -4   3   3 37549.0 1598.01  14
   4   3  -3 39539.8 1465.61  13
   4   3  -3 38816.4 2049.91   7
   4  -3  -3 34586.2 2137.47   7
  -4  -3   2 590.230 341.885   9
  -4   3   2 661.871 224.564   6
  -4  -3   2 681.684 331.203   6
  -4   3   2 1004.33 280.833  14
   4   3  -2 1226.88 421.976   8
   4   3  -2 620.568 133.220  12
   4   3  -2 1078.16 426.324   7
   4  -3  -2 767.177 378.881   7
  -4   3   1 43069.8 2087.99   6
  -4  -3   1 42499.0 2100.29   6
  -4  -3   1 38969.1 2019.39   9
   4   3  -1 39765.6 2389.35   8
   4   3  -1 40204.8 2190.81   7
   4   3  -1 41606.8 1403.89  12
   4  -3  -1 40778.0 2251.16   7
  -4   3   1 40983.0 1931.16  12
   4  -3  -1 38053.8 932.561  11
  -4   3   1 41748.9 1352.12  14
  -4  -3   0 83595.6 2856.74   9
  -4   3   0 86167.9 1580.11   3
   4   3   0 83653.7 3314.68   8
  -4   3   0 88420.0 1739.51  14
  -4  -3   0 80703.1 2442.88  12
   4   3   0 87057.1 3315.06   7
   4  -3   0 83057.8 3162.37   7
  -4   3   0 87325.5 2915.15  12
   4  -3   0 87854.5 1977.90  11
  -4   3   0 90157.0 3035.11   6
  -4  -3   0 87900.4 3054.43   6
  -4  -3  -1 87174.8 2854.15   9
   4   3   1 87894.0 3403.96   8
  -4   3  -1 91111.2 1511.58  14
   4   3   1 89901.1 3563.83   7
  -4  -3  -1 92313.7 2815.67  12
   4  -3   1 90212.3 3403.75   7
  -4   3  -1 90720.5 3155.89  12
   4  -3   1 91008.9 2432.98  11
  -4   3  -1 82539.6 2158.61   3
  -4   3  -1 91187.8 3082.49   6
  -4  -3  -1 91322.2 3173.05   6
   4  -3   1 87970.8 2783.35  10
  -4  -3  -2 6472.17 798.637   9
   4   3   2 6622.37 946.714   8
   4  -3   2 8162.52 1097.21   7
  -4  -3  -2 7303.91 889.141  12
  -4   3  -2 7157.36 969.809  12
   4  -3   2 7274.37 803.564  11
  -4   3  -2 7874.58 965.284   5
  -4  -3  -2 5985.14 869.247   5
   4  -3   2 7263.06 920.385  10
   4   3   2 7167.25 669.952  10
  -4  -3  -3 15256.2 1203.89   9
   4   3   3 19708.2 1641.66   8
   4  -3   3 18633.8 1743.61   7
  -4  -3  -3 16915.1 1468.90  12
  -4   3  -3 17507.1 1581.28  12
   4  -3   3 18026.4 1423.68  11
  -4   3  -3 18267.4 1553.38   5
  -4  -3  -3 18173.8 1569.04   5
   4  -3   3 17331.2 1550.16  10
   4  -3   4 1175.43 529.860  10
  -4   3  -4 1172.93 534.582   5
  -4  -3  -4 1002.01 432.599   5
   4   3   4 1084.30 438.786   8
  -4  -3  -4 1073.45 417.140  12
  -4   3  -4 1488.37 559.677  12
   4  -3   4 834.999 356.711  11
  -4  -3  -5 30518.0 2285.43  12
  -4   3  -5 31922.9 2310.82   5
  -4  -3  -5 31402.2 2340.93   5
   4  -3   5 32847.5 2380.16  11
   4  -3   5 33969.0 2582.72  10
  -4  -4   8 18133.9 1939.68   9
   4   4  -8 17135.6 1926.31   5
   4  -4  -8 16078.7 1863.59   5
  -4  -4   7 4503.47 946.488   9
  -4   4   7 3390.01 713.476  14
   4   4  -7 3497.94 759.733   5
   4  -4  -7 5526.44 1042.51   5
   4  -4  -7 3835.16 973.101   7
  -4  -4   6 1505.89 621.313   9
   4   4  -6 471.793 239.246   3
  -4  -4   6 1103.45 663.112   6
  -4   4   6 973.134 593.672   6
  -4   4   6 1045.36 436.303  14
   4   4  -6 595.815 262.439   7
   4  -4  -6 686.836 483.689   7
  -4  -4   5 66939.1 3286.38   9
  -4  -4   5 69588.5 3277.73   6
  -4   4   5 77720.7 3545.13   6
  -4   4   5 71904.0 2286.99   9
  -4   4   5 69908.5 2675.60  14
   4   4  -5 69455.1 2807.04   7
   4  -4  -5 69127.0 3453.64   7
   4   4  -5 71620.8 2792.20   3
   4   4  -4 109358. 3108.26   3
  -4  -4   4 98936.5 3809.85   9
  -4   4   4 115426. 4089.21   6
  -4  -4   4 117874. 4044.49   6
  -4   4   4 85667.0 2443.77   9
   4   4  -4 108084. 3895.35   8
  -4   4   4 91347.0 2734.21  14
   4   4  -4 90334.1 2804.96  13
   4   4  -4 113711. 3519.14   7
   4  -4  -4 105643. 4086.44   7
  -4  -4   3 21525.7 1735.14   9
  -4   4   3 23115.7 1703.21   6
  -4  -4   3 20660.8 1619.81   6
   4   4  -3 19975.3 1680.00   8
  -4   4   3 23651.8 1253.49  14
   4   4  -3 21103.2 1208.36  13
   4   4  -3 20505.8 1472.24   7
   4  -4  -3 20480.6 1696.23   7
  -4   4   2 15912.5 1287.30   6
  -4  -4   2 13454.2 1217.43   6
  -4  -4   2 13338.8 1337.06   9
   4   4  -2 13870.1 1393.21   8
   4   4  -2 13197.6 1215.78   7
   4  -4  -2 13536.2 1323.85   7
  -4   4   1 24809.0 1623.35   6
  -4  -4   1 22059.0 1550.72   6
  -4  -4   1 22698.4 1664.15   9
   4   4  -1 23755.8 1826.73   8
  -4   4   1 24002.7 1435.70   2
   4   4  -1 23582.9 1699.49   7
   4  -4  -1 23571.0 1711.58   7
  -4  -4   0 151479. 4192.45   9
   4   4   0 156960. 4702.86   8
   4   4   0 155288. 4469.27   7
   4  -4   0 150164. 4294.94   7
  -4   4   0 165156. 4411.24  12
   4  -4   0 163586. 2877.88  11
  -4   4   0 169131. 4170.08   6
  -4  -4   0 161214. 4152.15   6
   4  -4   1 761.894 354.510  10
  -4   4  -1 551.544 343.009   6
  -4  -4  -1 167.687 331.232   6
  -4  -4  -1 134.267 188.538   9
  -4   4  -1 454.475 227.711   3
   4   4   1 235.623 229.087   8
  -4   4  -1 322.606 238.225  12
   4  -4   1 438.761 353.708   7
   4  -4   1 211.980 156.072  11
   4  -4   2 40.4451 249.957  10
  -4  -4  -2-389.837 299.021   9
   4   4   2-455.591 328.724   8
  -4  -4  -2 274.727 261.443  12
  -4   4  -2-45.4136 218.320  12
   4  -4   2-67.6874 262.154   7
   4   4   2-226.067 241.250   1
   4  -4   2-36.4213 200.881  11
  -4   4  -2-75.0148 218.061   6
  -4  -4  -2 304.308 230.208   6
   4  -4   3 5233.44 864.026  10
   4   4   3 6519.16 991.783   8
   4  -4   3 6712.46 1052.44   7
  -4  -4  -3 5052.02 844.818  12
  -4   4  -3 4911.09 895.466  12
   4  -4   3 6586.62 905.820  11
  -4   4  -3 6101.75 906.410   5
  -4  -4  -3 6999.49 1000.04   5
   4   4   4 12886.8 1432.16   8
  -4  -4  -4 11407.3 1344.34  12
  -4   4  -4 10905.7 1405.41  12
   4  -4   4 12058.2 1337.36  11
  -4   4  -4 12406.7 1388.26   5
  -4  -4  -4 12394.1 1396.97   5
   4  -4   4 12324.6 1508.51  10
  -4   4  -5 1886.27 627.611   5
   4  -4   5 2302.40 635.802  11
  -4  -5   7 13858.8 1764.76   9
   4   5  -7 8256.35 1136.82   1
   4   5  -7 10890.4 1416.86   5
   4  -5  -7 8717.33 1354.72   5
  -4   5   7 10181.4 1223.71  14
   4  -5  -7 9780.08 1546.76   7
   4   5  -7 9533.23 1288.15   3
  -4  -5   6 233.147 380.209   9
   4   5  -6 221.267 243.354   3
  -4  -5   6 954.300 569.531   6
  -4   5   6-13.0938 338.629   6
  -4   5   6 1225.74 416.047  14
   4   5  -6 149.868 221.273   8
   4  -5  -6 394.322 311.679   7
   4   5  -5 17625.2 1480.24   3
  -4  -5   5 17441.5 1743.43   9
  -4  -5   5 15406.6 1562.64   6
  -4   5   5 19783.2 1789.36   6
  -4   5   5 18341.2 1140.41   9
   4   5  -5 18619.7 1478.66  13
   4   5  -5 14304.0 1451.91   8
  -4   5   5 17328.4 1326.99  14
   4  -5  -5 17362.7 1808.96   7
  -4  -5   4 9775.78 1281.01   9
  -4   5   4 10923.4 1300.00   6
  -4  -5   4 10274.8 1272.31   6
   4   5  -4 10129.8 1046.71   3
  -4   5   4 8467.57 1028.06   2
   4   5  -4 10155.3 1226.49   8
  -4   5   4 11063.4 975.722  14
   4   5  -4 10080.2 1080.61  13
   4   5  -4 10684.5 1052.78   7
   4  -5  -4 12064.7 1390.13   7
  -4  -5   3 4995.33 937.667   9
  -4   5   3 5093.19 832.730   6
  -4  -5   3 4776.95 772.635   6
  -4   5   3 6671.89 860.837   2
   4   5  -3 4956.65 886.307   8
   4   5  -3 5386.35 685.881  13
   4   5  -3 4470.30 677.444   7
   4  -5  -3 4295.72 815.974   7
  -4   5   2 3023.44 575.196   2
  -4  -5   2 2500.89 600.267   9
  -4   5   2 2787.29 600.727   6
  -4  -5   2 2089.36 479.216   6
   4   5  -2 3130.04 701.328   8
   4   5  -2 3959.79 572.976  13
   4   5  -2 2521.56 550.292   7
   4  -5  -2 1616.60 522.020   7
  -4   5   1 3003.83 562.652   2
  -4  -5   1 3005.11 665.776   9
  -4   5   1 2865.00 616.665   6
  -4  -5   1 3166.30 566.086   6
   4   5  -1 3167.31 725.382   8
   4   5  -1 3120.11 594.249   7
   4  -5  -1 3489.18 672.382   7
  -4  -5   0 38691.5 2269.85   9
   4   5   0 43129.1 2560.83   8
  -4   5   0 43040.0 1993.46   2
   4   5   0 40331.4 2311.85   7
   4  -5   0 41115.3 2241.05   7
  -4   5   0 42510.6 2500.49  12
   4  -5   0 38979.9 1927.43  10
  -4   5   0 44420.8 2152.48   6
  -4  -5   0 41859.3 2139.08   6
   4   5   1 26828.4 1967.53   1
  -4  -5  -1 22672.2 1676.49   9
  -4   5  -1 25028.2 1348.47   3
   4   5   1 27365.1 2088.33   8
  -4   5  -1 25893.3 1526.73   2
   4  -5   1 27622.5 1890.41   7
  -4   5  -1 26507.1 2029.94  12
   4  -5   1 25077.4 1711.42  10
  -4   5  -1 27008.4 1729.54   6
  -4  -5  -1 27366.9 1806.68   6
   4  -5   2 1487.65 414.116  10
   4   5   2 1231.63 459.104   1
  -4   5  -2 2116.45 541.591   6
  -4  -5  -2 2603.71 638.453   6
  -4  -5  -2 1646.40 538.421   9
   4   5   2 1503.37 512.780   8
  -4   5  -2 1447.28 532.701  12
   4  -5   2 1669.46 542.997   7
   4  -5   2 1580.90 432.801  11
   4  -5   3 531.157 393.846  10
  -4   5  -3 850.908 401.121   5
  -4  -5  -3 383.813 321.527   5
   4   5   3 896.684 550.460   8
  -4   5  -3 738.694 470.682  12
   4  -5   3 761.530 341.914  11
   4  -5   4 536.398 275.818  10
  -4   5  -4 844.791 467.138   5
  -4  -5  -4 410.954 297.921   5
   4   5   4 495.324 443.529   8
  -4  -5  -4 685.508 414.046  12
  -4   5  -4 111.710 283.018  12
   4  -5   4 693.484 421.551  11
   4   5   5 11050.5 1446.14   8
   4  -5   5 11467.4 1495.49  11
  -4  -6   7 1077.16 681.572   9
   4   6  -7 230.592 261.858   3
   4   6  -7 127.123 238.389   1
   4   6  -7 395.405 278.182   5
   4  -6  -7 1061.29 567.445   5
   4   6  -6 32008.7 2194.76   3
  -4  -6   6 31095.4 2564.28   9
  -4  -6   6 32695.7 2419.58   6
   4   6  -6 27196.7 2071.87   5
   4  -6  -6 25603.7 2108.59   5
   4   6  -6 26045.7 1977.49   8
  -4   6   6 33009.4 2061.20  14
   4  -6  -6 30245.5 2556.33   7
   4   6  -6 25225.9 2105.20   1
  -4  -6   5 30209.0 2430.81   9
   4   6  -5 26120.0 2134.57   1
   4   6  -5 31569.1 2084.15   3
  -4  -6   5 29339.3 2162.37   6
  -4   6   5 32696.2 2322.21   6
   4   6  -5 26351.2 1998.13   8
  -4   6   5 31335.2 2013.52   2
  -4   6   5 30684.9 1785.50  14
   4   6  -5 30414.4 1981.47  13
   4  -6  -5 25840.4 2236.62   7
  -4   6   4 440.012 320.360   2
  -4  -6   4 404.345 476.850   9
  -4  -6   4 276.017 293.914   6
  -4   6   4 189.311 369.083   6
   4   6  -4 379.006 357.740   3
   4   6  -4 270.922 314.572   8
   4   6  -4 339.949 185.259  13
   4  -6  -4 458.908 427.879   7
  -4  -6   3 10582.8 1338.49   9
  -4   6   3 11768.1 1230.19   6
  -4  -6   3 10061.3 1111.22   6
   4   6  -3 10587.1 1255.58   8
  -4   6   3 12236.7 1166.79   2
   4   6  -3 11854.3 1075.62  13
   4  -6  -3 10213.6 1258.26   7
  -4   6   2 7931.38 968.936   6
  -4  -6   2 7225.17 1125.34   9
  -4  -6   2 7510.92 950.180   6
   4   6  -2 7509.76 1086.30   8
  -4   6   2 8266.91 961.661   2
   4   6  -2 8389.79 856.918  13
   4   6  -2 7261.24 903.103   7
   4  -6  -2 7191.26 989.833   7
  -4   6   1 9480.54 988.015   6
  -4  -6   1 8952.79 974.112   6
   4   6  -1 10292.4 1443.72   1
  -4  -6   1 8300.49 1144.92   9
   4   6  -1 10275.5 1333.23   8
   4   6  -1 9453.89 1091.40   7
  -4   6   1 9629.06 1026.04   2
   4  -6  -1 10089.4 1162.53   7
  -4   6   0 10950.7 1100.20   6
  -4  -6   0 10057.7 1073.86   6
  -4  -6   0 10037.6 1243.80   9
   4   6   0 9709.02 1264.10   8
  -4   6   0 11223.6 1079.39   2
   4  -6   0 9831.51 1127.42   7
   4   6   0 9797.79 1268.42   1
   4  -6   0 8728.75 985.052  10
   4  -6   1 1134.51 392.407  10
  -4   6  -1 1239.09 385.553   2
  -4  -6  -1 539.932 263.850   9
  -4   6  -1 1855.78 497.866   6
  -4  -6  -1 728.425 384.906   6
   4   6   1 547.971 431.929   8
  -4   6  -1 1610.30 616.999  12
   4  -6   1 1568.80 492.501   7
   4   6   1 1093.46 460.388   1
   4   6   2 21214.3 1770.61   1
   4   6   2 21395.0 1938.59   8
  -4   6  -2 21663.4 1461.37   2
  -4   6  -2 22480.5 2020.78  12
   4  -6   2 19860.4 1749.67  10
  -4   6  -2 21473.1 1622.39   6
  -4  -6  -2 20885.7 1660.25   6
   4  -6   3 1627.66 610.158  10
  -4   6  -3 1828.28 530.755   6
  -4  -6  -3 1526.34 512.127   6
   4   6   3 1717.48 640.355   8
  -4   6  -3 1659.84 662.037  12
  -4   6  -4 143.606 249.045   5
  -4  -6  -4 100.839 240.803   5
   4   6   4 663.622 403.251   8
  -4  -7   6 500.959 600.375   9
   4   7  -6 370.360 356.481   3
   4   7  -6-249.904 483.201  13
   4   7  -6 209.147 289.907   1
   4  -7  -6 585.077 482.318   7
  -4  -7   5 45372.2 3134.62   9
   4   7  -5 48686.3 2624.60   3
   4   7  -5 42287.0 2608.61   8
  -4   7   5 50498.9 2677.51   2
   4   7  -5 49450.5 2656.16  13
   4   7  -5 41741.6 2799.51   1
   4  -7  -5 41428.7 2870.25   7
  -4  -7   4 6208.31 1203.01   9
  -4   7   4 5936.61 929.551   2
   4   7  -4 6366.30 1036.23   8
   4   7  -4 4705.53 803.623  13
   4  -7  -4 6960.19 1139.10   7
   4   7  -4 6078.15 1109.83   1
   4   7  -3 3593.99 808.291   1
  -4  -7   3 3101.18 828.909   9
  -4   7   3 4644.56 778.637   2
   4   7  -3 3731.42 837.448   8
   4   7  -3 4609.83 755.261  13
   4  -7  -3 3680.58 730.977   7
  -4  -7   2 2004.43 632.347   9
  -4   7   2 1589.65 455.296   2
   4   7  -2 1796.61 617.469   8
   4   7  -2 1775.92 598.221   1
   4   7  -2 2643.98 571.479  13
   4  -7  -2 1231.60 417.180   7
  -4  -7   1 7783.24 1199.11   9
   4   7  -1 9382.56 1333.66   8
   4   7  -1 9569.89 1376.06   1
  -4   7   1 9706.33 1072.48   2
   4  -7  -1 7924.13 1040.28   7
   4  -7  -1 7946.62 935.936  10
  -4  -7   0 19556.9 1786.87   9
   4   7   0 20645.4 1903.52   8
   4   7   0 19954.1 1868.47   1
  -4   7   0 24167.3 1659.57   2
   4  -7   0 22099.8 1662.86   7
   4  -7   1-573.622 452.368  10
  -4  -7  -1 210.853 298.639   9
  -4   7  -1 317.017 242.939   2
   4   7   1 158.891 428.693   8
  -4   7  -1 330.555 425.038  12
   4   7   1-306.898 298.314   1
   4  -7   2-454.859 383.609  10
  -4   7  -2 35.1607 235.298   2
   4   7   2 602.425 379.805   1
   4   7   2-48.7607 355.039   8
  -4   7  -2-237.884 320.081  12
   4   8  -5 21609.7 1830.93   3
   4   8  -5 17925.0 1878.49   1
   4  -8  -5 16901.1 1889.92   7
  -4  -8   4 596.979 550.972   9
  -4   8   4 605.057 382.982   2
   4   8  -4 207.095 301.906   1
   4   8  -4 526.097 282.934   8
   4   8  -4 478.290 351.304  13
   4  -8  -4 459.829 343.493   7
  -4  -8   3 2216.67 702.538   9
  -4   8   3 2321.13 591.469   2
   4   8  -3 2372.73 670.848   8
   4   8  -3 2214.85 713.454   1
   4   8  -3 2304.46 638.603  13
   4  -8  -3 2465.86 916.811   7
   4  -8  -2 1127.73 379.574  10
  -4  -8   2 1144.29 510.078   9
  -4   8   2 823.004 370.553   2
   4   8  -2 1042.66 530.992   1
   4   8  -2 368.394 269.112   8
   4   8  -2 2188.92 550.580  13
   4  -8  -2 777.827 412.130   7
   4  -8  -1 5053.75 788.104  10
   4   8  -1 5718.90 1109.21   1
  -4  -8   1 5109.70 1011.00   9
   4   8  -1 6865.74 1149.98   8
  -4   8   1 6621.11 935.947   2
   4   8   0 7713.02 1265.08   1
  -4  -8   0 6500.19 1102.88   9
   4   8   0 6797.04 1142.42   8
  -4   8   0 8089.19 1025.63   2
   4  -8   1-492.690 519.507  10
  -4  -8  -1 32.9510 322.311   9
  -4   8  -1 435.186 335.366   2
   4   8   1 334.412 428.333   1
   4   8   1 66.6356 379.199   8
  -4   8  -1 331.831 536.391  12
  -4   8  -2 6463.00 892.054   2
   4   8   2 6412.97 1110.61   1
   4   9  -4 8321.71 1277.55   8
   4   9  -3 5786.11 1091.24   8
  -4  -9   2 260.444 333.735   9
   4   9  -2 590.328 464.702   8
   4  -9  -1 1764.93 498.137  10
  -4  -9   1 1656.05 634.122   9
   4   9  -1 3498.87 888.426   8
  -4  -9   0 14970.7 1755.86   9
   4  -9   0 9337.79 1204.67  10
   5   0  -8 2852.08 880.942   7
  -5   0   7 6997.07 1062.57   9
  -5   0   7 5602.53 1220.61   6
  -5   0   7 5684.12 1051.88  14
   5   0  -7 6716.58 1186.13   7
  -5   0   6 31149.9 2094.54   9
  -5   0   6 31396.9 2507.92   6
  -5   0   6 31341.5 2302.54  14
   5   0  -6 29785.1 2324.18   7
  -5   0   5 67215.5 2956.86   9
  -5   0   5 74246.5 3659.24   6
  -5   0   5 63866.5 3030.58  14
  -5   0   4 10617.5 1386.22   6
  -5   0   4 11386.6 1209.57   9
  -5   0   4 10919.3 1190.56  14
   5   0  -4 10816.0 1322.44   7
  -5   0   3 3546.86 641.896   9
  -5   0   3 2827.83 684.138   6
  -5   0   3 3177.09 607.499  14
   5   0  -3 2995.60 688.760   7
  -5   0   2-135.230 231.030   9
  -5   0   2 49.1264 313.741   6
  -5   0   2-47.4443 146.566  14
   5   0  -2 212.789 378.140   7
  -5   0   1 161005. 3891.75   9
  -5   0   1 162931. 2911.46  12
   5   0  -1 162501. 4912.12   7
  -5   0   1 165073. 4699.89   6
  -5   0   0 50665.1 2174.34   9
   5   0   0 51749.5 2703.61   8
   5   0   0 50314.5 2852.92   7
  -5   0   0 51397.1 1937.97  12
  -5   0   0 52516.2 2717.39   6
  -5   0  -1-199.928 354.096   6
  -5   0  -1 327.958 241.380   9
   5   0   1 714.254 444.131   8
  -5   0  -1 56.5862 166.991  12
   5   0   1 627.760 462.587   7
  -5   0  -2 7534.20 858.020   9
   5   0   2 7855.64 1007.89   8
  -5   0  -2 7616.95 961.913  12
   5   0   2 7102.82 1165.96   7
   5   0   2 7976.36 777.987  11
  -5   0  -2 8115.19 1155.66   6
   5   0   2 7341.46 894.834  10
   5   0   3 1372.86 385.974  10
  -5   0  -3 1523.38 426.047   5
  -5   0  -3 1085.85 351.807   9
  -5   0  -3 1904.55 540.077  12
   5   0   3 1926.59 479.433  11
  -5   0  -4 10896.2 1330.55  12
   5   0   4 12404.6 1244.07  11
   5   0   4 13698.3 1473.21  10
   5   1  -8 58958.0 3497.18   7
  -5  -1   7 9841.58 1283.31   9
  -5  -1   7 10042.3 1508.34   6
  -5   1   7 11711.4 1653.49   6
  -5   1   7 8541.43 1257.27  14
  -5  -1   7 9980.53 1417.56  14
   5   1  -7 8762.72 1306.97   7
   5  -1  -7 8683.04 1422.07   7
  -5  -1   6 2153.00 595.722   9
  -5   1   6 1300.93 440.607   9
  -5  -1   6 1489.80 569.629   6
  -5   1   6 2139.23 773.385   6
  -5   1   6 1507.04 526.041  14
  -5  -1   6 1796.10 574.355  14
   5   1  -6 1754.51 531.231   7
   5  -1  -6 529.442 395.359   7
  -5  -1   5 4145.87 797.853   9
  -5   1   5 3515.53 730.349   9
  -5   1   5 4349.69 1015.84   6
  -5  -1   5 4675.98 991.140   6
  -5   1   5 3554.88 706.907  14
  -5  -1   5 4411.82 853.977  14
   5   1  -5 4479.76 945.456   7
   5  -1  -5 3655.71 867.423   7
  -5   1   4 20767.5 1861.94   6
  -5  -1   4 21171.1 1868.61   6
  -5  -1   4 20674.2 1671.29   9
  -5   1   4 19368.3 1453.58   9
  -5   1   4 18944.7 1470.68  14
  -5  -1   4 19602.6 1602.24  14
   5   1  -4 19756.1 1748.89   7
   5  -1  -4 19867.7 1800.40   7
  -5   1   3 60882.2 2946.05   6
  -5  -1   3 62727.2 2994.68   6
  -5  -1   3 57993.5 2670.53   9
  -5   1   3 56039.6 2371.23   9
  -5   1   3 57021.2 2326.41  14
  -5  -1   3 55809.3 2501.25  14
   5   1  -3 59973.6 2985.47   7
   5  -1  -3 60369.5 3043.76   7
  -5   1   2 6880.03 987.299   6
  -5   1   2 6860.12 806.234   9
  -5  -1   2 5795.93 794.180   9
  -5  -1   2 6369.31 943.565   6
  -5   1   2 5042.77 630.016  14
  -5  -1   2 6241.76 817.088  14
  -5   1   2 6698.35 540.767  12
   5   1  -2 5851.67 951.250   7
   5  -1  -2 6590.90 989.134   7
  -5  -1   1 5218.85 753.049   9
  -5   1   1 5042.69 712.906   9
  -5  -1   1 4521.03 854.754   6
  -5   1   1 4691.59 574.616  14
  -5  -1   1 5007.52 496.524  12
  -5   1   1 5387.12 601.258  12
   5   1  -1 4701.47 904.796   7
   5  -1  -1 5433.66 961.247   7
  -5   1   1 6052.04 977.510   6
  -5  -1   0 54520.2 2350.34   9
  -5   1   0 58538.5 2246.16   9
   5   1   0 56613.7 2869.76   8
   5   1   0 55547.4 3018.26   7
  -5  -1   0 54821.2 1969.29  12
   5  -1   0 59192.4 3045.84   7
  -5   1   0 56033.2 2149.49  12
  -5   1   0 63128.5 2924.08   6
  -5  -1   0 57898.7 2829.35   6
  -5   1  -1 489.636 388.880   6
  -5  -1  -1 483.593 349.758   6
  -5  -1  -1-186.368 164.908   9
  -5   1  -1 678.261 332.549   9
   5   1   1-411.390 344.199   8
   5  -1   1 84.2284 227.693   8
  -5  -1  -1 423.797 230.469  12
  -5   1  -1 585.840 317.875  12
   5   1   1 191.592 283.863   7
   5  -1   1 946.458 497.433   7
   5  -1   1 339.441 222.377  11
  -5  -1  -2 9528.85 1071.35   9
  -5   1  -2 10500.6 1049.57   9
   5   1   2 31493.1 2079.16   8
   5   1   2 31196.7 2478.85   7
   5  -1   2 27683.8 2363.80   7
  -5  -1  -2 10880.2 1251.53  12
  -5   1  -2 12790.3 1293.96  12
   5  -1   2 15748.3 1197.38  11
  -5   1  -2 18661.4 1700.61   6
  -5  -1  -2 19477.5 1788.98   6
   5  -1   2 16995.2 1449.79  10
   5   1   2 18182.2 1294.22  10
   5   1   3 3210.29 607.246  10
   5  -1   3 3558.01 711.882  10
  -5   1  -3 4229.20 878.506   5
  -5  -1  -3 4597.91 914.973   5
  -5   1  -3 4121.20 672.321   9
  -5  -1  -3 2398.72 498.854   9
  -5  -1  -3 2994.09 667.488  12
  -5   1  -3 3552.50 688.672  12
   5  -1   3 3658.30 635.167  11
   5  -1   4 3999.87 858.373  10
  -5  -1  -4 3789.69 794.219  12
  -5   1  -4 3310.15 748.737  12
   5  -1   4 3363.26 648.772  11
   5   1   4 3586.67 689.263  11
   5   2  -8 3761.72 902.651   7
  -5  -2   7 1549.55 643.471   9
  -5  -2   7 2884.79 881.960   6
  -5   2   7 2172.89 718.083   6
  -5   2   7 1461.56 583.762  14
  -5  -2   7 2172.86 797.823  14
   5   2  -7 826.056 446.954   7
   5  -2  -7 1097.43 573.228   7
  -5  -2   6 18084.7 1782.71   9
  -5   2   6 19380.6 1544.42   9
  -5  -2   6 16111.3 1809.12   6
  -5   2   6 19121.6 1986.93   6
  -5   2   6 16673.7 1622.27  14
  -5  -2   6 18508.0 1869.57  14
   5   2  -6 16096.8 1649.21   7
   5  -2  -6 14654.2 1743.97   7
  -5  -2   5 11262.1 1351.05   9
  -5   2   5 9598.25 1407.62   6
  -5  -2   5 9137.96 1404.76   6
  -5   2   5 10168.4 1099.75   9
  -5   2   5 8337.10 1057.52  14
  -5  -2   5 7345.60 1116.25  14
   5   2  -5 10389.4 1360.79   7
   5  -2  -5 10592.6 1373.46   7
  -5   2   4 19968.0 1846.62   6
  -5  -2   4 17996.8 1747.08   6
  -5  -2   4 19129.1 1650.05   9
  -5   2   4 13768.5 1183.52   9
  -5   2   4 17421.3 1398.91  14
  -5  -2   4 17679.0 1609.37  14
   5   2  -4 19528.1 1744.63   7
   5  -2  -4 19506.6 1808.08   7
  -5   2   3 7645.52 1069.18   6
  -5  -2   3 7695.13 1086.50   6
  -5  -2   3 8580.68 1062.98   9
  -5   2   3 6834.66 815.571   9
  -5   2   3 8373.31 878.286  14
  -5  -2   3 7311.54 965.219  14
   5   2  -3 8580.05 1128.01   7
   5  -2  -3 7514.70 1158.18   7
  -5  -2   2 1389.84 444.940   9
  -5   2   2 1419.55 424.288   9
  -5   2   2 1258.84 482.686   6
  -5  -2   2 1617.37 528.592   6
  -5   2   2 790.079 285.839  14
  -5   2   2 1146.67 305.753  12
   5   2  -2 1572.99 748.407   7
   5  -2  -2 1293.61 604.321   7
  -5  -2   1 52138.7 2675.41   6
  -5  -2   1 48441.6 2437.40   9
   5   2  -1 48000.7 2742.89   8
  -5   2   1 44310.2 1672.22  14
   5   2  -1 53061.8 2843.80   7
   5  -2  -1 51283.1 2796.05   7
  -5   2   1 50075.2 1987.49  12
  -5   2   1 51512.2 2617.22   6
  -5  -2   0 69094.4 2782.18   9
   5   2   0 69709.8 3304.27   8
   5   2   0 68988.5 3346.03   7
  -5  -2   0 69687.5 2296.79  12
   5  -2   0 70736.2 3321.59   7
  -5   2   0 65995.2 2485.45  12
   5  -2   0 69530.5 1822.44  11
  -5   2   0 73032.3 3127.47   6
  -5  -2   0 75735.0 3236.16   6
  -5  -2  -1 16608.4 1334.07   9
   5   2   1 18366.0 1670.22   8
   5  -2   1 21048.4 1598.79   8
   5   2   1 18238.7 1829.57   7
   5  -2   1 19345.4 1840.47   7
  -5  -2  -1 16893.1 1283.68  12
  -5   2  -1 18710.4 1448.48  12
   5  -2   1 18824.6 1141.63  11
  -5   2  -1 18839.2 1643.48   6
  -5  -2  -1 19522.9 1708.72   6
   5  -2   1 19553.2 1414.88  10
   5  -2   2 2655.14 609.388  10
   5   2   2 2563.15 510.843  10
  -5   2  -2 3161.71 745.287   6
  -5  -2  -2 2603.45 707.039   6
  -5  -2  -2 2067.04 484.624   9
   5   2   2 2743.98 662.289   8
  -5  -2  -2 2006.50 513.308  12
  -5   2  -2 2555.13 593.981  12
   5  -2   2 4068.89 935.878   7
   5  -2   2 2777.74 489.197  11
   5  -2   3 3625.71 711.895  10
  -5   2  -3 5714.63 984.130   5
  -5  -2  -3 3734.90 803.408   5
   5   2   3 5033.38 857.283   8
  -5  -2  -3 4539.90 828.827  12
  -5   2  -3 3808.97 774.921  12
   5  -2   3 5183.29 778.979  11
  -5  -2  -3 4998.17 959.702   6
  -5  -2  -4 16127.8 1596.87  12
  -5   2  -4 13953.5 1546.60  12
   5  -2   4 14484.2 1421.99  11
   5   2   4 16626.6 1397.70  11
   5  -2   4 17415.1 1764.30  10
  -5  -3   7 14188.5 1646.14   9
  -5  -3   7 14460.0 1819.09   6
  -5   3   7 15078.9 1952.29   6
  -5   3   7 11946.2 1505.00  14
  -5  -3   7 13154.4 1751.55  14
   5   3  -7 12378.5 1479.64   7
   5  -3  -7 11138.3 1590.96   7
  -5  -3   6 14891.8 1706.86   9
  -5   3   6 15379.3 1325.26   9
  -5  -3   6 14415.1 1734.67   6
  -5   3   6 13496.8 1665.73   6
  -5   3   6 12654.6 1403.75  14
  -5  -3   6 12618.2 1629.99  14
   5   3  -6 12233.8 1418.68   7
   5  -3  -6 12183.9 1620.58   7
  -5  -3   5 553.355 489.421   9
  -5   3   5 63.1535 157.678   9
  -5   3   5-403.875 460.380   6
  -5  -3   5 760.722 426.919   6
  -5   3   5 239.091 271.444  14
  -5  -3   5-189.727 231.583  14
   5   3  -5 121.600 168.837  13
   5   3  -5 223.840 288.006   7
   5  -3  -5 402.488 347.752   7
  -5  -3   4 2500.19 670.720   9
  -5   3   4 1082.82 317.620   9
  -5   3   4 3054.67 748.079   6
  -5  -3   4 2785.04 728.199   6
  -5   3   4 2706.09 613.298  14
   5   3  -4 2613.27 439.907  13
   5   3  -4 1718.09 559.876   7
   5  -3  -4 2755.09 756.002   7
  -5   3   3 71570.1 3233.85   6
  -5  -3   3 71221.1 3254.01   6
  -5  -3   3 71368.3 3235.98   9
  -5   3   3 69281.4 2486.70   9
  -5   3   3 70108.4 2459.64  14
   5   3  -3 72608.7 3222.28   7
   5  -3  -3 72732.3 3440.21   7
  -5   3   2 65568.9 3020.12   6
  -5  -3   2 64253.2 3040.99   6
  -5  -3   2 59390.1 2839.73   9
   5   3  -2 66887.7 3477.82   8
  -5   3   2 60048.3 2092.47  14
   5   3  -2 66375.3 3287.01   7
   5  -3  -2 60943.5 3104.25   7
  -5   3   2 63649.0 2329.32  12
  -5  -3   1 580.485 399.921   9
  -5   3   1 134.485 236.060   6
  -5  -3   1 877.160 527.047   6
  -5   3   1 144.465 154.700  14
   5   3  -1 40.6509 277.847   8
  -5   3   1 250.836 269.009  12
   5   3  -1 24.2470 317.225   7
   5  -3  -1 145.203 358.554   7
  -5   3   0 1772.16 613.827   6
  -5  -3   0 1050.42 422.687   9
  -5  -3   0 1402.57 522.088   6
   5   3   0 580.112 488.649   8
  -5  -3   0 1080.87 328.538  12
  -5   3   0 1054.12 396.049  12
   5   3   0 879.376 502.222   7
   5  -3   0 643.097 461.460   7
  -5   3  -1 4889.02 862.238   6
  -5  -3  -1 5109.80 967.247   6
  -5  -3  -1 4620.87 760.119   9
   5   3   1 4229.83 860.099   8
  -5  -3  -1 4683.57 701.062  12
  -5   3  -1 4274.61 744.725  12
   5   3   1 4458.32 929.084   7
   5  -3   1 4508.20 890.003   7
   5  -3   1 4475.82 757.848  10
  -5  -3  -2 27845.7 1844.14   9
   5   3   2 30240.7 2218.44   8
   5  -3   2 32268.0 2432.73   7
  -5  -3  -2 30822.3 1948.62  12
  -5   3  -2 30026.1 2058.84  12
  -5   3  -2 32058.4 2196.24   6
  -5  -3  -2 33288.9 2295.44   6
   5  -3   2 32342.3 2064.76  10
   5  -3   3 708.239 306.022  10
   5   3   3 319.878 278.774   8
  -5  -3  -3 301.913 313.781  12
  -5   3  -3 1345.64 551.733  12
  -5   3  -3 542.077 324.731   6
  -5  -3  -3 179.842 325.326   6
  -5  -3  -4 3281.32 795.750  12
  -5  -4   8 3988.98 995.556   9
  -5  -4   7 9078.69 1407.43   9
  -5  -4   7 9736.32 1507.16   6
  -5   4   7 8247.64 1423.89   6
  -5  -4   6 11069.4 1497.38   9
  -5  -4   6 11060.9 1550.82   6
  -5   4   6 12532.7 1617.78   6
  -5   4   6 10676.2 1260.45  14
   5   4  -6 10344.4 1037.69  13
   5  -4  -6 11274.3 1583.78   7
  -5  -4   5 43.2173 252.887   9
  -5   4   5 315.304 198.259   9
  -5   4   5 79.0801 284.291   6
  -5  -4   5-9.85151 304.132   6
  -5   4   5 139.114 310.861  14
   5   4  -5 42.6914 239.160  13
   5   4  -5-250.459 327.850   7
   5  -4  -5-235.305 253.677   7
  -5  -4   4 15962.3 1722.50   9
  -5   4   4 17208.3 1732.84   6
  -5  -4   4 17553.3 1729.88   6
  -5   4   4 17796.3 1301.35   9
   5   4  -4 13735.3 1551.63   8
  -5   4   4 17882.5 1373.49  14
   5   4  -4 18314.5 1155.93  13
   5   4  -4 15953.4 1516.05   7
   5  -4  -4 16428.3 1761.72   7
  -5   4   3 26563.1 1993.14   6
  -5  -4   3 25928.4 1968.24   6
  -5  -4   3 26031.6 2081.36   9
   5   4  -3 25182.7 2079.44   8
  -5   4   3 27979.0 1547.79  14
   5   4  -3 27485.8 1953.25   7
   5  -4  -3 25788.4 2085.01   7
  -5  -4   2 2709.05 711.750   9
  -5   4   2 2175.23 547.449   6
  -5  -4   2 1957.70 555.924   6
  -5   4   2 2689.03 468.240  14
   5   4  -2 3371.07 965.881   8
  -5   4   2 2171.29 517.293  12
   5   4  -2 2829.97 709.523   7
   5  -4  -2 2380.04 657.876   7
  -5   4   1 12832.5 1400.25   6
  -5  -4   1 9818.96 1230.38   6
  -5  -4   1 12127.2 1433.98   9
   5   4  -1 10883.7 1397.16   8
  -5   4   1 10352.7 804.926  14
   5   4  -1 9879.31 1292.31   7
   5  -4  -1 10356.3 1303.86   7
  -5   4   1 11660.4 1197.31  12
  -5  -4   0 48912.4 2617.71   9
   5   4   0 52844.5 3032.35   8
   5   4   0 55701.1 3049.54   7
   5  -4   0 51640.0 2868.50   7
  -5   4   0 49983.5 2522.75  12
  -5   4   0 55435.4 2768.46   6
  -5  -4   0 57424.1 2880.43   6
  -5  -4  -1 31107.1 2053.05   9
   5   4   1 34606.6 2470.50   8
   5  -4   1 33230.9 2374.27   7
  -5   4  -1 32499.5 2162.38  12
   5  -4   1 31932.4 1994.71  10
  -5   4  -1 35344.9 2260.46   6
  -5  -4  -1 34989.9 2343.77   6
   5  -4   2 1632.05 547.813  10
  -5   4  -2 1993.56 621.142   6
  -5  -4  -2 873.687 469.255   6
  -5  -4  -2 1170.49 407.535   9
   5   4   2 1534.91 557.114   8
  -5  -4  -2 1280.58 471.427  12
  -5   4  -2 761.899 425.333  12
   5  -4   2 1457.28 580.092   7
   5   4   3 13066.4 1542.53   8
  -5  -4  -3 12844.9 1470.31  12
  -5   4  -3 10625.2 1402.44  12
  -5   4  -3 12367.8 1439.65   6
  -5  -4  -3 12765.4 1552.64   6
   5  -4   3 13245.8 1541.50  10
  -5  -5   7 4972.12 1131.44   9
  -5  -5   7 4481.64 1054.89   6
  -5   5   7 5319.58 1139.12   6
   5   5  -7 3176.01 775.167   8
  -5  -5   6 813.645 461.220   9
  -5  -5   6 459.226 472.777   6
  -5   5   6 234.847 309.833   6
  -5   5   6 847.875 423.529  14
   5   5  -6 558.793 346.353   8
   5   5  -6 116.026 212.213  13
   5  -5  -6 310.870 312.239   7
  -5  -5   5 385.403 268.660   9
  -5   5   5 2013.36 499.487   9
  -5   5   5 1912.70 647.476   6
  -5  -5   5 2264.33 742.603   6
  -5   5   5 805.073 400.174  14
   5   5  -5 963.574 440.274   8
   5   5  -5 1718.77 456.408  13
   5  -5  -5 2138.99 742.703   7
  -5  -5   4 425.611 319.149   9
  -5   5   4 920.260 504.705   6
  -5  -5   4 1356.74 481.422   6
  -5   5   4 923.385 336.446  14
   5   5  -4 596.839 234.940   8
   5   5  -4 1316.63 396.910  13
   5   5  -4 979.987 436.610   7
   5  -5  -4 1316.57 555.552   7
  -5   5   3 41503.1 2550.52   6
  -5  -5   3 38183.3 2635.09   9
  -5  -5   3 38250.6 2431.34   6
   5   5  -3 36935.4 2598.05   8
  -5   5   3 40111.6 1861.10  14
   5   5  -3 37699.0 2289.68   7
   5  -5  -3 40814.8 2661.68   7
  -5   5   2 13639.9 1404.11   6
  -5  -5   2 12010.2 1336.88   6
  -5  -5   2 12541.1 1485.73   9
   5   5  -2 14404.4 1654.74   8
  -5   5   2 13752.8 1018.03  14
   5   5  -2 13202.1 1458.26   7
   5  -5  -2 12920.7 1470.94   7
  -5  -5   1 56.7336 300.358   9
  -5   5   1 47.2464 242.276   6
  -5  -5   1-131.230 295.713   6
  -5   5   1 527.860 255.747  14
   5   5  -1 358.396 417.574   8
  -5   5   1 237.044 263.514  12
   5   5  -1 40.1090 277.996   7
   5  -5  -1 280.541 407.262   7
  -5  -5   0 9926.28 1268.78   9
   5   5   0 10035.9 1370.84   8
   5   5   0 10933.1 1402.58   7
   5  -5   0 11591.8 1376.45   7
  -5   5   0 10685.0 1282.16  12
   5  -5   0 11779.6 1188.04  10
  -5   5   0 11148.8 1261.36   6
  -5  -5   0 9852.28 1231.93   6
   5  -5   1 506.279 363.942  10
  -5  -5  -1 183.239 234.076   9
  -5   5  -1 1063.08 485.497   6
  -5  -5  -1 980.327 458.076   6
   5   5   1 1562.76 521.928   8
  -5   5  -1 1544.14 537.388  12
   5  -5   1 1019.16 467.681   7
   5   5   2 9788.88 1432.84   8
   5  -5   2 11232.6 1476.85   7
  -5   5  -2 7888.99 1212.02  12
   5  -5   2 8068.29 1184.15  10
  -5   5  -2 8994.29 1226.61   6
  -5  -5  -2 9523.84 1323.24   6
  -5   5  -3 1510.47 603.256   6
  -5  -5  -3 1556.33 642.673   6
   5   5   3 1545.94 558.267   8
  -5  -6   7 2048.04 798.581   6
   5   6  -7 1362.25 554.203   5
  -5  -6   6 10652.7 1515.66   6
  -5   6   6 11836.7 1597.91   6
   5   6  -6 9720.66 1375.10   8
   5   6  -6 12611.3 1366.49  13
  -5  -6   5 24808.6 2425.24   9
  -5  -6   5 29945.1 2403.24   6
  -5   6   5 31284.4 2544.14   6
   5   6  -5 25652.4 2210.88   8
  -5   6   5 24002.0 1748.62  14
   5   6  -5 26928.3 1784.34  13
   5  -6  -5 28869.0 2544.54   7
  -5  -6   4 5843.00 1171.00   9
  -5   6   4 5646.55 995.849   6
  -5  -6   4 5060.50 956.596   6
  -5   6   4 5842.45 803.116  14
   5   6  -4 4023.04 873.334   8
   5   6  -4 5367.64 750.910  13
   5  -6  -4 4697.95 985.033   7
  -5  -6   3 1166.85 640.632   9
  -5   6   3 1716.03 579.185   6
  -5  -6   3 424.553 311.886   6
  -5   6   3 1174.94 397.358  14
   5   6  -3 854.952 561.005   8
   5  -6  -3 616.203 426.852   7
  -5  -6   2 237.632 408.609   9
  -5   6   2 229.332 321.976   6
  -5  -6   2 35.4621 239.803   6
   5   6  -2 693.965 420.476   8
   5   6  -2 159.906 253.952   7
   5  -6  -2 79.6491 257.134   7
  -5   6   1 62153.0 2960.24   6
  -5  -6   1 58112.2 2956.20   6
  -5  -6   1 51934.6 3060.30   9
   5   6  -1 56070.7 3289.12   8
   5   6  -1 57147.5 3011.87   7
   5  -6  -1 56730.8 3038.94   7
  -5   6   1 65176.0 3348.02  12
  -5   6   0 20079.6 1691.79   6
  -5  -6   0 18398.8 1700.73   6
   5   6   0 19675.5 1958.81   1
  -5  -6   0 19447.6 1842.84   9
   5   6   0 20328.8 2030.51   8
   5  -6   0 20201.6 1797.73   7
  -5   6   0 19616.5 1917.11  12
   5  -6   0 18957.5 1593.99  10
   5  -6   1 97.6073 257.245  10
  -5  -6  -1 216.568 296.109   9
  -5   6  -1 326.745 364.715   6
  -5  -6  -1-65.5596 271.506   6
   5   6   1 40.8824 356.440   8
  -5   6  -1 338.120 309.862  12
   5  -6   1 437.570 413.444   7
   5   6   1 5.99234 271.387   1
  -5   6  -2 2207.83 637.300   6
  -5  -6  -2 1601.81 553.098   6
   5   6   2 2262.97 780.520   8
  -5   6  -2 1896.42 704.262  12
  -5   6  -3-109.422 345.783   6
  -5  -6  -3 86.5907 256.954   6
   5   7  -5 2044.06 651.410   8
   5   7  -5 2052.94 587.075  13
   5  -7  -5 1235.80 508.970   7
  -5  -7   4 17206.1 2026.66   9
   5   7  -4 15707.3 1787.82   8
  -5   7   4 18230.0 1435.69  14
   5   7  -4 17139.5 1397.97  13
   5  -7  -4 17035.6 1825.81   7
   5   7  -4 14031.5 1705.38   1
  -5  -7   3 17621.0 1979.41   9
   5   7  -3 19225.2 1960.09   8
  -5   7   3 18814.1 1676.93   2
   5  -7  -3 18605.5 1864.00   7
   5   7  -3 16124.3 1856.62   1
  -5   7   2 1022.51 415.054   2
  -5  -7   2 607.893 473.532   9
   5   7  -2 1555.44 778.632   8
   5   7  -2 949.618 562.552   1
   5  -7  -2 1375.43 518.648   7
   5  -7  -1 1265.39 514.660  10
  -5   7   1-39.9978 201.383   2
  -5  -7   1-221.862 335.941   9
   5   7  -1 40.4338 323.443   8
   5   7  -1 560.529 424.357   1
  -5   7   1 932.919 496.196  12
   5  -7  -1 12.3721 286.734   7
  -5  -7   0 26100.9 2247.89   9
   5   7   0 31879.6 2579.78   8
  -5   7   0 32696.1 2098.85   2
   5   7   0 31458.9 2527.14   1
  -5   7   0 33472.7 2649.42  12
   5  -7   0 30236.8 2116.43  10
   5   7   1 465.280 404.418   1
  -5   7  -1 351.630 392.293  12
   5  -8  -4 5058.81 1058.16   7
   5  -8  -3-23.4344 259.975   7
   5  -8  -2 1275.93 574.658  10
  -5  -8   2 768.343 548.905   9
  -5  -8   1 25127.5 2355.17   9
   5  -8  -1 26759.8 1982.71  10
  -5  -8   0 10709.3 1523.23   9
  -5   8   0 13340.6 1836.94  12
  -6   0   7 773.046 418.555   9
   6   0  -7 862.945 632.340   7
  -6   0   6 21564.0 1968.52   9
  -6   0   6 23470.3 2524.96   6
  -6   0   6 17106.9 1816.55  14
   6   0  -6 27783.1 2440.83   7
  -6   0   5 1462.02 558.561   9
  -6   0   5 1515.45 590.738   6
  -6   0   5 748.133 432.625  14
   6   0  -5 794.437 554.073   7
  -6   0   4 54570.8 3261.50   6
  -6   0   4 46764.3 2712.56   9
  -6   0   4 46024.9 2555.56  14
   6   0  -4 50597.8 3141.49   7
  -6   0   3 1258.56 403.528   9
  -6   0   3 1861.54 660.511   6
  -6   0   3 1946.69 502.068  14
   6   0  -3 2200.44 746.886   7
  -6   0   2 7708.25 1184.46   6
  -6   0   2 7473.49 1015.72   9
  -6   0   2 6723.71 855.289  14
   6   0  -2 8064.18 1223.69   7
  -6   0   1 18759.1 1834.76   6
  -6   0   1 16974.4 1505.38   9
   6   0  -1 17696.5 1873.92   7
  -6   0   0 16422.8 1421.23   9
   6   0   0 15440.2 1658.25   8
   6   0   0 15726.6 1845.01   7
  -6   0   0 17500.4 1782.17   6
  -6   0  -1 8749.64 1125.41   9
   6   0   1 24446.0 2013.54   8
   6   0   1 21067.6 2155.55   7
   6   0   1 13664.8 1263.25  10
  -6   0  -1 16254.1 1796.82   6
   6   0   2 2350.36 611.495  10
  -6   0  -2 2492.78 797.412   6
  -6   0  -2 2007.38 562.886   9
   6   0   2 812.142 524.220   7
   6   0   3 345.687 258.328  10
  -6   0  -3 349.557 280.706  12
  -6  -1   7 3252.04 877.758   9
   6   1  -7 2940.15 796.799   7
  -6  -1   6 674.298 516.224   9
  -6   1   6 751.924 409.662   9
  -6   1   6 1830.04 666.841   6
  -6  -1   6 574.386 391.214   6
  -6   1   6 283.112 267.289  14
  -6  -1   6 486.441 336.383  14
   6   1  -6 195.102 257.712   7
   6  -1  -6 1146.74 616.592   7
  -6  -1   5 4302.20 868.448   9
  -6   1   5 3709.15 776.432   9
  -6   1   5 3627.66 892.009   6
  -6  -1   5 3245.49 904.796   6
  -6   1   5 3445.12 757.047  14
  -6  -1   5 3689.33 827.348  14
   6   1  -5 3221.79 842.417   7
   6  -1  -5 2785.19 812.008   7
  -6   1   4 14418.9 1707.18   6
  -6  -1   4 13798.5 1660.24   6
  -6  -1   4 13221.6 1482.78   9
  -6   1   4 10889.1 1239.44   9
  -6   1   4 11677.6 1271.12  14
  -6  -1   4 11087.3 1321.99  14
   6   1  -4 12733.7 1563.87   7
   6  -1  -4 11765.7 1565.22   7
  -6   1   3 92228.1 4095.39   6
  -6  -1   3 92639.4 4115.73   6
  -6  -1   3 89344.7 3726.98   9
  -6   1   3 82617.6 3317.21   9
  -6   1   3 83248.8 3148.04  14
  -6  -1   3 82931.3 3293.03  14
   6   1  -3 92047.9 4116.33   7
   6  -1  -3 90576.0 4148.36   7
  -6  -1   2 761.446 339.824   9
  -6   1   2 637.293 281.308   9
  -6   1   2 490.898 385.103   6
  -6  -1   2 1134.42 526.005   6
  -6  -1   2 615.637 287.063  14
   6   1  -2 576.806 354.230   7
   6  -1  -2 1070.28 513.357   7
  -6   1   1 5749.60 858.037   9
  -6  -1   1 5077.30 810.445   9
  -6   1   1 6158.72 1054.78   6
  -6  -1   1 5166.54 978.612   6
   6   1  -1 5649.18 1050.08   8
   6   1  -1 4247.45 973.035   7
   6  -1  -1 6404.02 1126.86   7
  -6   1   0 2431.85 707.782   6
  -6  -1   0 1429.34 524.473   6
  -6  -1   0 770.889 345.982   9
  -6   1   0 1634.88 510.613   9
   6   1   0 938.236 365.217   8
   6  -1   0 1598.14 538.187   8
   6   1   0 568.900 390.925   7
   6  -1   0 602.944 474.670   7
  -6  -1  -1 17925.1 1540.49   9
  -6   1  -1 16136.3 1408.91   9
   6   1   1 18551.3 1822.76   8
   6  -1   1 16820.3 1663.48   8
   6   1   1 16221.4 1911.60   7
   6  -1   1 16262.5 1895.46   7
   6  -1   1 18737.0 1487.03  10
  -6   1  -1 17828.4 1867.40   6
  -6  -1  -1 15900.9 1793.41   6
  -6  -1  -2 39086.6 2282.67   9
  -6   1  -2 39152.5 2188.37   9
   6   1   2 38190.3 3029.09   7
   6  -1   2 39495.3 3018.72   7
  -6   1  -2 35359.4 2200.95  12
   6  -1   2 38319.1 2300.36  10
   6   1   2 38672.4 2192.84  10
  -6   1  -2 40695.6 2785.82   6
  -6  -1  -2 40714.8 2812.64   6
  -6   1  -3-146.539 272.757   9
  -6  -1  -3-164.694 277.334  12
  -6   1  -3-7.17092 305.056  12
   6   1   3 259.739 256.395  11
  -6  -2   7 232.144 377.747   9
   6   2  -7-297.855 463.528   7
  -6  -2   6 1269.20 572.484   9
  -6   2   6 581.376 388.695   9
  -6   2   6 118.240 485.448   6
  -6  -2   6-5.18114 472.321   6
  -6   2   6-27.8307 332.352  14
  -6  -2   6-30.9927 358.562  14
   6   2  -6 1076.13 581.573   7
   6  -2  -6 544.612 449.143   7
  -6  -2   5 3272.52 816.876   9
  -6   2   5 2255.78 543.241   9
  -6   2   5 4816.91 1019.06   6
  -6  -2   5 3875.68 961.769   6
  -6   2   5 2684.59 606.947  14
  -6  -2   5 4766.74 1000.16  14
   6   2  -5 4382.82 947.788   7
   6  -2  -5 3337.31 883.189   7
  -6   2   4 12691.6 1575.18   6
  -6  -2   4 12364.4 1579.20   6
  -6  -2   4 10739.5 1398.51   9
  -6   2   4 6177.59 854.853   9
  -6   2   4 9648.25 1154.34  14
  -6  -2   4 9754.38 1295.67  14
   6   2  -4 9704.96 1329.02   7
   6  -2  -4 10612.5 1476.60   7
  -6   2   3 5301.98 818.322   9
  -6  -2   3 4348.86 934.832   9
  -6   2   3 6423.22 1108.38   6
  -6  -2   3 6478.06 1104.80   6
  -6   2   3 5014.23 725.828  14
   6   2  -3 6578.21 1163.92   7
   6  -2  -3 6070.49 1162.79   7
  -6  -2   2 1742.28 550.375   9
  -6   2   2 1851.37 510.927   9
  -6   2   2 1933.24 656.432   6
  -6  -2   2 2211.68 637.773   6
   6   2  -2 1971.69 681.411   8
   6   2  -2 791.645 509.808   7
   6  -2  -2 936.615 506.522   7
  -6   2   1 8954.98 1298.30   6
  -6  -2   1 9447.53 1330.49   6
  -6  -2   1 8060.41 1114.89   9
  -6   2   1 9483.97 1064.22   9
   6   2  -1 9232.33 1350.34   8
   6   2  -1 8399.10 1285.67   7
   6  -2  -1 8946.76 1360.97   7
  -6  -2   0 401.639 351.251   9
  -6   2   0 685.541 476.669   6
  -6  -2   0 650.337 442.494   6
  -6   2   0 882.609 424.626   9
   6   2   0-213.294 396.626   8
   6   2   0-4.60534 394.013   7
   6  -2   0-889.101 512.387   7
  -6  -2  -1 13065.8 1429.92   9
  -6   2  -1 15717.8 1388.75   9
   6   2   1 24492.8 2127.82   8
   6   2   1 24540.7 2354.84   7
   6  -2   1 24400.9 2297.72   7
   6  -2   1 16306.5 1504.47  10
  -6   2  -1 17990.3 1886.54   6
  -6  -2  -1 19126.6 1950.10   6
   6  -2   2 3199.30 732.161  10
  -6  -2  -2 2897.11 652.202   9
  -6   2  -2 4024.73 700.577   9
   6   2   2 2590.42 682.592   8
  -6   2  -2 2257.83 629.813  12
   6  -2   2 4010.54 1009.10   7
  -6  -3   6 3195.31 949.660   9
  -6   3   6 3497.31 797.381   9
  -6   3   6 2923.76 912.035   6
  -6  -3   6 2949.98 987.756   6
  -6   3   6 2631.34 719.298  14
  -6  -3   6 2849.05 832.183  14
   6   3  -6 4551.85 1010.79   7
   6  -3  -6 5415.62 1157.89   7
  -6  -3   5 6128.57 1177.27   9
  -6   3   5 4005.09 726.664   9
  -6   3   5 7633.28 1319.48   6
  -6  -3   5 5870.00 1178.70   6
  -6   3   5 5744.12 959.112  14
   6   3  -5 6411.19 1118.74   7
   6  -3  -5 5579.24 1147.34   7
  -6  -3   4 2860.34 768.863   9
  -6   3   4 2923.18 636.208   9
  -6   3   4 3419.90 758.997   6
  -6  -3   4 3416.08 903.062   6
  -6   3   4 2997.07 629.476  14
   6   3  -4 2969.41 781.988   7
   6  -3  -4 3763.75 968.928   7
  -6   3   3 13711.4 1592.15   6
  -6  -3   3 13667.0 1609.66   6
  -6  -3   3 15495.8 1686.43   9
  -6   3   3 14747.5 1360.50   9
   6   3  -3 18139.0 2108.18   8
  -6   3   3 12107.6 1182.89  14
   6  -3  -3 14255.6 1816.87   7
  -6  -3   2 2968.00 732.179   9
  -6   3   2 3695.52 707.017   9
  -6   3   2 3055.69 781.025   6
  -6  -3   2 3255.64 806.114   6
   6   3  -2 2763.84 807.943   8
   6   3  -2 2545.78 708.626   7
   6  -3  -2 3646.57 824.311   7
  -6   3   1 7731.47 1192.36   6
  -6  -3   1 7590.29 1195.06   6
  -6  -3   1 7085.13 1091.81   9
  -6   3   1 8843.15 1036.22   9
   6   3  -1 8030.43 1296.07   8
   6   3  -1 8752.41 1341.12   7
   6  -3  -1 8155.60 1281.14   7
  -6  -3   0 60.8089 211.309   9
  -6   3   0-157.766 289.149   6
  -6  -3   0 168.527 314.620   6
   6   3   0 232.892 264.247   8
   6   3   0-206.626 404.656   7
   6  -3   0-224.284 392.964   7
  -6  -3  -1 3738.29 841.245   9
   6   3   1 12873.3 1605.62   8
   6   3   1 14788.5 1843.55   7
   6  -3   1 11792.4 1726.22   7
  -6   3  -1 3779.29 816.737  12
   6  -3   1 4553.67 1039.40  10
  -6   3  -1 8522.37 1315.44   6
  -6  -3  -1 8041.12 1324.75   6
   6   3   2 44398.2 2943.47   8
   6  -3   2 40870.4 3083.68   7
  -6   3  -2 37904.1 2470.88  12
  -6   4   6 1869.91 770.050   6
  -6  -4   6 1296.32 677.423   6
   6   4  -6 1499.66 562.832   8
  -6  -4   5 3965.64 961.747   9
  -6   4   5 2870.97 609.574   9
  -6   4   5 2801.60 888.972   6
  -6  -4   5 2713.30 901.828   6
  -6   4   5 3089.97 678.411  14
   6   4  -5 3857.92 950.013   8
   6   4  -5 2093.54 613.053   7
   6  -4  -5 3458.44 850.824   7
  -6  -4   4 2327.03 769.125   9
  -6   4   4 3191.73 678.955   9
  -6   4   4 863.170 481.362   6
  -6  -4   4 1784.62 719.511   6
  -6   4   4 2317.75 596.651  14
   6   4  -4 1488.24 546.007   8
   6   4  -4 2678.76 757.712   7
   6  -4  -4 2368.20 773.606   7
  -6   4   3 7485.14 1196.52   6
  -6   4   3 8406.49 1035.19   9
  -6  -4   3 5877.52 1113.56   9
  -6  -4   3 7323.47 1196.06   6
   6   4  -3 7718.12 1321.33   8
  -6   4   3 6708.16 860.547  14
   6   4  -3 7820.48 1227.83   7
   6  -4  -3 7000.20 1204.36   7
  -6   4   2 7590.90 1170.43   6
  -6  -4   2 10107.2 1370.03   6
  -6  -4   2 9633.94 1433.48   9
   6   4  -2 8450.83 1351.77   8
   6   4  -2 8510.36 1282.74   7
   6  -4  -2 8733.68 1370.62   7
  -6  -4   1 4751.55 997.280   9
  -6   4   1 5187.90 993.955   6
  -6  -4   1 4733.31 979.880   6
   6   4  -1 4841.37 1091.31   8
   6   4  -1 5565.05 1080.84   7
   6  -4  -1 5454.52 1101.85   7
   6  -4   0 4170.76 761.768  10
  -6  -4   0 2548.40 719.839   9
  -6   4   0 2156.50 624.354   6
  -6  -4   0 2776.82 778.027   6
   6   4   0 3289.92 928.175   8
   6   4   0 3296.45 906.375   7
   6  -4   0 3200.32 805.535   7
  -6  -4  -1 14487.4 1628.59   9
   6   4   1 16672.5 1944.38   8
   6  -4   1 20434.5 2086.23   7
  -6   4  -1 12815.0 1445.05  12
  -6   4  -1 17659.5 1864.87   6
  -6  -4  -1 19162.6 2006.06   6
   6   4   2 8090.12 1354.58   8
   6  -4   2 9175.32 1488.29   7
  -6   4  -2 8014.21 1208.66  12
  -6   5   6 110.923 386.967   6
  -6  -5   6 255.055 381.100   6
  -6   5   5 240.212 235.381   9
  -6   5   5 380.299 359.895   6
  -6  -5   5-364.034 297.059   6
  -6   5   5 677.757 424.300  14
   6   5  -5 67.0198 382.660   8
  -6   5   4 6041.78 885.407   9
  -6  -5   4 3400.59 900.500   9
  -6   5   4 4149.98 936.709   6
  -6  -5   4 3502.75 931.453   6
  -6   5   4 4343.59 788.947  14
   6   5  -4 3083.79 878.645   8
   6  -5  -4 2925.39 865.240   7
  -6   5   3 25338.2 2200.95   6
  -6  -5   3 22956.7 2162.20   6
  -6  -5   3 23641.8 2246.08   9
  -6   5   3 28522.3 1861.16   9
   6   5  -3 25202.8 2408.21   8
  -6   5   3 23070.7 1579.86  14
   6   5  -3 23753.8 2091.04   7
   6  -5  -3 24843.3 2289.83   7
  -6  -5   2-324.108 368.876   9
  -6   5   2 48.8326 292.057   6
  -6  -5   2 405.701 421.455   6
   6   5  -2-93.4301 412.248   8
   6   5  -2 848.802 445.102   7
   6  -5  -2-72.7574 415.094   7
  -6  -5   1 272.618 389.715   9
  -6   5   1-218.149 525.434   6
  -6  -5   1 487.756 395.945   6
   6   5  -1-284.513 365.139   8
   6   5  -1-125.154 275.487   7
   6  -5  -1-178.829 379.986   7
  -6  -5   0 608.528 442.628   9
  -6   5   0 259.378 314.386   6
  -6  -5   0-47.1154 284.054   6
   6   5   0 16.4494 327.380   8
   6   5   0-386.722 278.437   7
   6  -5   0 17.6861 304.510   7
  -6  -5  -1 1544.99 553.822   9
  -6   5  -1 3693.16 840.269   6
  -6  -5  -1 2281.26 787.953   6
  -6   5  -1 2313.20 675.357  12
   6  -5   1 3975.44 944.820   7
  -6   6   5 728.575 380.852   9
  -6   6   5-583.989 426.390   6
  -6  -6   5-405.882 498.864   6
  -6   6   4 28551.1 2439.41   6
  -6  -6   4 25975.9 2339.24   6
  -6   6   4 32588.2 2070.00   9
  -6   6   4 25712.6 1804.37  14
  -6   6   3 1033.65 447.102   6
  -6  -6   3 698.933 465.874   6
  -6   6   3 738.347 318.540  14
   6  -6  -3 1134.91 533.289   7
  -6  -6   2 4485.63 1080.25   9
  -6   6   2 4132.89 920.390   6
  -6  -6   2 2441.05 734.719   6
   6  -6  -2 3695.07 886.478   7
  -6  -6   1 6248.84 1152.09   9
  -6   6   1 7902.89 1204.66   6
  -6  -6   1 6317.81 1151.00   6
   6   6  -1 6155.00 1106.74   7
   6  -6  -1 7104.39 1214.53   7
  -6  -6   0 6368.11 1174.40   9
  -6   6   0 7138.17 1169.10   6
  -6  -6   0 5989.24 1157.16   6
   6  -6   0 7128.98 1210.79   7
   6   6   0 6303.59 1174.17   1
  -6   6  -1 8311.61 1317.95   6
   6  -7  -2-116.365 381.682   7
  -7   0   5 9909.51 1356.23  14
  -7   0   4 18775.7 2114.24   6
  -7   0   4 15211.2 1712.00   9
  -7   0   4 12429.0 1458.36  14
   7   0  -4 17111.9 1996.09   7
  -7   0   3 8729.55 1453.83   6
  -7   0   3 6727.78 1127.80   9
   7   0  -3 7861.33 1360.54   7
  -7   0   2 2954.23 690.143   9
  -7   0   2 3977.36 956.906   6
   7   0  -2 3424.94 892.850   7
   7   0  -1 22743.8 2248.38   8
   7   0   0 135.767 382.733   8
  -7   1   5 5230.67 1009.07  14
  -7  -1   5 5914.96 1091.78  14
  -7  -1   4 4223.87 995.060   9
  -7   1   4 2386.55 668.262   9
  -7   1   4 3171.32 699.743  14
  -7  -1   4 2465.01 677.496  14
  -7  -1   3 2020.33 736.375   9
  -7   1   3 1191.41 485.950   9
  -7   1   3 2229.78 794.254   6
  -7  -1   3 2442.16 901.982   6
   7   1  -3 1951.12 699.459   7
   7  -1  -3 2075.53 770.311   7
  -7  -1   2 1472.14 571.326   9
  -7   1   2 922.787 437.284   9
  -7   1   2 1692.37 658.003   6
  -7  -1   2 1400.43 654.515   6
   7   1  -2 1702.28 764.224   8
   7   1  -2 1618.15 672.903   7
   7  -1  -2 1368.03 707.216   7
   7   1  -1 1545.33 617.238   8
   7   1   0 7295.13 1256.60   8
  -7   2   5-742.555 626.378  14
  -7  -2   5 189.333 313.418  14
   7   2  -5 308.312 350.230   7
   7   2  -4 10317.0 1574.46   7
  -7   2   3 526.839 563.080   6
  -7  -2   3 632.231 460.143   6
   7   2  -3 75.8369 281.377   7
  -7   2   2 300.298 368.116   6
  -7  -2   2 238.485 352.675   6
   7   2  -2 440.619 551.110   8
   7   2  -2 811.457 508.644   7
   7   2  -1 2020.34 771.179   8
  -7   3   5 1360.06 460.970  14
   7   3  -5 880.221 553.207   7
   7   3  -4 4217.81 1094.12   7
   7   3  -3 476.747 549.299   7
   7   3  -2 6291.06 1265.78   7
   7   4  -4 6244.99 1191.68   7
   7   4  -3 3580.74 1002.98   7
   0   0   0    0.00    0.00   0
TITL lt100 in P2(1)/m
REM P2(1)/m (#11 in standard setting)
CELL 0.71073   5.678011   8.623352   6.969683  90.0000 108.2146  90.0000
ZERR    2.00   0.000874   0.001488   0.001063   0.0000   0.0168   0.0000
LATT  1
SYMM -x, y+1/2,-z
SFAC C H O
UNIT 12.00 24.00 2.00
TREF
HKLF 4
END
;
_shelx_hkl_checksum              36343
loop_
_space_group_symop_operation_xyz
'x, y, z'
'-x, y+1/2, -z'
'-x, -y, -z'
'x, -y-1/2, z'
loop_
_atom_site_label
_atom_site_type_symbol
_atom_site_fract_x
_atom_site_fract_y
_atom_site_fract_z
_atom_site_U_iso_or_equiv
_atom_site_adp_type
_atom_site_occupancy
_atom_site_site_symmetry_order
_atom_site_calc_flag
_atom_site_refinement_flags_posn
_atom_site_refinement_flags_adp
_atom_site_refinement_flags_occupancy
_atom_site_disorder_assembly
_atom_site_disorder_group
C3 C 0.6001(3) 0.2500 0.2763(2) 0.0173(4) Uani 1 2 d S T P . .
C2 C 0.5784(3) 0.2500 0.4893(2) 0.0195(4) Uani 1 2 d S T P . .
O1 O 0.3791(2) 0.2500 0.5183(2) 0.0361(4) Uani 1 2 d S T P . .
C1 C 0.8116(3) 0.2500 0.6660(3) 0.0349(5) Uani 1 2 d S T P . .
H1A H 0.8475 0.1442 0.7184 0.052 Uiso 0.5 1 calc GR . . A -1
H1B H 0.7900 0.3177 0.7722 0.052 Uiso 0.5 1 calc GR . . A -1
H1C H 0.9496 0.2881 0.6228 0.052 Uiso 0.5 1 calc GR . . A -1
C4 C 0.3431(3) 0.2500 0.1194(3) 0.0268(5) Uani 1 2 d S T P . .
C5 C 0.7435(2) 0.39567(14) 0.25069(18) 0.0230(4) Uani 1 1 d . . . . .
H5A H 0.911(3) 0.3920(18) 0.344(2) 0.028(4) Uiso 1 1 d . . . . .
H5B H 0.752(3) 0.397(2) 0.112(3) 0.041(5) Uiso 1 1 d . . . . .
H5C H 0.662(3) 0.490(2) 0.277(2) 0.029(4) Uiso 1 1 d . . . . .
H4A H 0.366(5) 0.2500 -0.021(4) 0.045(7) Uiso 1 2 d S T P . .
H4B H 0.249(3) 0.344(2) 0.134(2) 0.033(4) Uiso 1 1 d . . . . .
loop_
_atom_site_aniso_label
_atom_site_aniso_U_11
_atom_site_aniso_U_22
_atom_site_aniso_U_33
_atom_site_aniso_U_23
_atom_site_aniso_U_13
_atom_site_aniso_U_12
C3 0.0163(8) 0.0187(8) 0.0167(8) 0.000 0.0047(6) 0.000
C2 0.0218(8) 0.0180(8) 0.0196(8) 0.000 0.0078(6) 0.000
O1 0.0242(7) 0.0589(10) 0.0296(7) 0.000 0.0146(5) 0.000
C1 0.0276(10) 0.0583(14) 0.0175(9) 0.000 0.0054(7) 0.000
C4 0.0192(8) 0.0342(11) 0.0240(9) 0.000 0.0024(7) 0.000
C5 0.0260(7) 0.0193(7) 0.0248(6) 0.0019(4) 0.0095(5) -0.0017(5)
loop_
_atom_type_symbol
_atom_type_description
_atom_type_scat_dispersion_real
_atom_type_scat_dispersion_imag
_atom_type_scat_source
C C 0.0033 0.0016 'International Tables Vol C Tables 4.2.6.8 and 6.1.1.4'
H H 0.0000 0.0000 'International Tables Vol C Tables 4.2.6.8 and 6.1.1.4'
O O 0.0106 0.0060 'International Tables Vol C Tables 4.2.6.8 and 6.1.1.4'
loop_
_citation_id
_citation_doi
_citation_year
1 10.1021/acs.cgd.5b01156 2015
loop_
_geom_angle_atom_site_label_1
_geom_angle_atom_site_label_2
_geom_angle_atom_site_label_3
_geom_angle
_geom_angle_site_symmetry_1
_geom_angle_site_symmetry_3
C2 C3 C5 108.62(8) . .
C2 C3 C5 108.62(8) . 4_565
C4 C3 C2 110.33(14) . .
C4 C3 C5 109.83(9) . .
C4 C3 C5 109.83(9) . 4_565
C5 C3 C5 109.59(13) . 4_565
O1 C2 C3 121.72(15) . .
O1 C2 C1 119.64(16) . .
C1 C2 C3 118.64(14) . .
loop_
_geom_bond_atom_site_label_1
_geom_bond_atom_site_label_2
_geom_bond_distance
_geom_bond_site_symmetry_2
C3 C2 1.528(2) .
C3 C4 1.526(2) .
C3 C5 1.5374(14) 4_565
C3 C5 1.5374(14) .
C2 O1 1.210(2) .
C2 C1 1.500(2) .
loop_
_geom_torsion_atom_site_label_1
_geom_torsion_atom_site_label_2
_geom_torsion_atom_site_label_3
_geom_torsion_atom_site_label_4
_geom_torsion
_geom_torsion_site_symmetry_1
_geom_torsion_site_symmetry_2
_geom_torsion_site_symmetry_3
_geom_torsion_site_symmetry_4
C4 C3 C2 O1 0.000(0) . . . .
C4 C3 C2 C1 180.000(0) . . . .
C5 C3 C2 O1 120.43(9) . . . .
C5 C3 C2 O1 -120.43(9) 4_565 . . .
C5 C3 C2 C1 -59.57(9) . . . .
C5 C3 C2 C1 59.57(9) 4_565 . . .
