#------------------------------------------------------------------------------
#$Date: 2015-09-05 23:55:18 +0300 (Sat, 05 Sep 2015) $
#$Revision: 154577 $
#$URL: svn://www.crystallography.net/cod/cif/4/51/34/4513488.cif $
#------------------------------------------------------------------------------
#
# This file is available in the Crystallography Open Database (COD),
# http://www.crystallography.net/
#
# All data on this site have been placed in the public domain by the
# contributors.
#
data_4513488
loop_
_publ_author_name
'Karmakar, Anirban'
'R\'ubio, Guilherme M. D. M.'
'Guedes da Silva, M. F\'atima C.'
'Hazra, Susanta'
'Pombeiro, Armando J. L.'
_publ_section_title
;
 Solvent-Dependent Structural Variation of Zinc(II) Coordination Polymers
 and Their Catalytic Activity in the Knoevenagel Condensation Reaction
;
_journal_issue                   9
_journal_name_full               'Crystal Growth &amp; Design'
_journal_page_first              4185
_journal_paper_doi               10.1021/acs.cgd.5b00948
_journal_volume                  15
_journal_year                    2015
_chemical_formula_moiety         'C10 H11 N O7 Zn'
_chemical_formula_sum            'C10 H11 N O7 Zn'
_chemical_formula_weight         322.57
_chemical_name_systematic
;
 ?
;
_space_group_crystal_system      monoclinic
_space_group_IT_number           4
_space_group_name_Hall           'P 2yb'
_space_group_name_H-M_alt        'P 1 21 1'
_symmetry_space_group_name_Hall  'P 2yb'
_symmetry_space_group_name_H-M   'P 1 21 1'
_atom_sites_solution_hydrogens   mixed
_audit_creation_method           SHELXL-2014
_cell_angle_alpha                90
_cell_angle_beta                 106.246(2)
_cell_angle_gamma                90
_cell_formula_units_Z            2
_cell_length_a                   6.4078(3)
_cell_length_b                   10.1634(5)
_cell_length_c                   10.1735(5)
_cell_measurement_reflns_used    7763
_cell_measurement_temperature    296(2)
_cell_measurement_theta_max      26.38
_cell_measurement_theta_min      2.89
_cell_volume                     636.09(5)
_computing_publication_material  'WinGX publication routines (Farrugia, 1999)'
_computing_structure_refinement  'SHELXL-2014 (Sheldrick, 2014)'
_computing_structure_solution    'SIR97 (Giacovazzo et al, 1997)'
_diffrn_ambient_temperature      296(2)
_diffrn_measured_fraction_theta_full 0.999
_diffrn_measured_fraction_theta_max 0.999
_diffrn_measurement_device_type  'Bruker APEX-II PHOTON 100 detector'
_diffrn_measurement_method       '\f and \w scans'
_diffrn_radiation_source         'fine-focus sealed tube'
_diffrn_radiation_type           MoK\a
_diffrn_radiation_wavelength     0.71073
_diffrn_reflns_av_R_equivalents  0.0283
_diffrn_reflns_av_unetI/netI     0.0286
_diffrn_reflns_laue_measured_fraction_full 0.999
_diffrn_reflns_laue_measured_fraction_max 0.999
_diffrn_reflns_limit_h_max       8
_diffrn_reflns_limit_h_min       -7
_diffrn_reflns_limit_k_max       12
_diffrn_reflns_limit_k_min       -12
_diffrn_reflns_limit_l_max       12
_diffrn_reflns_limit_l_min       -12
_diffrn_reflns_number            11369
_diffrn_reflns_point_group_measured_fraction_full 0.997
_diffrn_reflns_point_group_measured_fraction_max 0.997
_diffrn_reflns_theta_full        25.242
_diffrn_reflns_theta_max         26.376
_diffrn_reflns_theta_min         2.892
_exptl_absorpt_coefficient_mu    1.959
_exptl_absorpt_correction_T_max  0.7
_exptl_absorpt_correction_T_min  0.5
_exptl_absorpt_correction_type   multi-scan
_exptl_absorpt_process_details   SADABS
_exptl_crystal_colour            colourless
_exptl_crystal_density_diffrn    1.684
_exptl_crystal_description       Block
_exptl_crystal_F_000             328
_exptl_crystal_size_max          0.330
_exptl_crystal_size_mid          0.280
_exptl_crystal_size_min          0.180
_refine_diff_density_max         0.730
_refine_diff_density_min         -0.226
_refine_diff_density_rms         0.089
_refine_ls_abs_structure_details
;
 Flack x determined using 1147 quotients [(I+)-(I-)]/[(I+)+(I-)]
 (Parsons, Flack and Wagner, Acta Cryst. B69 (2013) 249-259).
;
_refine_ls_abs_structure_Flack   0.019(5)
_refine_ls_extinction_method     none
_refine_ls_goodness_of_fit_ref   1.132
_refine_ls_hydrogen_treatment    mixed
_refine_ls_matrix_type           full
_refine_ls_number_parameters     185
_refine_ls_number_reflns         2580
_refine_ls_number_restraints     6
_refine_ls_restrained_S_all      1.139
_refine_ls_R_factor_all          0.0285
_refine_ls_R_factor_gt           0.0271
_refine_ls_shift/su_max          0.001
_refine_ls_shift/su_mean         0.000
_refine_ls_structure_factor_coef Fsqd
_refine_ls_weighting_details
'w=1/[\s^2^(Fo^2^)+(0.0449P)^2^+0.0371P] where P=(Fo^2^+2Fc^2^)/3'
_refine_ls_weighting_scheme      calc
_refine_ls_wR_factor_gt          0.0689
_refine_ls_wR_factor_ref         0.0697
_reflns_Friedel_coverage         0.886
_reflns_friedel_fraction_full    0.994
_reflns_friedel_fraction_max     0.995
_reflns_number_gt                2483
_reflns_number_total             2580
_reflns_threshold_expression     'I > 2\s(I)'
_cod_data_source_file            cg5b00948_si_002.cif
_cod_data_source_block           compound1
_cod_depositor_comments
'Adding full bibliography for 4513488--4513492.cif.'
_cod_database_code               4513488
_shelx_space_group_comment
;
The symmetry employed for this shelxl refinement is uniquely defined
by the following loop, which should always be used as a source of
symmetry information in preference to the above space-group names.
They are only intended as comments.
;
_shelx_estimated_absorpt_t_min   0.564
_shelx_estimated_absorpt_t_max   0.719
_shelxl_version_number           2014-1
_shelx_res_file
;
TITL 140314_AKGRpyz_0m in P2(1)
CELL  0.71073   6.4078  10.1634  10.1735   90.000  106.246   90.000
ZERR     2.00   0.0003   0.0005   0.0005    0.000    0.002    0.000
LATT  -1
SYMM  - X, 1/2 + Y, - Z
SFAC  C    H    N    O    ZN
UNIT  20   22   2    14   2
MERG   2
DFIX  0.9 0.02 O6 H6A
EQIV $1 -x+1, y+1/2, -z+2
HTAB N2 O4_$1
HTAB C3 O3
HTAB C5 O1_$1
EQIV $2 -x, y-1/2, -z+1
HTAB O7 O3_$2
EQIV $3 x-1, y, z
HTAB O7 O2_$3
HTAB O6 O2_$2
EQIV $4 x+1, y, z
HTAB O6 O5_$4
HTAB N2 O4_$1
HTAB C3 O3
HTAB C5 O1_$1
DFIX     0.850   0.020 O6 H6A
DFIX     0.850   0.020 O6 H6B
DFIX     0.850   0.020 O7 H7A
DFIX     0.850   0.020 O7 H7B
FMAP   2
PLAN   10
SIZE     0.18   0.28   0.33
ACTA
BOND   $H
CONF
L.S.  10
TEMP     23.00
WGHT    0.044900    0.037100
FVAR       0.30308
ZN1   5   -0.156535    0.746123    0.637344    11.00000    0.02209    0.03312 =
         0.01891   -0.00068    0.00440   -0.00314
O1    4    0.031613    0.868023    0.768406    11.00000    0.02827    0.03924 =
         0.02869   -0.01098    0.00559   -0.01175
O2    4    0.228531    0.913873    0.627016    11.00000    0.03654    0.04090 =
         0.02340   -0.00706    0.00624   -0.00309
O3    4    0.796968    1.207155    0.699829    11.00000    0.04489    0.07713 =
         0.03049    0.00910    0.00904   -0.01319
O4    4   -0.208175    0.638569    0.788918    11.00000    0.02816    0.05402 =
         0.02733    0.01210    0.00859   -0.00427
O7    4   -0.417615    0.833392    0.513888    11.00000    0.03787    0.06313 =
         0.04216    0.00420    0.00727    0.00336
N2    3    0.866450    1.185607    0.930206    11.00000    0.02182    0.03777 =
         0.02337   -0.00209    0.00492   -0.00488
AFIX  43
H2    2    0.965220    1.199267    1.005855    11.00000   -1.50000
AFIX   0
O5    4   -0.538985    0.581300    0.668303    11.00000    0.03117    0.05582 =
         0.02312    0.00019    0.00350   -0.00170
O6    4    0.006206    0.636845    0.536071    11.00000    0.04295    0.05916 =
         0.04677   -0.01507    0.01178   -0.00565
C1    1    0.194422    0.919250    0.740329    11.00000    0.02384    0.02075 =
         0.02377   -0.00156    0.00113    0.00392
C2    1    0.351093    0.992587    0.856339    11.00000    0.02209    0.02531 =
         0.02342   -0.00321    0.00383    0.00037
C3    1    0.537924    1.050029    0.834735    11.00000    0.02671    0.03095 =
         0.02205   -0.00329    0.00697   -0.00113
AFIX  43
H3    2    0.567262    1.042237    0.750567    11.00000   -1.20000
AFIX   0
C4    1    0.679003    1.119160    0.942167    11.00000    0.02140    0.02573 =
         0.02693    0.00200    0.00564    0.00106
C8    1    0.912127    1.230733    0.816250    11.00000    0.02867    0.03554 =
         0.02868    0.00192    0.00691   -0.00242
C9    1    1.112005    1.313756    0.839767    11.00000    0.03903    0.04064 =
         0.05215    0.00582    0.01749   -0.00668
AFIX 137
H9A   2    1.205239    1.277924    0.789529    11.00000   -1.50000
H9B   2    1.187447    1.314700    0.935657    11.00000   -1.50000
H9C   2    1.071587    1.401920    0.809204    11.00000   -1.50000
AFIX   0
C5    1    0.636546    1.126464    1.068361    11.00000    0.02386    0.02790 =
         0.02278   -0.00559    0.00281   -0.00064
AFIX  43
H5    2    0.735218    1.168458    1.140851    11.00000   -1.20000
AFIX   0
C6    1    0.448824    1.071979    1.088055    11.00000    0.02212    0.02833 =
         0.02111   -0.00178    0.00428    0.00278
C7    1    0.305723    1.004005    0.981488    11.00000    0.02263    0.02315 =
         0.02517   -0.00220    0.00713   -0.00173
AFIX  43
H7    2    0.180373    0.966439    0.994077    11.00000   -1.20000
AFIX   0
C10   1   -0.398578    0.596749    0.777769    11.00000    0.02610    0.02480 =
         0.02412    0.00413    0.00627    0.00366
H7A   2   -0.452778    0.780252    0.439006    11.00000   -1.50000
H7B   2   -0.519843    0.866804    0.550563    11.00000   -1.50000
H6B   2   -0.076073    0.567371    0.496180    11.00000   -1.50000
H6A   2    0.143764    0.616067    0.590232    11.00000   -1.50000
HKLF    4  1.0  1.00  0.00  0.00  0.00  1.00  0.00  0.00  0.00  1.00

REM  140314_AKGRpyz_0m in P2(1)
REM R1 =  0.0271 for    2483 Fo > 4sig(Fo)  and  0.0285 for all    2580 data
REM    185 parameters refined using      6 restraints

END

WGHT      0.0462      0.0366

REM Highest difference peak  0.730,  deepest hole -0.226,  1-sigma level  0.089
Q1    1   0.0570  0.6910  0.4617  11.00000  0.05    0.39
Q2    1  -0.3967  0.9156  0.4643  11.00000  0.05    0.34
Q3    1   0.5229  1.1259  1.0625  11.00000  0.05    0.34
Q4    1   0.4431  1.0175  0.8441  11.00000  0.05    0.32
Q5    1   0.5320  1.2460  0.9048  11.00000  0.05    0.32
Q6    1  -0.5268  0.7572  0.4628  11.00000  0.05    0.31
Q7    1   0.0470  0.8996  0.7746  11.00000  0.05    0.29
Q8    1  -0.1941  0.6681  0.7991  11.00000  0.05    0.29
Q9    1   0.3085  0.9702  0.8188  11.00000  0.05    0.27
Q10   1   0.3329  0.9761  0.9197  11.00000  0.05    0.27
;
_shelx_res_checksum              48692
_shelx_hkl_file
;
   1   0   0   59.44    2.83
   1   0   0   58.40    3.03
  -1   0   0   61.20    2.83
  -2   0   0   12.75    0.69
  -2   0   0   12.21    0.60
   2   0   0   12.23    0.70
  -2   0   0   12.09    0.77
   3   0   0  246.41   11.66
  -3   0   0  248.78   11.66
   3   0   0  244.75   12.44
  -3   0   0  243.90   12.44
   3   0   0  249.85   11.66
  -4   0   0   34.69    1.81
   4   0   0   33.44    1.99
   4   0   0   35.40    1.74
   4   0   0   35.04    1.81
   4   0   0   35.62    1.83
  -4   0   0   34.63    1.99
  -5   0   0   24.31    1.34
   5   0   0   23.13    1.38
   5   0   0   23.25    1.28
   5   0   0   24.03    1.34
   5   0   0   22.58    1.51
  -6   0   0   42.76    2.31
   6   0   0   43.89    2.21
   6   0   0   43.75    2.37
   6   0   0   43.96    2.58
   6   0   0   42.80    2.32
   7   0   0   12.86    1.26
   7   0   0   12.33    1.10
   7   0   0   12.45    0.99
   7   0   0   10.64    1.16
  -7   0   0   12.31    1.04
  -1  -1   0  101.13    4.48
  -1  -1   0  104.28    4.86
  -1  -1   0  102.82    4.57
   1  -1   0  105.82    4.86
   1  -1   0  105.72    4.41
  -1   1   0   85.50    4.52
   1   1   0   83.06    4.47
  -1   1   0   83.03    4.84
  -2  -1   0   77.08    3.57
   2  -1   0   73.16    3.39
   2  -1   0   74.64    3.80
   2  -1   0   78.27    3.52
  -2  -1   0   75.49    3.80
   2   1   0   72.68    3.47
  -2   1   0   71.86    3.79
  -2   1   0   74.14    3.52
   2   1   0   70.03    3.56
   2   1   0   70.34    3.79
  -3  -1   0   40.31    2.23
   3  -1   0   37.28    2.22
  -3  -1   0   39.31    2.07
   3  -1   0   39.82    2.02
   3   1   0   43.48    2.00
   3   1   0   41.63    2.24
   3   1   0   43.04    2.09
  -3   1   0   41.10    2.02
  -3   1   0   41.50    2.22
   3   1   0   41.01    2.08
   4  -1   0   97.92    4.53
  -4  -1   0   92.85    4.30
   4  -1   0   90.00    4.51
  -4  -1   0   90.88    4.88
  -4  -1   0   96.32    4.57
   4  -1   0   90.76    4.89
  -4   1   0   94.32    4.89
  -4   1   0   93.12    4.51
   4   1   0   93.65    4.57
   4   1   0   93.25    4.42
   4   1   0   94.19    4.57
   4   1   0   93.52    4.90
  -5  -1   0   60.50    3.21
   5  -1   0   56.87    2.92
   5  -1   0   58.26    3.22
   5  -1   0   56.02    2.91
   5  -1   0   59.63    2.83
  -5  -1   0   57.96    2.95
   5   1   0   50.41    2.93
  -5   1   0   61.36    2.91
   5   1   0   58.54    2.83
   5   1   0   58.93    2.99
   5   1   0   57.86    3.22
   6  -1   0   14.26    1.03
   6  -1   0   13.70    0.96
   6  -1   0   14.04    1.09
   6  -1   0   13.53    1.20
  -6  -1   0   13.47    1.02
  -6   1   0   15.99    1.02
   6   1   0   16.76    1.01
   6   1   0   16.44    1.05
   6   1   0   16.83    1.22
   6   1   0   16.45    1.20
  -7  -1   0    1.24    0.42
   7  -1   0    1.36    0.56
   7  -1   0    1.73    0.45
   7  -1   0    0.60    0.55
   7  -1   0    1.72    0.53
   7   1   0    1.14    0.64
   7   1   0    0.65    0.45
  -7   1   0    1.66    0.45
   7   1   0    1.59    0.46
   7   1   0    1.43    0.46
   0  -2   0  518.77   21.28
   0  -2   0  474.98   21.66
   0   2   0  426.43   21.66
   0   2   0  426.76   21.27
  -1  -2   0  614.54   30.11
  -1  -2   0  631.56   32.51
  -1  -2   0  639.92   30.67
   1  -2   0  672.13   32.51
   1   2   0  656.58   32.51
   1   2   0  684.42   30.01
   1   2   0  658.52   30.65
   1   2   0  652.12   30.62
   2  -2   0   34.81    1.76
  -2  -2   0   35.42    1.86
   2  -2   0   34.45    1.95
   2  -2   0   36.23    1.73
  -2  -2   0   35.84    1.80
  -2  -2   0   36.07    1.96
   2   2   0   36.45    1.87
   2   2   0   36.65    1.87
  -2   2   0   37.80    1.96
   2   2   0   39.56    1.98
  -2   2   0   39.00    1.76
   2   2   0   38.48    1.80
   3  -2   0  216.88   11.31
  -3  -2   0  224.59   10.64
   3  -2   0  223.96   10.21
  -3  -2   0  228.74   11.32
   3  -2   0  231.71   10.55
   3   2   0  219.65   10.41
  -3   2   0  220.58   11.31
  -3   2   0  229.90   10.54
   3   2   0  224.07   11.32
   3   2   0  223.03   10.64
   3   2   0  220.27   10.64
   4  -2   0   78.72    4.24
   4  -2   0   81.09    3.88
   4  -2   0   81.49    3.88
  -4  -2   0   79.33    3.97
  -4  -2   0   83.02    4.24
   4   2   0   78.65    3.97
   4   2   0   79.48    4.24
   4   2   0   80.11    3.98
  -4   2   0   78.03    3.86
   4   2   0   81.15    3.84
  -5  -2   0    3.08    0.42
   5  -2   0    2.38    0.37
  -5  -2   0    2.84    0.45
   5  -2   0    2.76    0.36
  -5  -2   0    2.96    0.31
   5  -2   0    2.52    0.46
   5   2   0    4.40    0.61
   5   2   0    3.29    0.41
   5   2   0    2.99    0.43
  -5   2   0    3.38    0.38
   5   2   0    3.14    0.48
   6  -2   0   20.24    1.21
  -6  -2   0   22.37    1.30
   6  -2   0   21.46    1.48
   6   2   0   19.64    1.27
  -6   2   0   17.12    1.17
   6   2   0   18.07    1.19
   6   2   0   18.90    1.43
   6   2   0   18.86    1.41
  -7  -2   0   14.35    1.10
   7  -2   0   12.90    1.38
   7  -2   0   12.63    1.13
   7  -2   0   13.34    1.04
   7   2   0   14.86    1.14
   7   2   0   13.20    1.43
  -7   2   0   13.58    1.07
   7   2   0   13.99    1.34
   7   2   0   15.31    1.11
   0  -3   0   -0.29    0.16
   0   3   0   -0.20    0.15
   0   3   0   -0.18    0.14
   0   3   0   -0.12    0.13
  -1  -3   0  403.08   19.28
   1  -3   0  404.49   19.27
   1  -3   0  402.49   19.52
  -1  -3   0  372.41   19.59
   1  -3   0  419.32   20.79
  -1  -3   0  370.82   20.79
   1   3   0  429.72   20.80
   1   3   0  446.24   19.28
  -1   3   0  432.99   19.52
   1   3   0  449.44   19.61
  -1   3   0  427.59   19.54
   1   3   0  450.10   19.61
  -2  -3   0  109.13    5.18
   2  -3   0  107.85    5.17
  -2  -3   0  100.43    4.90
  -2  -3   0  102.42    4.79
   2   3   0   91.13    4.88
   2   3   0   97.28    4.78
   2   3   0  105.12    5.17
   2   3   0   98.12    4.90
   3  -3   0    8.52    0.53
  -3  -3   0    8.57    0.66
  -3  -3   0    8.15    0.67
   3  -3   0    8.50    0.68
  -3  -3   0    8.31    0.62
   3  -3   0    8.64    0.51
   3   3   0   10.03    0.69
   3   3   0    9.89    0.71
   3   3   0    9.98    0.72
  -3   3   0   10.14    0.50
   3   3   0    9.69    0.62
   4  -3   0   45.31    2.11
   4  -3   0   44.31    2.40
  -4  -3   0   43.97    2.25
   4  -3   0   44.39    2.10
  -4  -3   0   45.13    2.39
   4  -3   0   41.50    2.01
  -4   3   0   40.57    2.08
   4   3   0   41.88    2.27
   4   3   0   40.04    2.24
   4   3   0   39.18    2.38
   4   3   0   41.68    2.14
  -5  -3   0   42.72    2.70
   5  -3   0   45.25    2.72
  -5  -3   0   45.59    2.53
   5  -3   0   44.28    2.39
   5  -3   0   43.01    2.38
   5   3   0   51.41    2.60
  -5   3   0   52.02    2.38
   5   3   0   50.10    2.43
   5   3   0   50.63    2.56
   5   3   0   53.98    2.78
   6  -3   0    4.85    0.54
  -6  -3   0    4.22    0.53
  -6  -3   0    4.59    0.58
   6  -3   0    4.00    0.65
   6  -3   0    4.75    0.63
   6   3   0    6.54    0.72
   6   3   0    4.86    0.67
  -6   3   0    5.26    0.57
   6   3   0    5.18    0.72
   6   3   0    5.79    0.69
   7  -3   0   17.75    1.27
   7  -3   0   18.78    1.22
  -7  -3   0   18.24    1.29
   7  -3   0   16.61    1.60
   7  -3   0   15.85    1.25
   7   3   0   18.72    1.62
   7   3   0   14.72    1.55
   7   3   0   17.86    1.30
   7   3   0   15.11    1.32
   0   4   0    1.31    0.21
   0   4   0    1.25    0.21
   0   4   0    1.46    0.24
  -1  -4   0  249.02   11.09
   1  -4   0  232.42   10.34
  -1  -4   0  231.41   10.51
  -1  -4   0  222.63   10.34
   1  -4   0  239.18   11.09
   1   4   0  204.94   10.49
   1   4   0  204.10   10.33
   1   4   0  220.79   11.09
  -1   4   0  219.61   10.42
  -1   4   0  216.84   10.42
   1   4   0  199.62   10.49
  -2  -4   0  205.43    9.63
  -2  -4   0  192.00    9.11
  -2  -4   0  195.21    8.94
   2  -4   0  192.74    9.62
   2   4   0  184.61    9.10
   2   4   0  184.62    8.93
   2   4   0  181.46    9.10
   2   4   0  192.23    9.62
   3  -4   0  135.94    6.85
  -3  -4   0  138.87    6.50
  -3  -4   0  137.75    6.85
   3  -4   0  137.17    6.20
  -3  -4   0  135.72    6.34
   3   4   0  133.34    6.49
   3   4   0  131.09    6.48
   3   4   0  129.66    6.85
   3   4   0  126.24    6.33
  -4  -4   0   59.44    3.15
  -4  -4   0   60.49    3.05
   4  -4   0   63.09    3.34
   4  -4   0   62.34    2.94
  -4  -4   0   59.12    3.31
   4  -4   0   60.50    2.95
   4  -4   0   61.79    2.91
   4   4   0   62.22    3.17
   4   4   0   65.60    3.05
   4   4   0   58.93    3.33
   4   4   0   62.52    3.18
   5  -4   0    9.38    0.96
   5  -4   0    9.79    0.64
  -5  -4   0   10.09    0.85
   5  -4   0    9.36    0.67
   5  -4   0    9.03    0.57
   5   4   0    9.41    0.95
   5   4   0    7.66    0.91
   5   4   0   10.20    0.79
   5   4   0    9.99    0.86
  -6  -4   0   21.22    1.40
   6  -4   0   22.19    1.22
   6  -4   0   21.95    1.24
   6  -4   0   22.71    1.62
   6   4   0   20.12    1.42
   6   4   0   21.08    1.35
   6   4   0   16.85    1.56
   6   4   0   20.56    1.55
   7  -4   0    9.26    1.00
   7  -4   0    9.44    0.92
  -7  -4   0   10.53    1.05
   7  -4   0    8.51    1.16
  -7  -4   0    9.65    0.86
  -7  -4   0    9.66    0.80
   7   4   0   13.07    1.52
   7   4   0   10.14    1.46
   7   4   0   11.17    1.11
   7   4   0   10.39    1.13
   0  -5   0    0.07    0.19
   0  -5   0   -0.12    0.17
   0   5   0    0.05    0.18
   0   5   0   -0.03    0.17
   0   5   0    0.07    0.17
   1  -5   0   46.41    2.62
  -1  -5   0   47.01    2.55
  -1  -5   0   45.69    2.63
  -1  -5   0   47.82    2.58
   1  -5   0   44.96    2.53
   1   5   0   52.59    2.58
  -1   5   0   59.19    2.50
   1   5   0   53.88    2.59
  -1   5   0   54.85    2.51
   1   5   0   57.21    2.65
   1   5   0   58.41    2.57
   2  -5   0  102.73    5.58
  -2  -5   0   96.72    5.33
  -2  -5   0  103.04    5.24
  -2  -5   0  103.88    5.59
   2  -5   0   98.61    5.22
   2   5   0  122.68    5.36
   2   5   0  126.24    5.61
   2   5   0  116.63    5.26
   2   5   0  120.16    5.37
  -3  -5   0    6.18    0.61
   3  -5   0    6.24    0.51
   3  -5   0    6.26    0.58
   3  -5   0    6.17    0.59
  -3  -5   0    6.26    0.61
   3   5   0    7.07    0.66
   3   5   0    6.15    0.67
   3   5   0    7.25    0.66
   3   5   0    6.70    0.58
  -4  -5   0   15.24    1.14
   4  -5   0   15.24    0.96
  -4  -5   0   16.49    1.17
   4  -5   0   15.64    1.17
  -4  -5   0   16.06    1.09
   4   5   0   21.09    1.25
   4   5   0   21.20    1.22
  -5  -5   0   51.17    3.02
   5  -5   0   57.51    2.73
   5  -5   0   61.21    3.24
   5   5   0   56.18    3.22
   5   5   0   55.17    3.08
   5   5   0   58.67    2.92
   5   5   0   59.21    3.08
  -6  -5   0    6.32    0.84
   6  -5   0    5.69    0.81
   6   5   0    5.47    0.68
   6   5   0    6.04    0.86
   6   5   0    4.38    0.78
   6   5   0    3.81    0.70
  -7  -5   0   10.69    1.09
   7  -5   0    8.64    1.13
  -7  -5   0    7.75    0.99
  -7  -5   0    8.09    0.95
   7  -5   0    9.08    0.86
   7   5   0    8.08    0.92
   7   5   0    8.03    1.16
   7   5   0    6.91    0.92
   7   5   0    5.30    1.04
   0  -6   0  121.24    5.84
   0  -6   0  121.59    5.87
   0   6   0  122.75    5.87
   0   6   0  124.27    5.87
   1  -6   0   11.87    0.75
  -1  -6   0   11.98    0.76
   1   6   0    8.92    0.74
  -1   6   0    9.48    0.59
   1   6   0    9.05    0.69
   1   6   0    9.56    0.68
   2  -6   0   10.98    0.83
   2  -6   0   11.00    0.77
  -2  -6   0   10.23    0.86
  -2  -6   0   11.61    0.77
  -2  -6   0   10.75    0.83
   2   6   0   14.37    0.93
   2   6   0   14.51    0.82
   2   6   0   14.02    0.86
   2   6   0   13.28    0.81
  -3  -6   0  140.83    6.84
   3  -6   0  148.94    7.16
   3  -6   0  140.51    6.66
  -3  -6   0  143.88    7.15
  -3  -6   0  140.17    6.68
   3  -6   0  141.39    6.54
   3   6   0  133.61    6.67
   3   6   0  139.12    7.15
   3   6   0  131.32    6.81
   3   6   0  139.92    6.83
  -4  -6   0    5.90    0.80
   4  -6   0    5.17    0.66
   4  -6   0    5.66    0.72
  -4  -6   0    5.84    0.73
   4  -6   0    5.87    0.58
   4   6   0    7.92    0.83
   4   6   0    6.75    0.85
   4   6   0    7.34    0.71
  -5  -6   0    4.76    0.69
   5  -6   0    4.56    0.61
  -5  -6   0    5.52    0.68
   5  -6   0    4.96    0.68
   5  -6   0    5.42    0.60
   5   6   0    6.10    0.77
   5   6   0    5.23    0.75
   5   6   0    5.68    0.76
   5   6   0    5.00    0.63
   6  -6   0    8.10    0.96
  -6  -6   0    8.90    1.12
   6  -6   0    7.08    0.97
   6   6   0    9.47    1.06
   6   6   0    7.68    1.00
   6   6   0   10.60    1.15
   6   6   0    7.93    0.97
   0  -7   0   -0.08    0.20
   0  -7   0   -0.07    0.22
   0   7   0   -0.25    0.17
   0   7   0   -0.02    0.25
   1  -7   0   24.37    1.46
  -1  -7   0   25.28    1.49
  -1  -7   0   24.37    1.47
   1   7   0   27.81    1.46
   1   7   0   27.33    1.47
   1   7   0   26.34    1.49
  -1   7   0   27.54    1.37
  -2  -7   0   51.93    2.77
   2  -7   0   52.64    2.82
   2  -7   0   51.64    2.76
  -2  -7   0   52.16    2.82
   2   7   0   55.36    2.84
   2   7   0   58.49    2.86
   2   7   0   56.81    2.77
   2   7   0   56.29    2.83
   3  -7   0    1.43    0.35
  -3  -7   0    1.60    0.40
   3  -7   0    1.46    0.35
  -3  -7   0    1.58    0.46
   3  -7   0    1.47    0.38
   3   7   0    1.78    0.50
   3   7   0    2.15    0.41
   3   7   0    2.01    0.41
   3   7   0    1.98    0.39
  -4  -7   0   33.98    1.95
  -4  -7   0   35.10    2.05
   4  -7   0   35.42    1.82
   4  -7   0   35.27    1.91
   4  -7   0   35.58    2.02
   4   7   0   32.03    1.91
   4   7   0   29.67    2.06
   4   7   0   34.39    2.07
   4   7   0   34.80    2.04
  -5  -7   0   27.96    1.77
   5  -7   0   27.98    1.56
   5  -7   0   27.73    1.67
  -5  -7   0   27.70    1.86
   5  -7   0   28.61    1.87
   5   7   0   26.33    1.70
   5   7   0   28.57    1.96
   5   7   0   26.08    1.89
   5   7   0   29.81    1.95
   6  -7   0    2.21    0.49
   6  -7   0    3.11    0.62
   6  -7   0    2.74    0.77
  -6  -7   0    3.44    0.76
   6   7   0    2.31    0.70
   6   7   0    2.98    0.83
   6   7   0    2.92    0.89
   6   7   0    1.58    0.74
   0  -8   0   64.29    3.44
   0  -8   0   75.13    3.45
   0   8   0   65.49    3.41
   0   8   0   70.02    3.42
   1  -8   0   24.23    1.47
  -1  -8   0   25.05    1.49
  -1  -8   0   22.03    1.44
  -1   8   0   27.12    1.35
   1   8   0   26.18    1.50
   1   8   0   23.56    1.42
   1   8   0   26.63    1.45
  -2  -8   0   15.38    1.17
   2  -8   0   16.44    1.12
  -2  -8   0   14.74    1.09
   2  -8   0   14.72    0.93
   2   8   0   16.06    1.06
   2   8   0   18.03    1.08
   2   8   0   16.05    1.19
  -3  -8   0    0.75    0.45
  -3  -8   0    0.46    0.38
   3  -8   0    1.07    0.38
   3  -8   0    0.72    0.40
   3  -8   0    0.35    0.31
   3   8   0    0.05    0.30
   3   8   0   -0.15    0.30
   3   8   0    0.12    0.49
   4  -8   0   18.87    1.34
  -4  -8   0   20.59    1.51
   4  -8   0   20.73    1.36
  -4  -8   0   17.68    1.39
   4  -8   0   21.06    1.25
   4   8   0   19.39    1.57
   4   8   0   17.76    1.41
   4   8   0   17.57    1.38
   4   8   0   18.77    1.35
  -5  -8   0    1.74    0.66
  -5  -8   0    2.04    0.73
   5  -8   0    1.27    0.50
   5  -8   0    1.97    0.59
   5  -8   0    0.98    0.55
   5   8   0    1.87    0.62
   5   8   0    1.93    0.66
   5   8   0    1.58    0.64
   5   8   0    1.06    0.79
   0  -9   0   -0.03    0.32
   0  -9   0    0.11    0.29
   0   9   0   -0.09    0.25
   0   9   0   -0.26    0.31
   1  -9   0   37.73    2.06
  -1  -9   0   36.77    2.05
  -1  -9   0   39.31    2.07
   1   9   0   33.52    2.05
  -1   9   0   36.46    1.91
   1   9   0   36.60    2.00
   2  -9   0   50.61    2.84
  -2  -9   0   52.18    2.90
   2   9   0   54.77    2.91
  -2   9   0   54.73    2.61
   2   9   0   55.10    2.84
   2   9   0   54.34    2.82
  -2   9   0   54.28    2.62
   3  -9   0    6.15    0.70
   3  -9   0    7.53    0.92
   3  -9   0    6.14    0.82
  -3  -9   0    7.72    0.92
  -3  -9   0    7.71    1.02
   3   9   0    6.87    0.79
   3   9   0    6.14    0.82
   3   9   0    6.61    0.86
   4  -9   0   25.15    1.60
   4  -9   0   24.80    1.69
  -4  -9   0   26.28    1.85
   4  -9   0   24.67    1.67
  -4  -9   0   25.06    1.75
   4   9   0   25.54    1.75
   4   9   0   27.09    1.74
   4   9   0   28.34    2.01
   4   9   0   26.06    1.76
   5  -9   0   10.17    1.31
  -5  -9   0   10.70    1.22
   5  -9   0   12.88    1.33
   5  -9   0   12.02    1.15
  -5  -9   0   11.54    1.40
   5   9   0   11.34    1.37
   5   9   0   10.77    1.39
   5   9   0   12.62    1.46
   5   9   0   13.50    1.46
   0 -10   0   22.27    1.34
   0  10   0   16.90    1.23
   0  10   0   16.76    1.16
  -1 -10   0   11.43    0.95
  -1 -10   0   12.18    1.05
   1 -10   0   10.61    0.98
   1  10   0   10.59    0.87
  -1  10   0   10.58    0.83
  -1  10   0   10.24    0.79
   1  10   0   10.39    1.10
  -2 -10   0    6.14    0.81
  -2 -10   0    7.81    1.01
   2 -10   0    5.87    0.72
   2  10   0    5.16    0.77
  -2  10   0    5.26    0.51
   2  10   0    4.83    0.58
  -3 -10   0   18.60    1.56
   3 -10   0   17.96    1.48
   3 -10   0   17.19    1.34
   3 -10   0   17.67    1.17
  -3 -10   0   18.13    1.42
   3  10   0   19.75    1.39
   3  10   0   19.69    1.34
   3  10   0   20.14    1.69
   4 -10   0    3.67    0.67
   4 -10   0    2.42    0.59
  -4 -10   0    3.01    0.80
  -4 -10   0    2.83    0.73
   4 -10   0    3.47    0.71
   4  10   0    2.80    0.96
   4  10   0    2.31    0.61
   4  10   0    1.96    0.61
   4  10   0    2.22    0.69
   0 -11   0   -0.79    0.39
   0  11   0   -0.48    0.33
   0  11   0   -0.04    0.47
  -1 -11   0   14.49    1.32
  -1 -11   0   14.30    1.16
   1 -11   0   15.34    1.30
   1  11   0   16.52    1.13
   1  11   0   16.36    1.39
  -1  11   0   14.71    1.07
  -1  11   0   16.03    1.03
   2 -11   0   14.05    1.33
  -2 -11   0   16.65    1.27
  -2 -11   0   16.88    1.43
   2  11   0   11.01    1.08
   2  11   0   13.65    1.49
   3 -11   0    1.39    0.63
   3 -11   0    1.15    0.64
  -3 -11   0    1.30    0.66
  -3 -11   0    1.07    0.75
   3  11   0    1.90    0.90
   3  11   0    1.97    0.52
   0 -12   0   17.54    1.39
   0  12   0   16.18    1.40
   0  12   0   17.77    1.25
  -1 -12   0    1.20    0.51
   1 -12   0    0.59    0.59
  -1  12   0    0.13    0.45
   1  12   0    1.47    0.74
  -1  12   0    0.81    0.43
   1  12   0    0.72    0.47
  -2 -12   0    4.48    0.71
  -2 -12   0    2.75    0.86
   2 -12   0    4.54    0.86
   2  12   0    2.58    0.93
   2  12   0    2.65    0.54
   7   0  -1    2.99    0.39
   7   0  -1    2.72    0.56
   7   0  -1    2.71    0.63
   7   0  -1    2.49    0.54
  -7   0   1    3.10    0.53
   6   0  -1   24.75    1.61
   6   0  -1   24.10    1.29
  -6   0   1   25.24    1.41
   6   0  -1   23.81    1.49
   6   0  -1   22.73    1.42
   5   0  -1  137.93    7.23
  -5   0   1  138.14    6.38
   5   0  -1  135.29    6.71
  -5   0   1  140.01    6.71
   5   0  -1  143.02    6.50
   5   0  -1  140.38    6.72
   4   0  -1  110.74    5.07
   4   0  -1  110.83    5.24
   4   0  -1  105.72    5.24
   4   0  -1  107.26    5.64
  -4   0   1  110.37    5.00
  -4   0   1  106.54    5.23
   3   0  -1  162.68    7.21
   3   0  -1  153.45    7.91
   3   0  -1  155.94    7.39
   3   0  -1  155.49    7.39
  -3   0   1  152.22    7.39
  -3   0   1  154.34    7.14
  -2   0   1   88.40    4.06
   2   0  -1   88.83    4.19
   2   0  -1   86.01    4.49
  -2   0   1   85.61    4.19
   2   0  -1   88.36    4.19
   2   0  -1   91.99    4.07
  -2   0   1   86.56    4.19
   1   0  -1    8.26    0.44
   1   0  -1    8.30    0.46
  -1   0   1    7.54    0.46
  -1   0   1    8.31    0.45
  -1   0  -1  438.46   20.45
   1   0   1  423.36   21.70
   1   0   1  426.48   20.42
   1   0   1  451.79   19.81
   2   0   1  146.93    7.42
  -2   0  -1  146.31    7.42
   2   0   1  149.43    6.95
  -2   0  -1  143.42    6.95
  -3   0  -1   63.74    3.33
   3   0   1   64.70    3.35
  -3   0  -1   60.56    3.08
   3   0   1   62.95    3.09
   4   0   1   63.61    3.00
  -4   0  -1   60.88    3.32
   4   0   1   63.08    3.07
   4   0   1   58.96    3.32
  -4   0  -1   60.34    3.06
  -5   0  -1    0.67    0.25
   5   0   1    0.20    0.29
   5   0   1    0.86    0.35
   5   0   1    0.54    0.30
  -5   0  -1    0.75    0.31
   5   0   1    0.66    0.23
   6   0   1    0.12    0.35
  -6   0  -1    0.66    0.31
  -6   0  -1    0.48    0.36
   6   0   1    0.60    0.45
   6   0   1    0.41    0.32
   6   0   1    0.23    0.35
   7   0   1   14.38    1.33
   7   0   1   14.66    1.36
   7   0   1   14.08    1.19
   7   0   1   15.57    1.18
  -7   0  -1   14.15    1.15
   7  -1  -1   17.85    1.05
   7  -1  -1   19.04    1.47
   7  -1  -1   15.89    1.28
  -7  -1   1   17.33    1.23
   7  -1  -1   17.85    1.33
   7   1  -1   17.98    1.09
   7   1  -1   18.53    1.46
   7   1  -1   18.60    1.46
   7   1  -1   18.19    1.27
  -7   1   1   17.73    1.23
   6  -1  -1    7.42    0.85
   6  -1  -1    8.12    0.60
   6  -1  -1    7.67    0.74
   6  -1  -1    7.87    0.79
  -6  -1   1    7.05    0.70
   6   1  -1    7.88    0.63
  -6   1   1    8.36    0.70
   6   1  -1    8.81    0.87
   6   1  -1    9.39    0.91
   6   1  -1    7.61    0.72
   5  -1  -1    6.83    0.59
   5  -1  -1    7.16    0.50
   5  -1  -1    7.60    0.64
  -5  -1   1    7.52    0.62
   5  -1  -1    7.56    0.73
  -5  -1   1    7.18    0.50
   5   1  -1    5.97    0.70
   5   1  -1    5.58    0.58
  -5   1   1    6.17    0.56
   5   1  -1    5.74    0.50
   5   1  -1    5.86    0.69
   4  -1  -1   25.07    1.34
  -4  -1   1   25.17    1.39
  -4  -1   1   26.39    1.27
   4  -1  -1   24.52    1.52
   4   1  -1   25.41    1.41
  -4   1   1   24.57    1.33
   4   1  -1   24.57    1.52
   4   1  -1   25.34    1.28
   4   1  -1   25.88    1.40
  -4   1   1   25.60    1.23
  -3   1   1   15.58    0.87
   3   1  -1   16.65    0.83
   3   1  -1   16.40    0.94
   3   1  -1   15.06    0.93
  -3   1   1   16.73    0.82
   3   1  -1   16.53    1.02
   2  -1  -1   89.31    3.97
   2  -1  -1   84.44    3.86
  -2  -1   1   88.56    3.90
  -2  -1   1   84.94    4.02
   2  -1  -1   88.11    3.97
  -2  -1   1   86.68    4.02
  -2   1   1   83.06    3.97
   2   1  -1   84.78    3.90
   2   1  -1   75.42    4.01
  -2   1   1   81.03    3.86
   2   1  -1   79.97    4.28
   2   1  -1   75.43    4.01
  -1  -1   1  244.86   11.40
  -1  -1   1  241.28   11.62
   1  -1  -1  239.69   11.28
   1  -1  -1  229.16   11.39
   1  -1  -1  236.87   11.58
  -1  -1   1  239.12   11.62
  -1   1   1  256.86   11.28
   1   1  -1  259.39   11.63
  -1   1   1  254.28   11.41
   1   1  -1  272.76   11.63
   0  -1  -1  263.23   14.07
   0  -1   1  297.29   14.07
   0  -1  -1  294.23   13.66
   0  -1  -1  292.06   13.81
   0   1  -1  324.83   14.08
   0   1   1  308.71   13.84
   0   1   1  307.66   14.08
   0   1   1  309.54   13.64
   1  -1   1   94.16    4.53
   1  -1   1   98.06    4.83
  -1  -1  -1   97.05    4.84
  -1  -1  -1   97.16    4.39
   1   1   1   92.09    4.84
   1   1   1   92.47    4.55
  -1   1  -1   97.18    4.53
  -1   1  -1   95.23    4.83
   1   1   1   93.54    4.47
   2  -1   1   63.51    3.22
  -2  -1  -1   63.55    3.22
  -2  -1  -1   64.08    3.02
   2  -1   1   63.88    2.99
   2   1   1   59.22    3.02
   2   1   1   57.92    3.22
  -2   1  -1   62.68    2.98
  -2   1  -1   59.02    3.21
   2   1   1   62.03    2.95
   3  -1   1  143.26    7.37
   3  -1   1  147.11    6.87
  -3  -1  -1  143.39    6.59
  -3  -1  -1  143.83    6.91
  -3  -1  -1  142.42    7.36
   3   1   1  142.98    7.37
  -3   1  -1  144.40    6.86
   3   1   1  142.89    6.91
   3   1   1  147.31    6.77
  -3   1  -1  144.81    7.36
   4  -1   1    5.89    0.63
   4  -1   1    5.77    0.48
  -4  -1  -1    5.62    0.51
  -4  -1  -1    5.81    0.57
   4   1   1    4.63    0.60
  -4   1  -1    5.35    0.57
  -4   1  -1    5.54    0.47
   4   1   1    5.18    0.53
   4   1   1    4.92    0.50
   5  -1   1  119.98    6.23
  -5  -1  -1  123.18    5.79
   5  -1   1  108.54    5.73
   5  -1   1  119.59    5.76
  -5  -1  -1  123.28    6.23
  -5   1  -1  118.69    5.74
  -5   1  -1  118.69    6.21
   5   1   1  117.46    5.64
   5   1   1  119.27    5.79
   5   1   1  116.52    5.81
   5   1   1  115.79    6.22
   6  -1   1   39.49    2.29
   6  -1   1   40.74    2.24
   6  -1   1   39.74    2.33
  -6  -1  -1   43.49    2.54
  -6  -1  -1   43.01    2.32
   6  -1   1   41.32    2.58
  -6   1  -1   44.75    2.29
   6   1   1   44.96    2.34
   6   1   1   44.26    2.43
   6   1   1   45.93    2.28
   6   1   1   44.25    2.60
   7  -1   1    4.43    0.74
   7  -1   1    4.51    0.65
   7  -1   1    3.95    0.66
  -7  -1  -1    3.59    0.56
   7  -1   1    2.32    0.64
   7   1   1    3.60    0.57
   7   1   1    2.98    0.64
  -7   1  -1    3.72    0.59
   7   1   1    2.96    0.61
   7   1   1    3.01    0.75
   7  -2  -1    0.81    0.45
  -7  -2   1    0.82    0.36
   7  -2  -1   -0.11    0.53
   7  -2  -1    1.07    0.53
   7  -2  -1    0.56    0.32
   7   2  -1    0.80    0.50
   7   2  -1    0.57    0.60
   7   2  -1    1.38    0.42
   7   2  -1    0.81    0.39
   6  -2  -1   23.46    1.61
  -6  -2   1   20.88    1.37
  -6  -2   1   21.12    1.21
   6  -2  -1   20.71    1.32
   6  -2  -1   21.55    1.22
   6  -2  -1   21.14    1.35
   6   2  -1   24.35    1.53
   6   2  -1   24.84    1.42
   6   2  -1   23.93    1.28
  -6   2   1   23.71    1.31
   6   2  -1   25.63    1.61
   5  -2  -1   63.02    3.09
   5  -2  -1   61.03    3.08
  -5  -2   1   61.89    2.97
   5  -2  -1   61.43    3.43
  -5  -2   1   62.27    3.18
   5   2  -1   66.10    3.24
   5   2  -1   60.62    3.43
   5   2  -1   57.65    3.17
  -5   2   1   65.53    3.08
   5   2  -1   64.51    3.03
   4  -2  -1   28.54    1.62
   4  -2  -1   27.46    1.39
   4  -2  -1   26.61    1.31
  -4  -2   1   26.34    1.48
   4  -2  -1   27.80    1.39
   4   2  -1   25.91    1.48
  -4   2   1   26.48    1.37
   4   2  -1   26.24    1.60
   4   2  -1   26.85    1.51
   4   2  -1   26.02    1.37
  -3  -2   1   12.89    0.85
   3  -2  -1   12.64    0.91
   3  -2  -1   12.89    0.74
   3  -2  -1   13.13    0.74
   3  -2  -1   12.45    0.74
  -3  -2   1   13.25    0.77
   3   2  -1   16.08    0.88
   3   2  -1   16.34    0.78
   3   2  -1   15.58    0.89
   3   2  -1   15.11    0.93
   2  -2  -1  328.98   14.60
   2  -2  -1  318.69   14.23
  -2  -2   1  289.21   14.69
   2  -2  -1  338.09   14.61
   2  -2  -1  307.70   15.62
  -2  -2   1  309.87   14.41
  -2  -2   1  318.17   14.70
   2  -2  -1  317.64   14.40
   2   2  -1  293.21   14.69
  -2   2   1  308.64   14.23
   2   2  -1  316.13   14.41
   2   2  -1  301.98   15.61
   2   2  -1  305.56   14.70
   1  -2  -1  504.29   24.08
  -1  -2   1  578.98   24.50
   1  -2  -1  516.32   23.78
  -1  -2   1  561.71   24.08
   1  -2  -1  499.56   24.45
  -1  -2   1  501.29   24.49
   1   2  -1  551.52   24.08
  -1   2   1  482.34   24.47
  -1   2   1  511.95   24.08
   1   2  -1  467.38   24.48
   1   2  -1  569.93   24.50
   0  -2  -1  311.51   16.07
   0  -2  -1  364.21   15.83
   0  -2   1  348.30   16.07
   0   2   1  333.72   15.82
   0   2  -1  360.79   16.07
   0   2  -1  347.80   17.09
   0   2   1  333.60   16.07
  -1  -2  -1  925.27   42.36
  -1  -2  -1  992.09   45.97
   1  -2   1 1000.00   45.91
   1  -2   1  968.55   43.06
  -1  -2  -1  989.46   43.28
  -1   2  -1  821.55   43.06
   1   2   1  874.60   42.36
  -1   2  -1  889.46   45.86
   1   2   1  874.92   45.87
   1   2   1  855.44   43.20
  -2  -2  -1  229.93   10.77
  -2  -2  -1  243.55   10.97
   2  -2   1  247.86   10.91
  -2  -2  -1  240.54   11.66
   2  -2   1  245.04   11.66
   2   2   1  227.61   10.77
   2   2   1  214.59   10.96
   2   2   1  220.46   11.65
  -2   2  -1  219.11   11.64
  -2   2  -1  228.89   10.89
  -3  -2  -1   22.21    1.36
   3  -2   1   23.35    1.38
  -3  -2  -1   21.78    1.27
   3  -2   1   24.09    1.21
   3   2   1   23.29    1.24
  -3   2  -1   23.75    1.37
   3   2   1   22.95    1.38
  -3   2  -1   23.07    1.20
  -4  -2  -1   78.62    4.28
   4  -2   1   77.39    4.29
   4  -2   1   80.42    3.94
  -4  -2  -1   78.03    4.01
   4   2   1   80.61    4.30
  -4   2  -1   82.60    3.93
   4   2   1   84.05    3.92
  -4   2  -1   84.57    4.30
   4   2   1   81.95    4.03
  -5  -2  -1   21.06    1.43
   5  -2   1   20.78    1.28
  -5  -2  -1   22.66    1.34
   5  -2   1   21.46    1.51
   5   2   1   22.63    1.35
   5   2   1   23.19    1.53
   5   2   1   23.52    1.45
  -5   2  -1   23.35    1.27
  -5   2  -1   22.45    1.46
   5   2   1   22.58    1.31
   6  -2   1   21.22    1.35
  -6  -2  -1   23.21    1.36
   6  -2   1   22.06    1.34
   6  -2   1   21.63    1.57
  -6  -2  -1   23.74    1.52
   6   2   1   20.07    1.36
   6   2   1   19.86    1.52
   6   2   1   19.24    1.51
   6   2   1   20.06    1.35
  -6   2  -1   20.99    1.29
   7  -2   1   23.97    1.49
   7  -2   1   23.11    1.55
  -7  -2  -1   23.10    1.47
   7  -2   1   22.25    1.52
   7  -2   1   20.17    1.75
   7   2   1   21.27    1.50
   7   2   1   20.20    1.75
   7   2   1   19.54    1.46
   7   2   1   19.17    1.68
  -7   2  -1   21.55    1.42
  -7  -3   1   24.31    1.37
  -7  -3   1   25.30    1.60
   7  -3  -1   24.85    1.41
   7  -3  -1   23.99    1.52
   7  -3  -1   23.55    1.52
   7  -3  -1   27.04    1.94
   7  -3  -1   24.24    1.39
   7   3  -1   25.91    1.49
   7   3  -1   27.94    1.88
   7   3  -1   26.22    1.90
   7   3  -1   24.79    1.64
   6  -3  -1    7.80    0.73
   6  -3  -1    7.91    0.70
  -6  -3   1    9.03    0.79
  -6  -3   1    8.05    0.70
   6  -3  -1    8.34    1.02
   6   3  -1    9.61    0.84
   6   3  -1    9.50    1.03
   6   3  -1    9.99    1.05
   6   3  -1    9.33    0.74
  -5  -3   1   30.57    1.68
   5  -3  -1   29.65    1.44
   5  -3  -1   31.83    1.85
   5  -3  -1   30.56    1.53
   5  -3  -1   30.04    1.52
   5   3  -1   27.56    1.66
   5   3  -1   27.62    1.81
   5   3  -1   28.38    1.74
   5   3  -1   26.84    1.54
   4  -3  -1  173.04    8.31
   4  -3  -1  175.38    8.31
  -4  -3   1  171.30    8.24
  -4  -3   1  173.26    8.47
   4  -3  -1  168.25    9.00
   4  -3  -1  166.08    8.10
   4   3  -1  183.09    8.49
   4   3  -1  186.49    9.02
   4   3  -1  178.48    8.48
   4   3  -1  187.92    8.25
  -3  -3   1   10.12    0.63
  -3  -3   1   10.94    0.72
   3  -3  -1   10.30    0.60
   3  -3  -1    9.62    0.72
   3   3  -1    9.13    0.62
   3   3  -1    9.41    0.72
   3   3  -1    9.64    0.71
   3   3  -1    9.32    0.72
  -2  -3   1   59.97    3.01
   2  -3  -1   60.63    2.91
  -2  -3   1   58.88    2.92
  -2  -3   1   58.45    3.01
   2  -3  -1   59.44    2.88
   2  -3  -1   60.82    3.16
   2   3  -1   62.72    3.16
   2   3  -1   64.53    3.03
   2   3  -1   64.39    2.93
  -1  -3   1  175.19    8.46
  -1  -3   1  180.40    8.61
   1  -3  -1  183.06    8.36
   1  -3  -1  186.44    8.46
  -1  -3   1  183.39    8.61
   1  -3  -1  189.19    8.54
   1   3  -1  174.85    8.61
   1   3  -1  177.06    9.09
  -1   3   1  176.59    8.45
   1   3  -1  184.10    8.62
  -1   3   1  192.33    8.54
   1   3  -1  178.32    8.46
   0  -3  -1  106.15    4.74
   0  -3   1  111.95    4.74
   0  -3   1  100.32    4.69
   0   3   1   91.48    4.67
   0   3  -1   96.45    4.73
   0   3  -1   97.56    4.73
   0   3   1   92.35    4.73
  -1  -3  -1  145.26    6.75
   1  -3   1  147.67    6.68
  -1  -3  -1  147.58    7.13
  -1  -3  -1  132.23    6.63
   1  -3   1  147.41    7.12
  -1   3  -1  142.08    7.11
  -1   3  -1  144.81    6.68
   1   3   1  139.01    7.13
   1   3   1  135.72    6.74
   1   3   1  133.72    6.63
  -2  -3  -1  183.17    8.99
   2  -3   1  176.53    8.97
  -2  -3  -1  179.33    8.32
  -2  -3  -1  178.72    8.48
   2  -3   1  182.84    8.38
  -2   3  -1  182.30    8.37
   2   3   1  176.34    8.48
  -2   3  -1  171.21    8.97
   2   3   1  175.21    8.32
   2   3   1  174.13    8.99
  -3  -3  -1   46.66    2.34
   3  -3   1   45.19    2.12
   3  -3   1   46.65    2.22
   3  -3   1   44.94    2.46
  -3  -3  -1   43.52    2.45
  -3  -3  -1   46.36    2.27
   3   3   1   44.88    2.47
  -3   3  -1   44.05    2.20
  -3   3  -1   44.55    2.45
   3   3   1   43.65    2.26
   3   3   1   46.92    2.35
  -4  -3  -1   20.40    1.27
  -4  -3  -1   19.45    1.20
   4  -3   1   20.07    1.08
   4  -3   1   19.97    1.30
   4   3   1   18.42    1.14
   4   3   1   18.95    1.20
   4   3   1   20.37    1.26
  -4   3  -1   19.89    1.28
  -4   3  -1   19.17    1.06
   4   3   1   19.15    1.30
   5  -3   1   13.83    1.15
  -5  -3  -1   13.82    0.98
   5  -3   1   13.47    0.89
  -5  -3  -1   13.76    1.08
   5  -3   1   13.73    0.91
  -5  -3  -1   12.66    0.79
  -6  -3  -1   43.16    2.54
   6  -3   1   43.23    2.60
   6  -3   1   41.97    2.22
  -6  -3  -1   42.56    2.31
   6  -3   1   41.08    2.20
   6   3   1   40.05    2.24
  -6   3  -1   39.43    2.16
   6   3   1   39.94    2.41
   6   3   1   41.56    2.57
   6   3   1   41.93    2.33
   7  -3   1    3.97    0.68
   7  -3   1    2.20    0.79
   7  -3   1    4.05    0.70
  -7  -3  -1    4.36    0.62
   7  -3   1    4.35    0.69
   7   3   1    4.09    0.89
  -7   3  -1    5.01    0.57
   7   3   1    3.30    0.65
   7   3   1    4.52    0.94
   7   3   1    4.97    0.74
  -7  -4   1    1.34    0.49
   7  -4  -1    0.94    0.44
   7  -4  -1    1.62    0.42
   7  -4  -1    1.77    0.71
   7  -4  -1    0.74    0.42
  -7  -4   1    1.76    0.47
   7   4  -1    0.93    0.73
   7   4  -1    0.09    0.46
   7   4  -1   -0.07    0.59
   7   4  -1    1.53    0.52
  -6  -4   1   25.02    1.54
   6  -4  -1   25.32    1.38
   6  -4  -1   20.74    1.31
   6  -4  -1   26.47    1.76
   6  -4  -1   25.25    1.32
   6   4  -1   23.51    1.43
   6   4  -1   24.27    1.57
   6   4  -1   25.08    1.75
   6   4  -1   25.64    1.71
  -5  -4   1   16.19    1.08
   5  -4  -1   16.03    0.94
   5  -4  -1   16.25    1.19
   5  -4  -1   15.86    0.89
   5   4  -1   14.05    1.06
   5   4  -1   14.16    1.16
   5   4  -1   14.60    1.18
   5   4  -1   13.52    0.96
   4  -4  -1    3.38    0.36
  -4  -4   1    3.44    0.43
   4  -4  -1    3.30    0.43
  -4  -4   1    3.41    0.40
   4  -4  -1    2.42    0.41
   4   4  -1    2.80    0.36
   4   4  -1    3.15    0.44
   4   4  -1    3.54    0.51
   4   4  -1    2.90    0.44
   3  -4  -1  109.43    5.54
  -3  -4   1  105.67    5.25
  -3  -4   1  107.04    5.11
   3  -4  -1  108.04    5.02
   3  -4  -1  110.97    5.09
   3   4  -1  107.13    5.11
   3   4  -1  107.16    5.53
   3   4  -1  109.05    5.26
   3   4  -1  104.14    5.25
  -2  -4   1  416.65   18.56
  -2  -4   1  416.36   18.90
   2  -4  -1  421.66   20.04
   2  -4  -1  406.92   18.54
   2  -4  -1  410.05   18.31
   2   4  -1  373.26   18.88
   2   4  -1  384.47   18.89
   2   4  -1  401.03   20.02
   2   4  -1  375.86   18.54
   1  -4  -1   26.52    1.28
  -1  -4   1   25.95    1.38
   1  -4  -1   26.23    1.35
  -1  -4   1   25.28    1.35
  -1  -4   1   25.58    1.37
  -1   4   1   26.12    1.34
  -1   4   1   24.16    1.28
  -1   4   1   25.37    1.27
   1   4  -1   26.64    1.35
   1   4  -1   26.11    1.37
   1   4  -1   25.71    1.38
   1   4  -1   26.59    1.35
   0  -4  -1   19.61    1.02
   0  -4   1   19.77    0.99
   0  -4  -1   18.68    0.99
   0  -4   1   19.20    1.02
   0  -4  -1   19.48    0.99
   0   4  -1   17.19    0.98
   0   4   1   16.33    0.99
   0   4   1   17.29    0.99
   0   4  -1   17.98    0.98
   1  -4   1  142.85    6.59
  -1  -4  -1  143.71    6.67
  -1  -4  -1  146.33    7.02
   1  -4   1  146.85    7.00
  -1  -4  -1  141.89    6.56
  -1   4  -1  138.72    6.99
   1   4   1  133.75    6.66
  -1   4  -1  140.49    6.58
   1   4   1  133.45    7.02
   1   4   1  125.65    6.55
  -2  -4  -1   63.95    3.17
  -2  -4  -1   66.94    3.39
  -2  -4  -1   67.83    3.25
   2  -4   1   67.82    3.10
   2  -4   1   70.72    3.39
   2   4   1   62.95    3.39
   2   4   1   62.11    3.24
   2   4   1   60.14    3.16
  -2   4  -1   64.79    3.10
  -2   4  -1   63.25    3.37
   3  -4   1   14.13    0.99
  -3  -4  -1   13.50    0.98
   3  -4   1   14.70    0.81
  -3  -4  -1   13.59    0.96
  -3  -4  -1   14.45    0.94
   3   4   1   16.48    0.94
   3   4   1   15.26    1.02
   3   4   1   17.10    1.02
   3   4   1   15.52    1.01
  -3   4  -1   15.73    1.00
  -3   4  -1   15.89    0.79
   4  -4   1   79.55    4.05
   4  -4   1   80.63    3.91
   4  -4   1   79.56    4.45
  -4  -4  -1   79.65    4.21
  -4  -4  -1   81.81    4.46
  -4   4  -1   88.56    4.02
   4   4   1   88.21    4.25
   4   4   1   89.94    4.26
   4   4   1   85.61    4.49
   4   4   1   88.51    4.12
   5  -4   1    4.60    0.57
   5  -4   1    4.80    0.55
   5  -4   1    4.28    0.65
  -5  -4  -1    4.11    0.54
  -5  -4  -1    4.73    0.63
   5   4   1    4.34    0.55
   5   4   1    4.00    0.61
   5   4   1    3.91    0.65
  -5   4  -1    4.62    0.46
   5   4   1    4.20    0.55
  -6  -4  -1    3.65    0.43
  -6  -4  -1    3.51    0.50
  -6  -4  -1    2.86    0.62
   6  -4   1    3.14    0.69
   6  -4   1    3.24    0.50
   6  -4   1    3.23    0.50
   6   4   1    2.92    0.68
  -6   4  -1    3.77    0.41
   6   4   1    3.52    0.59
   6   4   1    2.97    0.56
   6   4   1    2.78    0.66
  -7  -4  -1    8.34    1.05
   7  -4   1    8.99    1.16
   7  -4   1    8.30    0.87
   7  -4   1    9.53    1.01
   7   4   1    8.18    1.16
   7   4   1    9.68    1.22
   7   4   1   10.67    1.26
   7   4   1   10.91    1.26
  -7  -5   1   16.08    1.28
   7  -5  -1   17.74    1.19
   7  -5  -1   17.02    1.74
  -7  -5   1   16.06    1.36
   7   5  -1   15.05    1.70
   7   5  -1   16.19    1.50
   7   5  -1   18.79    1.77
   7   5  -1   17.32    1.31
  -6  -5   1    6.43    0.88
   6  -5  -1    6.79    0.62
   6  -5  -1    8.00    1.11
   6  -5  -1    8.35    0.76
   6   5  -1    8.18    1.03
   6   5  -1    7.66    0.92
   6   5  -1    7.46    0.83
   6   5  -1    8.79    1.17
   5  -5  -1   12.02    1.10
  -5  -5   1   12.34    1.03
   5  -5  -1   12.38    0.85
  -5  -5   1   12.74    0.96
   5  -5  -1   12.75    0.88
   5   5  -1   14.73    1.16
   5   5  -1   12.87    0.94
   5   5  -1   13.55    1.08
   5   5  -1   14.09    1.14
  -4  -5   1   65.94    3.28
   4  -5  -1   66.74    3.18
   4  -5  -1   67.97    3.57
   4  -5  -1   67.82    3.24
  -4  -5   1   64.17    3.40
   4   5  -1   66.83    3.42
   4   5  -1   64.96    3.27
   4   5  -1   67.02    3.43
   4   5  -1   64.42    3.56
   3  -5  -1   69.14    3.73
  -3  -5   1   67.81    3.59
  -3  -5   1   66.84    3.48
   3  -5  -1   68.53    3.45
   3  -5  -1   69.67    3.41
   3   5  -1   72.85    3.60
   3   5  -1   76.81    3.75
   3   5  -1   76.69    3.49
   3   5  -1   74.31    3.62
   2  -5  -1   38.00    1.92
   2  -5  -1   39.96    1.96
  -2  -5   1   41.35    2.04
   2  -5  -1   41.09    2.06
  -2  -5   1   38.94    1.97
   2   5  -1   37.21    1.95
   2   5  -1   37.49    2.03
   2   5  -1   36.35    2.00
   2   5  -1   35.17    2.02
  -1  -5   1   34.31    1.73
  -1  -5   1   35.88    1.75
   1  -5  -1   33.02    1.71
  -1  -5   1   36.35    1.74
   1  -5  -1   35.54    1.65
  -1   5   1   31.46    1.63
   1   5  -1   31.87    1.73
   1   5  -1   30.03    1.71
  -1   5   1   29.82    1.69
   0  -5  -1   37.22    1.95
   0  -5   1   32.06    1.88
   0  -5  -1   32.56    1.90
   0  -5   1   33.07    1.91
   0  -5  -1   33.95    1.89
   0   5   1   42.51    1.91
   0   5  -1   43.11    1.91
   0   5   1   38.73    1.91
   0   5   1   41.41    1.93
   0   5  -1   42.46    1.91
  -1  -5  -1   65.78    3.22
   1  -5   1   66.88    3.17
   1  -5   1   66.59    3.33
  -1  -5  -1   61.06    3.24
   1  -5   1   62.22    3.20
  -1  -5  -1   66.59    3.36
   1   5   1   68.00    3.21
   1   5   1   66.45    3.25
   1   5   1   64.50    3.25
  -1   5  -1   68.42    3.16
  -2  -5  -1  260.51   12.46
  -2  -5  -1  249.62   11.59
   2  -5   1  262.11   11.64
  -2  -5  -1  256.51   11.79
   2  -5   1  257.90   12.44
   2   5   1  232.82   11.78
  -2   5  -1  245.77   11.63
   2   5   1  247.11   12.45
  -2   5  -1  248.43   11.62
   2   5   1  225.40   11.77
   2   5   1  237.47   11.57
  -3  -5  -1   69.64    3.34
  -3  -5  -1   69.65    3.43
   3  -5   1   71.67    3.56
  -3  -5  -1   69.18    3.57
   3   5   1   67.31    3.59
   3   5   1   62.31    3.31
   3   5   1   63.40    3.42
   3   5   1   64.25    3.41
   4  -5   1   14.10    1.10
  -4  -5  -1   13.92    1.01
  -4  -5  -1   13.45    1.05
  -4  -5  -1   14.63    1.09
   4  -5   1   14.06    0.84
   4   5   1   15.35    1.11
   4   5   1   15.21    1.03
   4   5   1   14.16    1.11
   4   5   1   16.15    1.16
  -5  -5  -1   15.27    1.27
   5  -5   1   14.89    0.88
  -5  -5  -1   14.94    1.19
   5  -5   1   14.91    0.89
   5  -5   1   14.34    1.26
   5   5   1   15.86    1.25
   5   5   1   16.51    1.32
   5   5   1   16.44    1.16
   5   5   1   16.95    1.30
   6  -5   1   20.49    1.15
  -6  -5  -1   19.91    1.26
   6  -5   1   20.44    1.68
   6  -5   1   19.21    1.16
  -6  -5  -1   22.23    1.49
   6   5   1   18.57    1.45
   6   5   1   18.52    1.55
   6   5   1   19.28    1.60
   6   5   1   18.33    1.70
  -6  -6   1   31.55    1.98
   6  -6  -1   32.64    1.67
   6  -6  -1   32.89    2.14
   6  -6  -1   32.72    1.76
   6   6  -1   28.64    2.12
   6   6  -1   30.32    2.09
   6   6  -1   27.10    1.81
   6   6  -1   27.50    2.07
   5  -6  -1   17.79    1.32
   5  -6  -1   16.24    1.07
   5  -6  -1   17.13    1.11
  -5  -6   1   17.82    1.31
  -5  -6   1   18.74    1.22
   5   6  -1   16.34    1.34
   5   6  -1   15.68    1.15
   5   6  -1   14.64    1.30
   5   6  -1   16.39    1.34
   4  -6  -1    4.60    0.68
   4  -6  -1    5.01    0.58
   4  -6  -1    5.28    0.61
  -4  -6   1    4.40    0.54
  -4  -6   1    4.80    0.61
   4   6  -1    5.70    0.70
   4   6  -1    5.84    0.77
   4   6  -1    5.02    0.63
   4   6  -1    6.89    0.76
  -3  -6   1  104.86    5.05
   3  -6  -1  100.85    5.24
  -3  -6   1  104.21    4.92
   3  -6  -1   99.81    4.82
   3  -6  -1  100.61    4.89
   3   6  -1  100.28    5.03
   3   6  -1  101.22    4.91
   3   6  -1  101.66    5.23
   3   6  -1  101.49    5.05
  -2  -6   1  138.34    6.37
   2  -6  -1  143.03    6.77
   2  -6  -1  135.58    6.35
   2  -6  -1  134.89    6.27
  -2  -6   1  132.73    6.48
   2   6  -1  127.79    6.46
   2   6  -1  129.93    6.74
   2   6  -1  132.59    6.48
   2   6  -1  127.39    6.35
  -1  -6   1   14.11    0.87
   1  -6  -1   14.24    0.86
   1  -6  -1   13.88    0.75
  -1  -6   1   12.88    0.84
  -1   6   1   11.52    0.72
   1   6  -1   11.82    0.86
   1   6  -1   11.05    0.80
   0  -6  -1   86.56    4.10
   0  -6   1   80.53    3.95
   0  -6  -1   77.83    3.94
   0  -6  -1   84.04    3.96
   0  -6   1   78.63    3.94
   0   6   1   80.14    3.94
   0   6   1   84.56    3.96
   0   6   1   77.66    3.93
   0   6  -1   82.07    3.95
   0   6  -1   79.32    3.94
   1  -6   1   93.36    4.58
  -1  -6  -1   93.84    4.81
  -1  -6  -1   93.74    4.59
   1  -6   1   94.21    4.55
  -1  -6  -1   93.92    4.64
   1   6   1   95.50    4.63
   1   6   1   95.92    4.64
  -1   6  -1   96.85    4.54
   1   6   1   96.60    4.58
   2  -6   1    5.44    0.52
   2  -6   1    5.54    0.61
   2  -6   1    5.55    0.43
  -2  -6  -1    5.44    0.64
  -2  -6  -1    5.74    0.59
  -2  -6  -1    5.87    0.55
  -2   6  -1    7.36    0.42
   2   6   1    6.70    0.56
   2   6   1    6.79    0.59
   2   6   1    7.17    0.65
   2   6   1    7.51    0.72
  -2   6  -1    6.89    0.43
  -3  -6  -1    2.84    0.48
  -3  -6  -1    3.02    0.47
   3  -6   1    2.57    0.41
  -3  -6  -1    2.99    0.42
   3   6   1    5.03    0.66
   3   6   1    3.81    0.48
  -4  -6  -1   28.73    1.70
   4  -6   1   28.78    1.69
  -4  -6  -1   30.35    1.71
   4  -6   1   29.14    1.44
  -4  -6  -1   28.44    1.61
   4   6   1   23.17    1.67
   4   6   1   22.43    1.63
   4   6   1   24.37    1.70
   4   6   1   24.09    1.56
  -5  -6  -1   24.55    1.69
   5  -6   1   23.79    1.68
  -5  -6  -1   25.11    1.63
   5  -6   1   23.32    1.29
   5   6   1   26.02    1.73
   5   6   1   23.48    1.54
   5   6   1   21.95    1.62
   5   6   1   21.73    1.67
  -6  -6  -1    3.18    0.60
   6  -6   1    2.29    0.77
  -6  -6  -1    2.88    0.65
   6   6   1    4.39    0.75
   6   6   1    3.09    0.76
   6   6   1    3.55    0.81
   6   6   1    3.67    0.83
   6  -7  -1    5.20    0.70
  -6  -7   1    4.41    0.77
   6  -7  -1    4.77    0.82
   6  -7  -1    4.33    0.63
  -6  -7   1    5.87    0.84
   6   7  -1    3.30    0.80
   6   7  -1    4.54    0.94
   6   7  -1    5.17    0.89
   6   7  -1    4.10    0.73
   5  -7  -1    8.68    0.86
  -5  -7   1    6.47    0.83
   5  -7  -1    8.46    0.98
   5  -7  -1    7.90    0.81
  -5  -7   1    8.34    0.95
   5   7  -1    7.44    0.90
   5   7  -1    6.39    0.81
   5   7  -1    7.21    0.98
   5   7  -1    6.39    0.85
   4  -7  -1   14.94    1.03
  -4  -7   1   13.32    1.18
   4  -7  -1   14.82    1.09
   4  -7  -1   14.13    0.99
  -4  -7   1   13.95    1.09
   4   7  -1   14.57    1.13
   4   7  -1   14.33    1.23
   4   7  -1   14.72    1.17
   4   7  -1   14.58    1.06
  -3  -7   1   43.65    2.36
  -3  -7   1   42.78    2.44
   3  -7  -1   41.99    2.43
   3  -7  -1   44.07    2.34
   3  -7  -1   42.48    2.29
   3   7  -1   45.81    2.43
   3   7  -1   45.98    2.43
   3   7  -1   46.26    2.47
   3   7  -1   49.84    2.38
  -2  -7   1   45.73    2.27
   2  -7  -1   44.18    2.27
   2  -7  -1   45.07    2.26
  -2  -7   1   44.72    2.31
   2   7  -1   42.05    2.31
   2   7  -1   39.80    2.24
   2   7  -1   42.53    2.27
   2   7  -1   39.61    2.22
  -1  -7   1   51.91    2.74
   1  -7  -1   53.42    2.67
  -1  -7   1   54.35    2.77
   1  -7  -1   55.89    2.76
   1  -7  -1   49.53    2.73
   1   7  -1   56.96    2.78
   1   7  -1   54.64    2.75
  -1   7   1   55.71    2.66
   0  -7  -1  121.32    6.08
   0  -7  -1  126.51    6.07
   0  -7   1  124.65    6.06
   0   7  -1  132.62    6.09
   0   7  -1  127.64    6.09
   0   7   1  124.75    6.08
   0   7   1  126.39    6.06
   0   7   1  128.07    6.09
   1  -7   1   17.08    1.06
  -1  -7  -1   17.38    0.95
   1  -7   1   17.71    0.96
  -1  -7  -1   16.76    1.06
  -1  -7  -1   17.52    1.09
   1   7   1   16.26    1.02
   1   7   1   15.74    1.00
   1   7   1   16.75    1.08
  -1   7  -1   14.87    0.92
  -2  -7  -1   28.70    1.75
   2  -7   1   28.31    1.72
  -2  -7  -1   28.55    1.75
   2  -7   1   30.27    1.76
  -2  -7  -1   31.27    1.82
   2   7   1   33.74    1.79
  -2   7  -1   34.17    1.61
   2   7   1   36.86    1.86
  -2   7  -1   33.85    1.59
   2   7   1   34.81    1.76
   3  -7   1   41.34    2.33
   3  -7   1   42.35    2.41
  -3  -7  -1   42.12    2.35
  -3  -7  -1   39.33    2.41
  -3  -7  -1   41.02    2.43
   3   7   1   45.53    2.35
   3   7   1   46.66    2.47
   3   7   1   47.98    2.42
   3   7   1   50.60    2.55
  -4  -7  -1    8.48    0.93
   4  -7   1    7.99    0.90
  -4  -7  -1    8.17    0.90
   4  -7   1    7.92    0.74
  -4  -7  -1    9.68    0.99
   4  -7   1    7.83    0.89
   4   7   1    8.98    1.07
   4   7   1    7.60    0.84
   4   7   1    7.88    0.97
   4   7   1    9.29    0.95
   5  -7   1   29.85    2.06
  -5  -7  -1   32.73    2.08
  -5  -7  -1   31.29    2.07
  -5  -7  -1   30.16    1.93
   5  -7   1   30.89    1.70
   5  -7   1   30.20    1.90
   5   7   1   31.51    2.06
   5   7   1   33.54    2.16
   5   7   1   33.46    1.94
   5   7   1   31.69    2.09
   6  -7   1    9.03    1.18
   6  -7   1    9.58    1.16
  -6  -7  -1   10.28    1.15
  -6  -7  -1   10.77    1.20
   6   7   1   12.37    1.53
   6   7   1   11.00    1.32
   6   7   1    9.62    1.16
   6   7   1   10.83    1.34
   6  -8  -1    6.08    0.95
  -6  -8   1    5.27    0.99
   6  -8  -1    5.18    0.74
   6  -8  -1    5.81    0.83
  -6  -8   1    5.76    0.91
   6   8  -1    7.07    0.93
   6   8  -1    8.57    1.18
   6   8  -1    5.51    1.00
   6   8  -1    6.35    1.04
   5  -8  -1   15.65    1.20
   5  -8  -1   17.63    1.44
  -5  -8   1   15.81    1.36
  -5  -8   1   16.70    1.48
   5  -8  -1   17.64    1.30
   5   8  -1   16.82    1.36
   5   8  -1   17.04    1.53
   5   8  -1   18.52    1.70
   5   8  -1   16.65    1.49
   4  -8  -1    2.68    0.51
  -4  -8   1    2.33    0.58
   4  -8  -1    2.98    0.51
  -4  -8   1    2.64    0.56
   4  -8  -1    2.78    0.49
   4   8  -1    2.68    0.57
   4   8  -1    2.56    0.65
   4   8  -1    3.13    0.55
   4   8  -1    2.61    0.55
  -3  -8   1   32.46    1.92
   3  -8  -1   33.96    1.87
  -3  -8   1   33.40    1.99
   3  -8  -1   33.78    1.90
   3  -8  -1   32.73    1.91
   3   8  -1   34.03    1.90
   3   8  -1   32.98    1.90
   3   8  -1   35.46    2.05
   3   8  -1   35.26    1.96
   2  -8  -1   29.03    1.70
  -2  -8   1   27.72    1.74
   2  -8  -1   29.49    1.61
  -2  -8   1   29.94    1.71
   2   8  -1   30.90    1.70
   2   8  -1   30.15    1.76
  -1  -8   1   12.73    0.89
   1  -8  -1   12.63    0.93
  -1  -8   1   12.32    0.92
   1  -8  -1   11.99    0.80
  -1   8   1   10.62    0.73
   1   8  -1    9.75    0.79
   1   8  -1   11.06    0.92
   0  -8   1    7.65    0.72
   0  -8  -1    8.57    0.73
   0  -8  -1    8.28    0.74
   0   8   1    8.34    0.72
   0   8   1    8.95    0.70
   0   8  -1    8.50    0.65
   0   8   1    9.08    0.66
   0   8  -1    8.71    0.74
  -1  -8  -1   95.07    4.52
  -1  -8  -1   90.08    4.47
  -1  -8  -1   92.15    4.58
   1  -8   1   88.27    4.46
   1   8   1   94.83    4.49
  -1   8  -1   92.34    4.39
   1   8   1   84.19    4.49
   1   8   1   87.26    4.45
  -2  -8  -1   45.62    2.44
   2  -8   1   42.57    2.42
  -2  -8  -1   46.89    2.45
   2  -8   1   45.63    2.39
  -2  -8  -1   45.43    2.50
  -2   8  -1   46.99    2.24
   2   8   1   44.94    2.51
  -2   8  -1   47.52    2.26
   2   8   1   45.32    2.44
   2   8   1   45.43    2.40
  -3  -8  -1   40.93    2.31
  -3  -8  -1   41.21    2.38
   3  -8   1   41.01    2.27
  -3  -8  -1   41.61    2.28
   3  -8   1   40.40    2.28
   3   8   1   38.64    2.28
   3   8   1   40.91    2.40
   3   8   1   43.00    2.27
   3   8   1   43.43    2.39
  -4  -8  -1   26.18    1.64
   4  -8   1   25.15    1.64
  -4  -8  -1   25.60    1.66
   4  -8   1   24.32    1.47
   4  -8   1   26.56    1.63
  -4  -8  -1   25.94    1.76
   4   8   1   23.80    1.65
   4   8   1   23.74    1.82
   4   8   1   23.52    1.67
   4   8   1   23.91    1.60
  -5  -8  -1    6.42    0.87
   5  -8   1    6.83    0.86
   5  -8   1    6.44    0.84
   5  -8   1    5.81    0.83
  -5  -8  -1    5.65    0.92
   5   8   1    7.46    1.01
   5   8   1    6.06    0.84
   5   8   1    3.73    0.77
   5   8   1    5.35    0.88
  -5  -9   1    0.97    0.73
   5  -9  -1    2.06    0.65
   5  -9  -1    1.59    0.61
  -5  -9   1    1.95    0.70
   5  -9  -1    1.50    0.58
   5   9  -1    2.25    0.77
   5   9  -1    1.79    0.69
   5   9  -1    1.22    0.68
   5   9  -1    2.95    0.94
   4  -9  -1   28.19    1.77
  -4  -9   1   28.19    1.81
  -4  -9   1   28.13    1.94
   4  -9  -1   27.50    1.71
   4  -9  -1   28.11    1.79
   4   9  -1   28.54    2.05
   4   9  -1   28.10    1.79
   4   9  -1   28.87    1.80
   4   9  -1   28.37    1.88
   3  -9  -1    2.91    0.42
   3  -9  -1    2.61    0.57
   3  -9  -1    2.42    0.52
  -3  -9   1    2.38    0.61
  -3  -9   1    2.77    0.56
   3   9  -1    2.66    0.45
   3   9  -1    2.23    0.63
   3   9  -1    2.16    0.45
  -2  -9   1    0.12    0.35
   2  -9  -1    0.08    0.35
   2  -9  -1    0.46    0.37
  -2  -9   1    0.06    0.38
   2   9  -1    0.27    0.29
   2   9  -1   -0.21    0.42
   1  -9  -1   82.97    4.14
   1  -9  -1   77.96    4.21
  -1  -9   1   82.32    4.22
   1   9  -1   88.26    4.23
   1   9  -1   87.15    4.26
  -1   9   1   87.39    4.13
   0  -9   1   16.13    1.15
   0  -9  -1   16.73    1.14
   0  -9  -1   15.64    1.15
   0   9  -1   17.75    1.07
   0   9  -1   17.21    1.14
   0   9   1   18.24    1.14
   0   9   1   18.09    1.09
  -1  -9  -1    1.08    0.36
  -1  -9  -1    1.17    0.42
   1  -9   1    1.53    0.42
  -1   9  -1    1.17    0.29
   1   9   1    1.24    0.31
   1   9   1    1.43    0.34
   1   9   1    1.01    0.45
   2  -9   1    9.93    1.01
  -2  -9  -1   10.19    1.06
  -2  -9  -1    9.54    0.96
   2   9   1   11.85    1.13
   2   9   1   13.34    0.92
   2   9   1   12.56    0.91
  -2   9  -1   12.86    0.76
  -2   9  -1   11.62    0.73
   3  -9   1   19.84    1.37
  -3  -9  -1   19.57    1.49
   3  -9   1   18.95    1.20
  -3  -9  -1   17.48    1.32
   3   9   1   17.02    1.50
   3   9   1   16.91    1.29
   3   9   1   18.06    1.28
  -4  -9  -1    0.12    0.61
   4  -9   1    0.05    0.55
   4  -9   1   -0.04    0.48
  -4  -9  -1    0.76    0.56
   4  -9   1   -0.24    0.43
   4   9   1    0.68    0.51
   4   9   1    1.69    0.65
   4   9   1    0.43    0.72
   4   9   1    0.60    0.51
   5  -9   1    5.76    0.74
  -5  -9  -1    6.66    0.93
  -5  -9  -1    6.65    1.01
   5  -9   1    4.78    0.86
   5  -9   1    5.52    0.88
   5   9   1    4.61    1.08
   5   9   1    5.55    0.98
   5   9   1    4.11    0.85
   5   9   1    3.83    0.92
  -4 -10   1    0.19    0.62
   4 -10  -1    0.64    0.63
   4 -10  -1    0.63    0.57
  -4 -10   1    0.08    0.61
   4 -10  -1   -0.17    0.47
   4  10  -1    0.36    0.54
   4  10  -1    0.52    0.50
   4  10  -1    0.44    0.83
   3 -10  -1    7.45    0.86
   3 -10  -1    7.27    0.72
   3 -10  -1    7.54    0.99
  -3 -10   1    7.84    0.90
  -3 -10   1    8.95    0.98
   3  10  -1    5.69    0.90
   3  10  -1    5.41    0.70
  -2 -10   1   19.47    1.39
   2 -10  -1   19.79    1.47
   2 -10  -1   18.96    1.40
  -2 -10   1   20.47    1.52
   2  10  -1   20.98    1.54
   2  10  -1   20.82    1.32
  -2  10   1   20.49    1.10
  -2  10   1   20.92    1.10
  -1 -10   1    2.86    0.54
   1 -10  -1    3.75    0.61
   1  10  -1    4.07    0.63
  -1  10   1    4.10    0.46
   1  10  -1    3.97    0.50
   0 -10   1   19.39    1.28
   0 -10  -1   18.70    1.27
   0 -10  -1   18.19    1.27
   0  10  -1   18.69    1.19
   0  10  -1   18.01    1.25
   0  10   1   19.28    1.20
   0  10   1   18.25    1.26
  -1 -10  -1   32.09    1.91
  -1 -10  -1   32.62    1.89
   1 -10   1   30.31    1.89
   1  10   1   31.90    1.84
   1  10   1   32.80    1.94
  -1  10  -1   31.46    1.71
   1  10   1   34.09    1.82
  -1  10  -1   29.10    1.75
  -2 -10  -1    4.62    0.73
   2 -10   1    4.51    0.69
  -2 -10  -1    3.87    0.59
  -2  10  -1    3.46    0.39
   2  10   1    4.46    0.54
   2  10   1    3.54    0.49
   2  10   1    3.57    0.71
  -2  10  -1    4.18    0.52
  -3 -10  -1    1.31    0.67
   3 -10   1    2.04    0.61
  -3 -10  -1    1.51    0.57
   3 -10   1    1.86    0.39
   3  10   1    1.42    0.73
   3  10   1    1.55    0.54
   3  10   1    1.91    0.46
  -4 -10  -1   19.57    1.82
  -4 -10  -1   17.53    1.66
   4 -10   1   17.87    1.64
   4 -10   1   18.22    1.46
   4 -10   1   17.44    1.46
   4  10   1   22.83    1.63
   4  10   1   20.97    1.68
   4  10   1   24.97    2.02
  -3 -11   1   11.43    1.46
  -3 -11   1   12.95    1.36
   3 -11  -1   10.39    1.24
   3 -11  -1   10.25    1.33
   3  11  -1   10.20    1.23
   3  11  -1   10.05    1.06
   2 -11  -1   15.40    1.40
   2 -11  -1   13.27    1.28
  -2 -11   1   16.80    1.31
   2  11  -1   16.96    1.19
   2  11  -1   15.63    1.55
   1 -11  -1   12.63    1.16
  -1 -11   1   11.90    1.04
   1  11  -1   10.76    0.93
  -1  11   1   11.32    0.94
  -1  11   1   10.62    0.86
   1  11  -1   10.68    1.23
   0 -11  -1   13.15    1.11
   0 -11  -1   12.09    1.08
   0 -11   1   11.59    1.07
   0  11  -1   11.73    1.12
   0  11   1   12.18    1.11
   0  11  -1   13.43    1.00
   0  11   1   12.59    1.00
  -1 -11  -1   -0.28    0.54
   1 -11   1   -0.05    0.41
  -1 -11  -1    0.34    0.42
  -1  11  -1    0.42    0.35
  -1  11  -1   -0.20    0.38
   1  11   1    0.17    0.59
   1  11   1    0.51    0.37
  -2 -11  -1   20.10    1.48
  -2 -11  -1   18.44    1.62
   2 -11   1   16.90    1.50
   2  11   1   20.25    1.67
  -2  11  -1   19.07    1.11
   2  11   1   20.73    1.36
  -2  11  -1   19.60    1.14
   2  11   1   19.20    1.35
  -3 -11  -1   16.21    1.47
  -3 -11  -1   16.65    1.71
   3 -11   1   17.63    1.53
   3  11   1   14.11    1.77
   3  11   1   16.25    1.29
   3  11   1   16.23    1.41
   2 -12  -1   11.36    1.41
   2 -12  -1    9.59    1.10
  -2 -12   1   10.26    1.22
   2  12  -1    7.87    0.99
   2  12  -1   10.11    1.22
   1 -12  -1    0.60    0.57
  -1 -12   1    1.27    0.55
   1 -12  -1   -0.25    0.57
   1  12  -1    0.09    0.43
  -1  12   1    0.25    0.48
   1  12  -1    0.68    0.72
  -1  12   1    0.34    0.43
   0 -12   1    5.12    0.74
   0 -12  -1    6.22    0.82
   0  12  -1    5.80    0.69
   0  12   1    6.85    0.91
   0  12  -1    6.46    0.82
   0  12   1    5.71    0.82
  -1 -12  -1    4.30    0.81
  -1 -12  -1    4.62    0.65
   1 -12   1    4.05    0.69
   1  12   1    2.38    0.80
  -1  12  -1    3.34    0.53
  -1  12  -1    2.25    0.54
   1  12   1    2.35    0.56
  -2 -12  -1    1.77    0.65
  -2 -12  -1    1.22    0.84
   2 -12   1    1.40    0.66
   2  12   1    0.46    0.51
   2  12   1    0.60    0.86
   7   0  -2    0.36    0.52
   7   0  -2    0.50    0.41
   7   0  -2    0.18    0.41
  -6   0   2   -0.17    0.25
   6   0  -2    0.03    0.35
   6   0  -2   -0.53    0.31
  -6   0   2   -0.07    0.20
   6   0  -2    0.01    0.26
   5   0  -2   78.06    4.19
  -5   0   2   80.28    3.85
  -5   0   2   77.34    3.65
   5   0  -2   75.03    3.84
   5   0  -2   78.35    3.86
   4   0  -2    1.05    0.23
  -4   0   2    0.87    0.20
   4   0  -2    1.00    0.28
   4   0  -2    0.75    0.25
  -4   0   2    0.78    0.22
   3   0  -2   74.85    3.56
  -3   0   2   71.98    3.55
   3   0  -2   73.83    3.56
   3   0  -2   73.54    3.83
  -3   0   2   71.95    3.44
   2   0  -2   88.82    4.16
  -2   0   2   87.06    4.16
  -2   0   2   81.13    4.04
   2   0  -2   88.06    4.04
   2   0  -2   89.26    4.16
   1   0  -2  294.13   13.91
  -1   0   2  321.40   14.31
  -1   0   2  286.77   13.90
   1   0  -2  315.31   14.31
   0   0   2   64.26    3.00
   0   0  -2   62.98    3.10
   0   0  -2   65.46    3.00
   0   0   2   64.62    3.10
   1   0   2    5.38    0.34
   1   0   2    4.90    0.45
  -1   0  -2    4.85    0.40
  -1   0  -2    5.16    0.44
  -1   0  -2    5.43    0.35
  -2   0  -2  204.41   10.56
  -2   0  -2  214.13    9.92
   2   0   2  212.37    9.92
   2   0   2  203.68   10.57
  -2   0  -2  212.60    9.54
   3   0   2   76.15    3.72
  -3   0  -2   74.24    3.99
   3   0   2   77.42    4.01
  -3   0  -2   75.48    3.71
  -4   0  -2   12.53    0.83
   4   0   2   12.81    0.83
  -4   0  -2   13.16    0.93
   4   0   2   12.74    0.99
  -5   0  -2  176.36    8.36
   5   0   2  170.96    8.36
   5   0   2  175.74    9.00
  -5   0  -2  169.85    8.96
   5   0   2  173.72    8.21
   6   0   2    0.26    0.41
   6   0   2   -0.42    0.37
  -6   0  -2    0.17    0.39
   6   0   2    0.17    0.50
   6   0   2   -0.26    0.33
  -6   0  -2    0.07    0.31
   7   0   2    9.38    1.12
   7   0   2    8.08    1.18
   7   0   2   10.01    1.08
  -7   0  -2   11.25    1.00
   7   0   2    9.76    1.19
   7  -1  -2   26.86    1.70
   7  -1  -2   28.18    1.68
   7  -1  -2   28.95    1.91
  -7  -1   2   28.29    1.67
   7   1  -2   26.05    1.86
   7   1  -2   27.73    1.70
   7   1  -2   27.99    1.85
   6  -1  -2   36.33    2.30
  -6  -1   2   36.04    2.06
  -6  -1   2   36.33    1.88
   6  -1  -2   38.18    2.07
   6  -1  -2   36.86    2.04
   6   1  -2   40.78    2.33
   6   1  -2   39.08    2.08
   6   1  -2   40.79    2.17
  -6   1   2   39.38    1.84
   5  -1  -2   10.72    0.92
   5  -1  -2   10.80    0.76
   5  -1  -2   11.03    0.82
  -5  -1   2   10.94    0.75
  -5  -1   2   11.51    0.81
  -5   1   2   12.35    0.69
   5   1  -2   12.52    0.91
   5   1  -2   12.71    0.96
   5   1  -2   11.83    0.65
   5   1  -2   12.82    0.83
   4  -1  -2   74.17    3.58
   4  -1  -2   73.66    3.92
  -4  -1   2   73.21    3.63
  -4  -1   2   73.02    3.48
   4   1  -2   72.43    3.64
   4   1  -2   73.76    3.91
  -4   1   2   75.23    3.46
   4   1  -2   72.90    3.44
   4   1  -2   74.75    3.65
   3  -1  -2  168.93    8.85
  -3  -1   2  172.52    8.03
  -3  -1   2  176.21    8.30
   3  -1  -2  172.97    8.25
   3  -1  -2  168.66    8.02
  -3  -1   2  169.01    8.29
  -3  -1   2  174.27    8.06
   3   1  -2  174.71    8.30
  -3   1   2  183.29    8.02
   3   1  -2  174.11    8.30
   3   1  -2  174.86    8.85
   3   1  -2  182.71    8.06
   2  -1  -2   50.21    2.64
  -2  -1   2   50.76    2.59
   2  -1  -2   50.94    2.59
  -2  -1   2   51.77    2.68
  -2  -1   2   52.37    2.57
   2   1  -2   59.77    2.70
  -2   1   2   62.69    2.60
   2   1  -2   61.57    2.71
  -1  -1   2  201.58    9.81
   1  -1  -2  210.39    9.61
   1  -1  -2  187.43    9.52
  -1   1   2  220.75    9.61
  -1   1   2  203.54    9.79
   1   1  -2  218.35    9.81
  -1   1   2  213.63    9.53
   0  -1  -2  637.39   28.31
   0  -1  -2  633.51   29.21
   0  -1   2  639.47   29.15
   0   1   2  616.79   28.73
   0   1  -2  609.10   29.21
   0   1   2  586.78   29.28
   0   1   2  633.29   28.34
   1  -1   2  250.92   10.87
   1  -1   2  237.13   11.22
  -1  -1  -2  238.94   11.95
  -1  -1  -2  240.29   10.87
   1  -1   2  240.66   11.94
   1   1   2  246.82   10.88
   1   1   2  226.65   11.23
  -1   1  -2  230.11   11.94
  -1   1  -2  236.47   11.22
   1   1   2  231.39   11.94
   1   1   2  240.37   11.05
  -2  -1  -2   28.09    1.63
   2  -1   2   30.46    1.62
  -2  -1  -2   29.82    1.51
   2  -1   2   30.79    1.48
  -2  -1  -2   30.15    1.75
   2   1   2   33.85    1.78
   2   1   2   32.53    1.62
  -2   1  -2   34.37    1.76
   2   1   2   32.74    1.66
  -2   1  -2   34.27    1.62
  -3  -1  -2  194.71   10.07
  -3  -1  -2  189.22    9.44
   3  -1   2  198.12    9.42
  -3  -1  -2  198.44    9.05
   3  -1   2  191.85   10.07
  -3   1  -2  204.32    9.42
   3   1   2  196.24   10.08
   3   1   2  206.86    9.47
   3   1   2  202.22    9.29
  -3   1  -2  201.12   10.07
   4  -1   2   48.10    2.66
   4  -1   2   48.67    2.41
  -4  -1  -2   47.15    2.44
  -4  -1  -2   46.68    2.62
   4   1   2   46.46    2.40
  -4   1  -2   46.20    2.39
  -4   1  -2   46.51    2.62
   4   1   2   48.67    2.66
   4   1   2   45.30    2.44
  -5  -1  -2   27.94    1.77
  -5  -1  -2   29.47    1.63
   5  -1   2   28.29    1.85
   5  -1   2   28.97    1.62
  -5   1  -2   27.89    1.59
  -5   1  -2   30.00    1.80
   5   1   2   28.90    1.63
   5   1   2   29.37    1.85
   5   1   2   28.64    1.65
  -6  -1  -2   43.27    2.22
   6  -1   2   41.16    2.49
   6  -1   2   46.06    2.29
   6  -1   2   44.62    2.24
  -6  -1  -2   45.55    2.44
   6  -1   2   42.70    2.20
   6   1   2   34.30    2.40
   6   1   2   35.42    2.31
   6   1   2   34.72    2.16
   6   1   2   38.45    2.18
  -6   1  -2   36.29    2.14
  -6   1  -2   35.44    2.37
   7  -1   2   12.17    1.28
   7  -1   2   12.60    1.37
   7  -1   2   12.62    1.40
  -7  -1  -2   11.57    1.31
   7  -1   2   13.83    1.30
  -7  -1  -2   15.79    1.14
   7   1   2   12.95    1.34
  -7   1  -2   14.46    1.16
   7   1   2   13.81    1.33
   7   1   2   12.63    1.20
   7   1   2   13.44    1.51
  -7  -2   2   13.38    1.07
   7  -2  -2   12.47    1.07
   7  -2  -2   13.57    1.14
  -7  -2   2   13.17    0.91
   7  -2  -2   12.73    1.30
   7   2  -2   15.09    0.87
   7   2  -2   16.44    1.41
   7   2  -2   15.35    1.33
   7   2  -2   16.21    1.11
   6  -2  -2    4.05    0.61
  -6  -2   2    4.84    0.50
  -6  -2   2    3.91    0.47
   6  -2  -2    4.42    0.60
   6  -2  -2    4.32    0.52
   6   2  -2    4.45    0.46
   6   2  -2    4.19    0.61
   6   2  -2    4.46    0.53
   6   2  -2    4.41    0.65
   5  -2  -2   34.68    1.80
   5  -2  -2   34.75    2.07
   5  -2  -2   33.98    1.82
  -5  -2   2   35.62    1.78
  -5  -2   2   34.94    1.90
   5   2  -2   34.39    1.95
  -5   2   2   35.86    1.71
   5   2  -2   35.18    1.91
   5   2  -2   34.77    1.72
   5   2  -2   34.75    2.07
   4  -2  -2  143.28    7.26
  -4  -2   2  137.00    6.79
   4  -2  -2  140.07    6.53
   4  -2  -2  139.64    6.52
   4  -2  -2  143.99    6.69
   4  -2  -2  142.31    6.69
   4   2  -2  143.97    6.56
  -4   2   2  142.23    6.50
   4   2  -2  135.49    6.79
   4   2  -2  142.46    7.25
   4   2  -2  138.81    6.80
   3  -2  -2  202.84    9.29
  -3  -2   2  197.30    9.56
   3  -2  -2  206.77    9.47
   3  -2  -2  197.22    9.24
  -3  -2   2  198.52    9.31
   3  -2  -2  208.37    9.47
  -3  -2   2  193.37    9.56
   3   2  -2  192.80    9.56
   3   2  -2  197.54    9.57
  -3   2   2  200.28    9.47
  -3   2   2  205.84    9.23
   3   2  -2  210.83    9.32
   3   2  -2  201.29   10.17
  -2  -2   2   43.22    2.29
   2  -2  -2   46.41    2.31
   2  -2  -2   42.03    2.29
   2  -2  -2   44.94    2.27
  -2  -2   2   43.62    2.39
   2   2  -2   53.96    2.41
  -2   2   2   53.80    2.31
   2   2  -2   51.71    2.41
  -2   2   2   54.76    2.28
  -1  -2   2  752.57   32.61
   1  -2  -2  649.01   32.65
   1  -2  -2  660.59   32.05
   1  -2  -2  681.80   31.66
  -1   2   2  719.36   31.70
   1   2  -2  699.39   32.69
  -1   2   2  708.17   32.12
   0  -2  -2   14.40    0.88
   0  -2  -2   16.65    0.90
   0  -2   2   15.21    0.89
   0  -2  -2   15.66    0.90
   0   2   2   17.32    0.89
   0   2   2   17.97    0.91
   0   2   2   16.89    0.88
   0   2  -2   17.46    0.90
  -1  -2  -2  181.44    7.72
   1  -2   2  180.12    7.95
   1  -2   2  182.20    8.46
  -1  -2  -2  180.43    8.48
  -1  -2  -2  165.76    7.84
  -1  -2  -2  184.15    7.99
   1   2   2  152.78    8.46
   1   2   2  157.84    7.84
  -1   2  -2  158.92    8.44
   1   2   2  150.95    7.97
  -1   2  -2  154.37    7.94
   2  -2   2  325.88   14.64
  -2  -2  -2  310.02   15.60
  -2  -2  -2  302.38   14.67
   2  -2   2  315.22   15.60
  -2  -2  -2  314.62   14.19
   2   2   2  299.60   15.60
   2   2   2  315.37   14.43
   2   2   2  302.23   14.68
  -2   2  -2  311.65   14.62
  -2   2  -2  308.90   15.59
  -3  -2  -2    5.13    0.50
  -3  -2  -2    5.64    0.52
  -3  -2  -2    5.58    0.40
   3  -2   2    5.35    0.57
   3  -2   2    4.92    0.43
   3   2   2    4.23    0.57
   3   2   2    5.05    0.50
   3   2   2    4.80    0.50
  -3   2  -2    5.20    0.52
  -3   2  -2    4.62    0.42
  -4  -2  -2   84.86    3.83
   4  -2   2   82.44    4.04
  -4  -2  -2   77.01    4.09
  -4  -2  -2   80.11    4.37
   4  -2   2   82.13    4.40
   4   2   2   81.09    4.40
  -4   2  -2   85.60    4.03
   4   2   2   83.99    4.12
  -4   2  -2   84.56    4.38
   4   2   2   81.77    4.02
  -5  -2  -2   12.98    0.92
  -5  -2  -2   14.62    1.02
   5  -2   2   15.15    0.91
   5  -2   2   15.14    1.15
   5   2   2   10.31    1.03
  -5   2  -2   10.50    0.82
   5   2   2   11.47    0.92
  -5   2  -2   11.27    1.01
   5   2   2   10.69    0.89
  -6  -2  -2   26.64    1.67
   6  -2   2   25.27    1.68
   6  -2   2   25.71    1.69
  -6  -2  -2   25.03    1.83
   6  -2   2   23.87    1.92
   6   2   2   31.16    1.75
   6   2   2   31.81    1.91
  -6   2  -2   32.08    1.95
  -6   2  -2   31.07    1.66
   6   2   2   30.99    1.94
   6   2   2   29.69    1.74
   7  -2   2    7.88    0.87
   7  -2   2    6.71    0.87
   7  -2   2    7.14    1.01
   7  -2   2    6.61    0.89
  -7  -2  -2    8.10    0.90
  -7  -2  -2    5.77    0.85
   7   2   2    8.71    0.97
   7   2   2    8.27    1.07
   7   2   2    6.22    0.92
  -7   2  -2    7.03    0.95
   7   2   2    7.96    1.02
   7  -3  -2    5.05    0.58
   7  -3  -2    5.02    0.81
  -7  -3   2    4.87    0.59
  -7  -3   2    6.16    0.77
   7  -3  -2    5.52    0.63
   7   3  -2    4.36    0.50
   7   3  -2    4.13    0.79
   7   3  -2    5.11    0.86
   7   3  -2    5.79    0.68
  -6  -3   2   39.74    2.05
   6  -3  -2   39.64    2.05
   6  -3  -2   40.82    2.44
  -6  -3   2   39.72    2.20
   6  -3  -2   38.17    2.04
   6   3  -2   39.29    2.00
   6   3  -2   40.94    2.31
   6   3  -2   40.83    2.21
   6   3  -2   38.00    2.41
   5  -3  -2    3.07    0.35
  -5  -3   2    2.74    0.43
   5  -3  -2    2.30    0.33
   5  -3  -2    2.53    0.32
   5  -3  -2    2.66    0.33
   5  -3  -2    2.12    0.43
   5   3  -2    3.86    0.54
   5   3  -2    3.84    0.48
   5   3  -2    4.19    0.43
   5   3  -2    3.19    0.52
  -4  -3   2   67.97    3.38
   4  -3  -2   71.31    3.39
   4  -3  -2   71.18    3.35
   4  -3  -2   69.79    3.78
   4  -3  -2   69.36    3.36
   4  -3  -2   70.41    3.39
  -4  -3   2   69.47    3.54
   4   3  -2   73.59    3.78
   4   3  -2   70.87    3.56
   4   3  -2   70.94    3.38
   4   3  -2   73.37    3.57
   3  -3  -2  121.59    5.71
   3  -3  -2  129.63    5.79
  -3  -3   2  125.43    5.77
  -3  -3   2  126.93    5.95
  -3  -3   2  123.88    5.94
   3  -3  -2  126.19    5.74
   3  -3  -2  129.03    5.79
   3   3  -2  118.67    5.94
   3   3  -2  113.26    6.27
  -3   3   2  116.60    5.69
   3   3  -2  122.10    5.76
   3   3  -2  120.22    5.94
  -2  -3   2   74.76    3.82
   2  -3  -2   71.99    3.68
   2  -3  -2   75.13    3.70
  -2  -3   2   70.14    3.70
  -2  -3   2   73.60    3.82
   2  -3  -2   73.19    3.69
   2   3  -2   84.60    3.84
   2   3  -2   82.58    3.83
  -2   3   2   87.36    3.70
  -2   3   2   84.27    3.70
  -2   3   2   83.27    3.69
  -1  -3   2  127.42    6.05
   1  -3  -2  127.08    6.04
   1  -3  -2  121.34    5.98
  -1  -3   2  130.37    6.17
   1  -3  -2  131.37    6.11
  -1   3   2  130.97    6.04
   1   3  -2  135.62    6.17
   1   3  -2  129.54    6.16
   0  -3  -2  137.18    6.92
   0  -3   2  135.43    6.91
   0  -3  -2  133.73    6.82
   0   3   2  150.03    6.93
   0   3  -2  157.55    7.32
   0   3   2  154.19    6.83
   0   3  -2  152.30    6.92
   1  -3   2  249.52   11.57
  -1  -3  -2  244.62   10.60
  -1  -3  -2  240.26   10.93
  -1  -3  -2  246.35   10.75
  -1  -3  -2  237.92   11.59
   1  -3   2  250.95   10.88
   1   3   2  210.07   10.91
  -1   3  -2  219.76   10.88
   1   3   2  206.89   11.58
  -1   3  -2  223.74   11.56
   1   3   2  209.04   10.73
  -2  -3  -2   -0.09    0.18
  -2  -3  -2    0.04    0.17
   2  -3   2    0.18    0.17
  -2  -3  -2    0.05    0.18
  -2  -3  -2   -0.02    0.16
  -2   3  -2    0.13    0.15
   2   3   2    0.25    0.26
   2   3   2   -0.04    0.22
   2   3   2   -0.14    0.16
  -2   3  -2    0.10    0.17
   3  -3   2   49.77    2.56
  -3  -3  -2   49.21    2.79
  -3  -3  -2   46.67    2.47
  -3  -3  -2   48.60    2.64
   3  -3   2   47.95    2.79
   3   3   2   54.91    2.83
   3   3   2   56.11    2.60
   3   3   2   55.33    2.68
  -3   3  -2   53.40    2.79
  -3   3  -2   55.13    2.55
  -4  -3  -2  127.17    6.36
   4  -3   2  129.96    6.77
   4  -3   2  132.64    6.26
  -4  -3  -2  126.78    6.75
  -4  -3  -2  125.89    6.03
   4   3   2  133.91    6.23
  -4   3  -2  130.81    6.23
  -4   3  -2  131.26    6.76
   4   3   2  131.77    6.37
   4   3   2  131.69    6.79
  -5  -3  -2    2.37    0.30
  -5  -3  -2    1.97    0.44
  -5  -3  -2    1.68    0.35
   5  -3   2    2.49    0.40
   5  -3   2    1.90    0.47
  -5   3  -2    2.20    0.35
   5   3   2    2.43    0.48
  -5   3  -2    2.01    0.49
   5   3   2    2.14    0.44
   5   3   2    1.94    0.50
   5   3   2    1.52    0.50
   6  -3   2    8.05    0.92
   6  -3   2    7.70    0.91
  -6  -3  -2    7.15    1.01
   6  -3   2    6.53    0.90
  -6  -3  -2    8.26    0.83
   6   3   2    7.10    0.88
   6   3   2    7.63    0.95
  -6   3  -2    7.82    1.11
   6   3   2    9.05    1.01
   6   3   2    7.84    0.95
  -6   3  -2    8.24    0.77
   7  -3   2   29.72    2.29
   7  -3   2   30.38    1.87
  -7  -3  -2   31.70    1.83
  -7  -3  -2   30.12    2.21
   7  -3   2   28.79    1.91
   7   3   2   27.98    2.17
   7   3   2   27.52    1.97
  -7   3  -2   26.82    1.73
   7   3   2   23.15    2.15
   7  -4  -2   14.29    0.96
  -7  -4   2   13.95    1.14
  -7  -4   2   13.49    1.13
   7  -4  -2   14.67    0.97
   7  -4  -2   15.67    1.52
   7   4  -2   12.62    1.20
   7   4  -2   11.60    1.44
   7   4  -2   13.80    1.56
   7   4  -2   14.34    1.04
   6  -4  -2    3.39    0.37
  -6  -4   2    2.90    0.45
   6  -4  -2    2.91    0.34
   6  -4  -2    2.91    0.35
   6  -4  -2    3.12    0.39
   6  -4  -2    2.69    0.60
  -6  -4   2    2.80    0.48
   6   4  -2    2.80    0.59
   6   4  -2    2.70    0.43
   6   4  -2    2.36    0.64
   6   4  -2    1.71    0.47
  -5  -4   2   57.06    2.93
   5  -4  -2   59.50    3.31
   5  -4  -2   56.94    2.87
  -5  -4   2   57.66    3.10
   5  -4  -2   54.37    2.88
   5   4  -2   60.78    3.31
   5   4  -2   62.78    3.13
   5   4  -2   63.03    2.94
   5   4  -2   65.13    3.18
   4  -4  -2   98.16    4.65
   4  -4  -2  102.68    4.65
  -4  -4   2   98.02    4.87
   4  -4  -2  101.89    5.17
  -4  -4   2   95.49    4.69
   4   4  -2  100.55    4.89
   4   4  -2   95.22    5.14
   4   4  -2   96.44    4.69
   4   4  -2   97.84    4.88
  -3  -4   2    1.37    0.30
   3  -4  -2    1.65    0.26
   3  -4  -2    1.41    0.30
   3  -4  -2    1.47    0.24
  -3  -4   2    1.89    0.38
  -3  -4   2    1.57    0.28
   3   4  -2    1.55    0.34
   3   4  -2    1.35    0.25
   3   4  -2    1.83    0.29
   3   4  -2    0.93    0.31
   2  -4  -2  188.28    9.27
  -2  -4   2  181.36    9.40
  -2  -4   2  182.19    9.22
   2  -4  -2  177.72    9.11
   2  -4  -2  184.85    9.20
  -2  -4   2  184.27    9.41
   2   4  -2  226.51    9.95
  -2   4   2  216.73    9.22
   2   4  -2  221.98    9.44
   2   4  -2  213.14    9.43
   1  -4  -2  240.61   11.64
   1  -4  -2  267.80   11.79
  -1  -4   2  246.13   11.85
   1  -4  -2  243.90   11.52
  -1  -4   2  244.13   11.66
  -1   4   2  258.05   11.65
   1   4  -2  257.07   11.86
   1   4  -2  247.12   11.85
   0  -4  -2    3.59    0.43
   0  -4  -2    3.66    0.38
   0  -4   2    3.42    0.36
   0  -4  -2    3.49    0.39
   0   4  -2    2.99    0.34
   0   4  -2    2.98    0.27
   0   4  -2    2.81    0.37
   0   4   2    3.03    0.38
   0   4   2    2.84    0.38
   1  -4   2  252.59   11.97
   1  -4   2  258.49   12.72
  -1  -4  -2  232.96   11.84
  -1  -4  -2  241.95   12.03
  -1  -4  -2  262.24   12.76
  -1   4  -2  274.46   12.73
   1   4   2  243.66   12.03
   1   4   2  262.51   11.85
  -1   4  -2  258.43   11.98
  -2  -4  -2   56.38    2.97
  -2  -4  -2   55.31    2.84
   2  -4   2   55.48    2.73
  -2  -4  -2   51.89    2.77
   2  -4   2   55.76    2.95
   2   4   2   56.15    2.85
  -2   4  -2   58.00    2.95
   2   4   2   56.58    2.78
   2   4   2   56.10    2.99
  -2   4  -2   58.77    2.73
   3  -4   2    9.88    0.75
  -3  -4  -2    9.93    0.75
   3  -4   2   10.11    0.60
  -3  -4  -2    9.48    0.71
  -3  -4  -2    9.59    0.74
  -3   4  -2    7.47    0.54
   3   4   2    8.67    0.82
   3   4   2    6.49    0.71
  -3   4  -2    7.41    0.70
   3   4   2    7.96    0.67
  -4  -4  -2   22.66    1.22
  -4  -4  -2   22.70    1.37
   4  -4   2   23.77    1.10
   4  -4   2   23.15    1.24
  -4  -4  -2   24.20    1.46
   4  -4   2   23.59    1.49
   4   4   2   19.98    1.32
   4   4   2   20.54    1.46
  -4   4  -2   20.64    1.18
   4   4   2   19.88    1.37
  -4   4  -2   21.07    1.44
  -5  -4  -2   29.86    1.85
  -5  -4  -2   28.75    1.49
   5  -4   2   29.09    1.59
   5  -4   2   28.87    1.89
  -5  -4  -2   26.53    1.69
   5   4   2   28.57    1.68
  -5   4  -2   28.48    1.84
  -5   4  -2   27.62    1.50
   5   4   2   28.99    1.74
   5   4   2   28.24    1.82
   5   4   2   24.24    1.82
   6  -4   2    6.10    0.67
  -6  -4  -2    6.73    0.62
  -6  -4  -2    6.12    0.73
  -6  -4  -2    6.64    0.86
   6  -4   2    6.43    0.86
   6  -4   2    5.38    0.90
  -6   4  -2    6.60    0.68
   6   4   2    6.57    0.92
   6   4   2    5.36    0.77
   6   4   2    7.33    0.96
   6   4   2    4.97    0.81
  -7  -5   2    4.51    0.65
   7  -5  -2    4.17    0.85
   7  -5  -2    5.17    0.53
  -7  -5   2    5.08    0.72
   7   5  -2    5.09    0.98
   7   5  -2    4.79    0.66
   7   5  -2    4.96    0.77
   7   5  -2    4.45    0.87
   6  -5  -2   23.15    1.28
  -6  -5   2   23.51    1.51
   6  -5  -2   22.38    1.28
   6  -5  -2   23.50    1.68
   6   5  -2   21.00    1.35
   6   5  -2   22.01    1.68
   6   5  -2   19.04    1.52
   6   5  -2   20.94    1.66
  -5  -5   2    4.65    0.60
   5  -5  -2    4.29    0.49
   5  -5  -2    4.14    0.59
  -5  -5   2    4.60    0.53
   5  -5  -2    4.67    0.54
   5   5  -2    5.36    0.61
   5   5  -2    3.51    0.62
   5   5  -2    4.43    0.59
   5   5  -2    3.44    0.54
   4  -5  -2   20.02    1.28
  -4  -5   2   19.14    1.14
  -4  -5   2   20.01    1.25
   4  -5  -2   19.36    1.09
   4  -5  -2   18.89    1.11
   4   5  -2   17.25    1.26
   4   5  -2   19.58    1.28
   4   5  -2   18.84    1.12
   4   5  -2   18.96    1.26
  -3  -5   2  140.68    6.86
   3  -5  -2  143.10    7.22
  -3  -5   2  135.81    6.85
   3  -5  -2  140.14    6.66
  -3  -5   2  138.40    6.68
   3  -5  -2  145.39    6.61
   3   5  -2  140.59    6.86
   3   5  -2  139.83    6.68
   3   5  -2  148.92    7.20
   3   5  -2  140.12    6.86
  -2  -5   2   30.27    1.60
   2  -5  -2   30.26    1.53
  -2  -5   2   30.91    1.56
   2  -5  -2   30.89    1.55
   2  -5  -2   30.21    1.43
   2   5  -2   27.98    1.59
   2   5  -2   27.10    1.57
   2   5  -2   26.40    1.61
   1  -5  -2   95.37    4.66
  -1  -5   2   98.14    4.72
   1  -5  -2  100.60    4.72
   1  -5  -2  100.14    4.71
  -1  -5   2  104.14    4.80
   1   5  -2  100.43    4.79
  -1   5   2   96.49    4.70
   1   5  -2   98.80    4.96
   1   5  -2   94.37    4.78
   0  -5  -2  219.93   10.01
   0  -5  -2  219.69    9.90
   0  -5   2  210.01   10.01
   0  -5   2  214.46    9.90
   0  -5  -2  218.11   10.61
   0   5  -2  207.58   10.00
   0   5   2  215.07   10.01
   0   5  -2  193.71    9.99
   0   5   2  202.93    9.88
   1  -5   2   28.91    1.57
  -1  -5  -2   28.03    1.57
  -1  -5  -2   28.33    1.59
  -1  -5  -2   28.02    1.61
   1  -5   2   27.74    1.50
   1   5   2   36.64    1.64
   2  -5   2   17.41    1.02
  -2  -5  -2   16.90    1.04
  -2  -5  -2   18.09    1.05
  -2  -5  -2   17.27    1.06
   2  -5   2   17.58    0.91
   2   5   2   15.32    1.06
  -2   5  -2   15.87    1.00
   2   5   2   15.31    1.04
   2   5   2   15.35    0.98
  -2   5  -2   15.85    0.90
   3  -5   2   62.47    3.49
   3  -5   2   64.62    3.19
  -3  -5  -2   65.00    3.52
  -3  -5  -2   62.13    3.28
  -3  -5  -2   60.51    3.36
  -3   5  -2   69.08    3.51
   3   5   2   66.47    3.53
   3   5   2   67.92    3.29
   3   5   2   70.94    3.40
  -3   5  -2   68.66    3.17
  -4  -5  -2   21.93    1.25
   4  -5   2   25.71    1.51
   4  -5   2   24.14    1.13
  -4  -5  -2   22.84    1.45
  -4  -5  -2   23.02    1.40
   4  -5   2   23.63    1.18
   4   5   2   16.26    1.37
   4   5   2   17.66    1.38
   4   5   2   20.48    1.53
  -4   5  -2   19.57    1.40
  -4   5  -2   19.09    1.12
   4   5   2   19.29    1.33
   5  -5   2    1.27    0.54
  -5  -5  -2    1.49    0.50
  -5  -5  -2    1.73    0.49
  -5  -5  -2    1.64    0.40
   5  -5   2    1.88    0.36
   5   5   2    1.49    0.54
  -5   5  -2    1.52    0.28
   5   5   2    1.40    0.53
   5   5   2    1.21    0.54
   5   5   2    1.43    0.48
  -6  -5  -2   15.07    1.53
   6  -5   2   15.22    1.08
  -6  -5  -2   14.63    1.32
   6  -5   2   14.29    1.09
  -6  -5  -2   14.50    1.10
   6  -5   2   13.95    1.57
  -6   5  -2   16.29    0.97
   6   5   2   17.43    1.53
   6   5   2   14.21    1.54
   6   5   2   19.32    1.41
   6   5   2   18.33    1.60
  -7  -6   2    8.14    0.95
   7  -6  -2    7.60    0.82
   7  -6  -2    8.67    1.15
  -7  -6   2    7.82    0.93
   7  -6  -2    8.31    0.94
   7   6  -2    5.80    1.01
   7   6  -2    7.01    1.11
   7   6  -2    8.71    1.22
   6  -6  -2    3.35    0.71
  -6  -6   2    3.76    0.64
  -6  -6   2    3.20    0.61
   6  -6  -2    3.36    0.51
   6  -6  -2    3.28    0.54
   6   6  -2    4.49    0.73
   6   6  -2    4.06    0.62
   6   6  -2    4.60    0.81
   6   6  -2    3.08    0.76
  -5  -6   2   32.67    1.89
   5  -6  -2   34.17    1.83
   5  -6  -2   34.15    1.84
   5  -6  -2   33.86    2.10
  -5  -6   2   29.95    2.00
   5   6  -2   35.09    1.89
   5   6  -2   35.64    2.11
   5   6  -2   35.62    2.10
   5   6  -2   34.92    2.10
   4  -6  -2   26.71    1.56
   4  -6  -2   27.09    1.56
   4  -6  -2   27.64    1.74
  -4  -6   2   27.06    1.61
  -4  -6   2   27.07    1.73
   4   6  -2   31.01    1.74
   4   6  -2   30.31    1.76
   4   6  -2   29.67    1.61
   4   6  -2   33.46    1.81
   3  -6  -2    2.75    0.38
   3  -6  -2    3.01    0.42
  -3  -6   2    2.48    0.43
  -3  -6   2    2.92    0.42
   3  -6  -2    2.97    0.41
   3   6  -2    2.73    0.36
   3   6  -2    2.56    0.43
   3   6  -2    2.60    0.48
   2  -6  -2  134.25    6.12
   2  -6  -2  132.78    6.11
   2  -6  -2  127.17    6.16
  -2  -6   2  135.71    6.32
  -2  -6   2  131.74    6.19
  -2  -6   2  127.43    6.29
   2   6  -2  124.75    6.28
  -2   6   2  126.24    6.12
   2   6  -2  127.62    6.54
   2   6  -2  128.72    6.30
  -1  -6   2   16.39    0.93
   1  -6  -2   15.57    0.91
  -1  -6   2   16.27    0.90
   1  -6  -2   15.11    0.89
   1  -6  -2   15.76    0.82
   1   6  -2   11.55    0.85
  -1   6   2   12.43    0.85
  -1   6   2   11.82    0.78
   1   6  -2   10.80    0.89
   0  -6  -2   64.58    3.03
   0  -6  -2   59.76    3.00
   0  -6  -2   63.32    3.13
   0  -6   2   62.59    3.00
   0  -6   2   60.51    3.02
   0   6   2   57.14    2.99
   0   6  -2   57.02    2.98
   0   6   2   59.32    3.00
   0   6  -2   60.52    3.00
  -1  -6  -2   16.42    1.01
  -1  -6  -2   15.96    1.05
   1  -6   2   15.44    0.94
  -1  -6  -2   15.34    1.03
   1   6   2   18.40    1.09
  -1   6  -2   19.27    0.96
   1   6   2   18.09    1.04
  -2  -6  -2   87.03    4.56
  -2  -6  -2   85.84    4.48
   2  -6   2   91.23    4.42
   2  -6   2   88.42    4.73
  -2  -6  -2   96.91    4.78
   2   6   2   93.25    4.78
  -2   6  -2   96.57    4.43
   2   6   2   94.87    4.59
  -2   6  -2   93.64    4.72
  -2   6  -2   93.12    4.41
   2   6   2   91.93    4.49
   3  -6   2   15.98    1.15
  -3  -6  -2   15.45    1.15
   3  -6   2   15.06    0.94
  -3  -6  -2   16.22    1.15
  -3  -6  -2   15.42    1.18
   3   6   2   18.78    1.20
   3   6   2   18.98    1.15
  -3   6  -2   19.07    0.93
   3   6   2   18.91    1.26
   3   6   2   18.65    1.24
  -3   6  -2   19.04    1.17
   4  -6   2    8.71    0.58
  -4  -6  -2    7.84    0.87
   4  -6   2    7.43    0.64
  -4  -6  -2    7.66    0.89
   4  -6   2    7.73    0.88
  -4  -6  -2    7.75    0.90
   4   6   2    7.22    0.91
   4   6   2    6.98    0.95
   4   6   2    8.99    1.03
   4   6   2    6.20    0.83
  -5  -6  -2   45.54    2.54
   5  -6   2   42.34    2.11
   5  -6   2   42.96    2.63
  -5  -6  -2   42.23    2.28
  -5  -6  -2   44.06    2.65
   5   6   2   43.05    2.44
   5   6   2   44.93    2.59
   5   6   2   41.52    2.56
   5   6   2   43.02    2.65
  -6  -6  -2    1.94    0.78
  -6  -6  -2    2.82    0.61
   6  -6   2    1.95    0.82
  -6  -6  -2    3.87    0.66
   6   6   2    1.33    0.78
   6   6   2    2.10    0.86
   6   6   2    2.36    0.78
   6   6   2    2.79    0.75
   6  -7  -2   13.51    1.13
  -6  -7   2   14.94    1.29
  -6  -7   2   14.75    1.38
   6  -7  -2   12.56    1.14
   6  -7  -2   13.73    1.42
   6   7  -2   13.09    1.58
   6   7  -2   12.10    1.43
   6   7  -2   14.28    1.59
   5  -7  -2    4.51    0.59
   5  -7  -2    4.21    0.55
  -5  -7   2    4.37    0.67
   5  -7  -2    3.39    0.63
  -5  -7   2    4.87    0.64
   5   7  -2    4.32    0.74
   5   7  -2    3.81    0.72
   5   7  -2    4.12    0.60
   5   7  -2    4.04    0.65
  -4  -7   2    6.36    0.84
   4  -7  -2    6.15    0.68
   4  -7  -2    5.60    0.69
   4  -7  -2    5.95    0.74
  -4  -7   2    5.26    0.62
   4   7  -2    4.43    0.67
   4   7  -2    4.72    0.75
   4   7  -2    4.02    0.55
  -3  -7   2   39.88    2.26
   3  -7  -2   41.24    2.25
   3  -7  -2   38.75    2.12
  -3  -7   2   39.41    2.17
   3  -7  -2   40.11    2.14
   3   7  -2   42.07    2.21
   3   7  -2   40.35    2.27
   3   7  -2   42.09    2.24
   2  -7  -2    2.90    0.41
  -2  -7   2    2.83    0.47
   2  -7  -2    3.64    0.36
   2  -7  -2    3.14    0.45
  -2  -7   2    3.14    0.45
  -2  -7   2    2.84    0.40
   2   7  -2    5.70    0.69
   2   7  -2    4.70    0.53
   1  -7  -2    8.84    0.63
   1  -7  -2    8.91    0.69
  -1  -7   2   10.49    0.73
   1  -7  -2    8.11    0.71
  -1  -7   2    9.19    0.67
   1   7  -2    7.53    0.65
  -1   7   2    8.81    0.67
  -1   7   2    7.36    0.57
   1   7  -2    7.82    0.74
   0  -7  -2   64.62    3.26
   0  -7   2   62.31    3.14
   0  -7  -2   57.52    3.15
   0  -7   2   62.62    3.17
   0  -7  -2   61.12    3.15
   0   7  -2   65.61    3.16
   0   7   2   63.92    3.15
   0   7   2   66.36    3.17
   0   7  -2   63.31    3.14
   0   7   2   63.87    3.14
  -1  -7  -2   40.02    2.29
  -1  -7  -2   43.15    2.29
   1  -7   2   42.75    2.27
   1  -7   2   41.96    2.19
  -1  -7  -2   42.21    2.27
   1   7   2   44.97    2.27
  -1   7  -2   45.53    2.19
   1   7   2   45.92    2.28
   1   7   2   43.92    2.31
  -2  -7  -2   46.15    2.33
  -2  -7  -2   40.99    2.35
   2  -7   2   41.58    2.30
   2  -7   2   42.46    2.17
  -2  -7  -2   44.88    2.38
   2  -7   2   42.76    2.32
   2   7   2   44.89    2.34
   2   7   2   41.29    2.28
  -2   7  -2   44.72    2.16
  -2   7  -2   45.16    2.19
   2   7   2   44.37    2.39
  -3  -7  -2   39.22    2.14
   3  -7   2   41.05    2.11
  -3  -7  -2   39.92    2.13
  -3  -7  -2   39.44    2.06
   3  -7   2   38.92    1.84
   3   7   2   32.17    2.00
   3   7   2   34.31    2.14
   3   7   2   30.98    2.05
   3   7   2   33.68    2.13
   4  -7   2   12.10    0.89
  -4  -7  -2   10.55    1.09
  -4  -7  -2   13.75    1.22
  -4  -7  -2   11.21    1.07
   4  -7   2   13.15    1.11
   4   7   2   12.34    1.20
   4   7   2   12.92    1.14
   4   7   2   13.27    1.28
   4   7   2   11.76    1.06
  -5  -7  -2    3.63    0.72
  -5  -7  -2    3.72    0.72
   5  -7   2    4.08    0.78
  -5  -7  -2    4.36    0.68
   5  -7   2    4.39    0.51
   5   7   2    4.94    0.73
   5   7   2    3.84    0.75
   5   7   2    4.17    0.86
   5   7   2    4.34    0.80
  -6  -8   2    3.76    0.82
   6  -8  -2    4.23    0.83
  -6  -8   2    5.14    0.93
   6  -8  -2    3.87    0.72
   6  -8  -2    3.45    0.66
   6   8  -2    3.89    1.04
   6   8  -2    3.99    0.94
   6   8  -2    4.24    0.89
   5  -8  -2   10.09    1.00
   5  -8  -2    8.74    0.98
  -5  -8   2    9.01    1.20
  -5  -8   2    8.72    1.09
   5  -8  -2    9.17    1.10
   5   8  -2    9.14    1.08
   5   8  -2    9.33    1.14
   5   8  -2    8.68    1.03
  -4  -8   2   30.16    1.82
  -4  -8   2   29.86    1.93
   4  -8  -2   31.23    1.76
   4  -8  -2   29.25    1.73
   4  -8  -2   30.36    1.84
   4   8  -2   29.46    1.81
   4   8  -2   30.16    1.90
   4   8  -2   29.88    1.97
  -3  -8   2    0.03    0.40
  -3  -8   2   -0.44    0.35
   3  -8  -2    0.08    0.34
   3  -8  -2    0.32    0.39
   3  -8  -2    0.28    0.29
   3   8  -2    0.27    0.47
   3   8  -2    0.39    0.30
   3   8  -2   -0.27    0.32
   2  -8  -2   31.64    1.75
   2  -8  -2   31.84    1.59
   2  -8  -2   32.16    1.73
   2  -8  -2   32.31    1.78
  -2  -8   2   34.41    1.80
   2   8  -2   30.23    1.84
   2   8  -2   29.46    1.76
  -2   8   2   30.28    1.56
  -2   8   2   28.68    1.56
  -1  -8   2   72.82    4.07
  -1  -8   2   85.96    4.10
   1  -8  -2   81.08    4.08
   1  -8  -2   82.71    4.03
   1  -8  -2   88.65    4.04
   1   8  -2   81.79    4.09
  -1   8   2   85.70    4.02
  -1   8   2   83.53    4.07
   1   8  -2   78.34    4.11
   0  -8  -2    0.42    0.28
   0  -8   2    0.40    0.24
   0  -8  -2    0.73    0.22
   0  -8  -2    0.79    0.33
   0  -8   2    0.59    0.26
   0   8   2    0.61    0.23
   0   8   2    0.44    0.32
   0   8  -2    0.37    0.31
   0   8   2    0.04    0.23
   0   8  -2    0.30    0.22
  -1  -8  -2   20.21    1.31
   1  -8   2   22.25    1.32
   1  -8   2   20.21    1.20
  -1  -8  -2   21.56    1.22
  -1  -8  -2   22.19    1.35
   1   8   2   20.36    1.35
   1   8   2   19.43    1.26
   1   8   2   21.42    1.27
  -1   8  -2   21.31    1.19
  -2  -8  -2    7.75    0.69
  -2  -8  -2    7.37    0.89
   2  -8   2    6.31    0.77
   2  -8   2    7.59    0.61
  -2  -8  -2    6.85    0.76
   2   8   2    6.50    0.66
   2   8   2    6.55    0.67
   2   8   2    8.04    0.92
  -2   8  -2    7.48    0.60
  -2   8  -2    7.81    0.57
   3  -8   2   14.37    1.07
  -3  -8  -2   16.16    1.27
  -3  -8  -2   15.32    1.17
   3  -8   2   13.41    1.15
  -3  -8  -2   14.22    1.11
   3  -8   2   14.27    0.85
   3   8   2   16.26    1.16
   3   8   2   16.67    1.12
   3   8   2   15.68    1.33
  -4  -8  -2   10.93    1.14
  -4  -8  -2   11.17    1.24
  -4  -8  -2   11.78    1.15
   4  -8   2   10.43    1.12
   4  -8   2   10.96    1.12
   4  -8   2   10.27    0.93
   4   8   2   10.60    1.08
   4   8   2   10.73    1.13
   4   8   2   10.72    1.34
   4   8   2   10.22    1.13
   5  -8   2   16.78    1.20
  -5  -8  -2   17.99    1.63
  -5  -8  -2   15.19    1.43
   5  -8   2   18.37    1.62
  -5  -8  -2   18.99    1.69
   5  -8   2   16.14    1.51
   5   8   2   16.56    1.50
   5   8   2   17.75    1.58
   5   8   2   19.16    1.87
   5   8   2   14.93    1.59
  -5  -9   2    0.94    0.72
  -5  -9   2    2.94    0.70
   5  -9  -2    1.97    0.63
   5  -9  -2    1.81    0.59
   5  -9  -2    1.68    0.60
   5   9  -2    1.50    0.64
   5   9  -2    2.46    0.86
   5   9  -2    2.43    0.79
  -4  -9   2    2.37    0.65
   4  -9  -2    2.43    0.60
   4  -9  -2    2.09    0.50
   4  -9  -2    2.80    0.55
  -4  -9   2    1.83    0.60
   4   9  -2    1.22    0.72
   4   9  -2    0.86    0.45
   4   9  -2    1.26    0.56
  -3  -9   2    6.81    0.89
   3  -9  -2    6.76    0.72
  -3  -9   2    6.87    0.83
   3  -9  -2    6.83    0.91
   3  -9  -2    6.80    0.85
   3   9  -2    8.48    1.11
   3   9  -2    6.49    0.76
   3   9  -2    8.49    0.73
  -2  -9   2    2.26    0.47
   2  -9  -2    1.94    0.33
   2  -9  -2    2.03    0.49
   2  -9  -2    1.93    0.46
   2   9  -2    2.55    0.42
  -2   9   2    2.72    0.30
   2   9  -2    2.51    0.57
  -2   9   2    2.57    0.31
   1  -9  -2    2.08    0.40
   1  -9  -2    2.29    0.48
  -1  -9   2    2.12    0.39
   1  -9  -2    1.21    0.37
   1   9  -2    1.44    0.34
  -1   9   2    1.56    0.32
   1   9  -2    1.62    0.47
   0  -9   2   22.10    1.28
   0  -9  -2   21.42    1.29
   0  -9  -2   21.32    1.26
   0   9  -2   17.27    1.15
   0   9   2   18.53    1.16
   0   9  -2   17.44    1.23
   0   9   2   18.91    1.22
   0   9   2   17.38    1.22
   1  -9   2   16.48    1.08
  -1  -9  -2   17.13    1.03
   1  -9   2   16.44    1.17
  -1  -9  -2   19.31    1.26
  -1  -9  -2   14.05    1.16
   1   9   2   17.23    1.16
   1   9   2   19.05    1.14
  -1   9  -2   18.26    1.07
   1   9   2   16.96    1.26
   2  -9   2    2.00    0.50
  -2  -9  -2    2.33    0.56
  -2  -9  -2    1.55    0.43
  -2  -9  -2    1.77    0.36
  -2   9  -2    1.27    0.31
   2   9   2    1.47    0.58
  -2   9  -2    1.22    0.31
   2   9   2    1.11    0.34
   2   9   2    1.38    0.35
   3  -9   2   23.79    1.62
  -3  -9  -2   22.16    1.55
   3  -9   2   22.91    1.47
  -3  -9  -2   23.22    1.60
  -3  -9  -2   22.36    1.68
   3   9   2   25.88    1.80
   3   9   2   24.97    1.57
   3   9   2   26.88    1.58
  -4  -9  -2   18.31    1.44
  -4  -9  -2   17.67    1.63
   4  -9   2   16.28    1.45
  -4  -9  -2   18.28    1.49
   4  -9   2   16.55    1.37
   4  -9   2   15.30    1.25
   4   9   2   14.79    1.40
   4   9   2   18.43    1.44
   4   9   2   17.31    1.76
   4 -10  -2    9.37    0.98
   4 -10  -2    8.87    1.11
   4 -10  -2    9.53    1.01
  -4 -10   2    8.26    0.99
   4  10  -2    7.72    0.90
   4  10  -2    7.17    1.09
   4  10  -2    6.79    0.75
  -3 -10   2    0.96    0.52
   3 -10  -2    0.82    0.55
   3 -10  -2    0.77    0.37
   3 -10  -2    0.83    0.53
   3  10  -2    0.77    0.67
   3  10  -2    1.39    0.43
  -2 -10   2   10.55    1.06
   2 -10  -2   10.17    1.06
   2 -10  -2   10.66    1.10
  -2  10   2   12.20    0.75
   2  10  -2   12.76    1.25
   2  10  -2   11.86    0.94
  -2  10   2   12.46    0.77
   1 -10  -2   19.15    1.36
   1 -10  -2   17.46    1.27
  -1 -10   2   20.38    1.31
   1 -10  -2   19.93    1.23
  -1  10   2   16.83    1.15
   1  10  -2   18.74    1.21
   1  10  -2   19.84    1.43
   0 -10  -2    0.56    0.42
   0 -10  -2    0.31    0.37
   0 -10   2    0.43    0.32
   0  10   2    0.51    0.43
   0  10   2    0.45    0.33
   0  10  -2    0.11    0.30
   0  10   2    0.17    0.32
   0  10  -2    0.78    0.44
  -1 -10  -2    6.11    0.76
  -1 -10  -2    6.78    0.81
   1 -10   2    7.36    0.85
   1  10   2    7.99    0.74
   1  10   2    8.23    0.82
  -1  10  -2    8.29    0.74
   1  10   2    7.53    1.03
  -2 -10  -2   27.29    1.66
   2 -10   2   26.26    1.70
  -2 -10  -2   27.78    1.80
  -2 -10  -2   25.86    1.52
  -2  10  -2   24.86    1.39
   2  10   2   22.90    1.81
  -2  10  -2   25.53    1.43
   2  10   2   24.37    1.56
   2  10   2   25.52    1.58
   3 -10   2   16.54    1.42
  -3 -10  -2   18.67    1.60
  -3 -10  -2   17.49    1.27
  -3 -10  -2   17.67    1.41
   3  10   2   13.41    1.63
   3  10   2   15.42    1.24
   3  10   2   13.76    1.27
   4 -10   2    6.95    0.98
   4 -10   2    7.16    0.82
  -4 -10  -2    6.85    1.02
  -4 -10  -2    7.16    0.96
   4 -10   2    6.23    0.83
  -4 -10  -2    6.35    1.09
   4  10   2    6.81    1.21
   4  10   2    5.90    0.88
   4  10   2    5.11    0.84
   4 -11  -2    6.41    0.97
  -4 -11   2    6.78    0.97
   4 -11  -2    6.03    0.73
   4 -11  -2    6.61    0.98
   4  11  -2    5.65    0.85
   3 -11  -2    5.28    0.69
   3 -11  -2    5.55    0.88
  -3 -11   2    5.48    0.84
   3 -11  -2    5.68    0.82
   3  11  -2    5.46    0.68
   3  11  -2    5.74    1.00
  -2 -11   2    6.43    0.78
   2 -11  -2    5.94    0.85
   2 -11  -2    5.76    0.80
   2  11  -2    5.96    0.80
  -2  11   2    6.96    0.60
  -2  11   2    5.78    0.65
   2  11  -2    6.93    0.94
   1 -11  -2    5.70    0.67
  -1 -11   2    5.11    0.66
   1 -11  -2    5.26    0.72
   1 -11  -2    5.71    0.78
  -1  11   2    5.33    0.72
   1  11  -2    5.78    0.82
   1  11  -2    6.82    0.75
   0 -11  -2   19.88    1.36
   0 -11   2   16.36    1.27
   0 -11  -2   18.71    1.34
   0 -11  -2   18.07    1.27
   0  11  -2   17.06    1.19
   0  11   2   17.06    1.23
   0  11  -2   16.36    1.31
   0  11   2   17.40    1.36
  -1 -11  -2    3.70    0.72
  -1 -11  -2    5.01    0.63
   1 -11   2    4.00    0.64
  -1  11  -2    3.31    0.50
   1  11   2    2.62    0.75
   1  11   2    2.83    0.48
  -1  11  -2    3.49    0.54
   1  11   2    2.78    0.53
  -2 -11  -2   -0.36    0.44
   2 -11   2    0.92    0.57
  -2 -11  -2    0.63    0.69
  -2  11  -2    0.22    0.37
   2  11   2    0.24    0.46
  -2  11  -2   -0.17    0.34
   2  11   2    0.85    0.76
   2  11   2    0.75    0.44
  -3 -11  -2   16.79    1.75
   3 -11   2   16.48    1.58
  -3 -11  -2   17.19    1.53
  -3 -11  -2   17.52    1.59
   3  11   2   14.17    1.28
   3  11   2   12.76    1.42
   3  11   2   16.66    1.95
   2 -12  -2    1.97    0.75
  -2 -12   2    2.71    0.73
   2 -12  -2    2.83    0.73
   2  12  -2    3.41    0.94
   2  12  -2    2.12    0.49
  -1 -12   2    6.22    0.84
   1 -12  -2    6.88    0.80
   1 -12  -2    7.84    0.98
   1  12  -2    6.83    0.92
  -1  12   2    6.77    0.74
   1  12  -2    6.66    0.98
  -1  12   2    6.55    0.70
   0 -12   2    0.30    0.50
   0 -12  -2    0.88    0.62
   0 -12  -2    0.33    0.45
   0 -12  -2    0.70    0.55
   0  12   2    0.50    0.66
   0  12  -2    0.01    0.62
   0  12   2    0.08    0.47
   0  12  -2    0.38    0.47
   1 -12   2    4.30    0.74
  -1 -12  -2    4.25    0.66
  -1 -12  -2    4.63    0.87
  -1 -12  -2    4.40    0.71
  -1  12  -2    3.89    0.63
   1  12   2    3.95    0.91
  -1  12  -2    3.97    0.62
   1  12   2    3.72    0.62
   8   0  -3    4.91    0.73
   8   0  -3    3.66    0.76
   8   0  -3    3.64    0.83
   7   0  -3   47.55    2.80
   7   0  -3   44.81    2.53
  -7   0   3   46.33    2.28
   7   0  -3   47.43    2.59
   6   0  -3    6.13    0.74
  -6   0   3    5.89    0.56
   6   0  -3    6.01    0.63
   6   0  -3    6.23    0.78
   5   0  -3   12.28    0.97
   5   0  -3   12.27    0.89
  -5   0   3   12.01    0.79
   5   0  -3   12.32    0.83
   4   0  -3   38.07    1.91
  -4   0   3   35.62    1.83
   4   0  -3   37.06    1.89
   4   0  -3   35.77    2.08
  -4   0   3   36.21    1.90
  -3   0   3   59.96    2.97
  -3   0   3   58.85    2.89
   3   0  -3   60.95    2.97
   3   0  -3   61.94    2.97
   2   0  -3   22.23    1.18
   2   0  -3   22.06    1.17
  -2   0   3   22.86    1.18
  -2   0   3   22.14    1.19
   1   0  -3   21.89    1.16
  -1   0   3   22.44    1.18
   1   0  -3   22.27    1.17
   0   0  -3   45.27    2.22
   0   0   3   46.30    2.22
   0   0   3   46.56    2.31
   0   0  -3   47.57    2.31
  -1   0  -3    3.41    0.39
  -1   0  -3    2.83    0.32
   1   0   3    2.83    0.39
   1   0   3    3.19    0.31
  -2   0  -3  468.02   22.18
  -2   0  -3  448.26   21.45
  -2   0  -3  476.07   23.61
   2   0   3  503.26   21.46
   2   0   3  478.63   23.62
   2   0   3  454.05   22.18
   3   0   3  229.95   11.55
   3   0   3  224.92   10.82
  -3   0  -3  230.56   10.82
  -3   0  -3  223.72   11.53
  -4   0  -3    0.34    0.21
  -4   0  -3    0.61    0.22
   4   0   3    0.27    0.28
   4   0   3    0.42    0.21
  -5   0  -3    7.36    0.70
   5   0   3    7.69    0.82
   5   0   3    7.65    0.89
   5   0   3    7.51    0.70
  -5   0  -3    8.94    0.82
   6   0   3   64.38    3.73
  -6   0  -3   62.82    3.36
  -6   0  -3   67.01    3.70
   6   0   3   63.48    3.39
   6   0   3   67.49    3.40
   7  -1  -3    1.45    0.50
   7  -1  -3    1.84    0.49
   7  -1  -3    0.41    0.43
  -7  -1   3    1.20    0.34
   7   1  -3    1.37    0.60
  -7   1   3    1.81    0.33
   7   1  -3    1.86    0.48
   7   1  -3    1.19    0.45
  -6  -1   3   27.68    1.41
   6  -1  -3   27.75    1.52
   6  -1  -3   27.88    1.72
   6  -1  -3   25.94    1.48
   6   1  -3   22.66    1.65
   6   1  -3   23.48    1.48
  -6   1   3   25.00    1.36
   6   1  -3   25.16    1.59
   5  -1  -3   65.43    3.23
   5  -1  -3   63.99    3.54
  -5  -1   3   62.28    3.13
   5  -1  -3   63.70    3.21
   5   1  -3   64.16    3.54
   5   1  -3   67.16    3.29
   5   1  -3   66.05    3.27
  -5   1   3   64.80    3.09
  -4  -1   3    3.30    0.43
   4  -1  -3    2.16    0.35
   4  -1  -3    3.42    0.43
   4  -1  -3    3.84    0.41
   4  -1  -3    3.04    0.37
  -4  -1   3    3.03    0.41
   4   1  -3    2.39    0.37
  -4   1   3    2.58    0.32
   4   1  -3    2.15    0.33
  -4   1   3    2.78    0.34
   4   1  -3    2.58    0.41
   3  -1  -3   62.86    3.21
   3  -1  -3   65.59    3.27
   3  -1  -3   67.63    3.27
  -3  -1   3   63.06    3.31
  -3  -1   3   65.77    3.21
  -3   1   3   68.79    3.21
  -3   1   3   70.06    3.28
   3   1  -3   72.82    3.34
   3   1  -3   70.86    3.33
   2  -1  -3  229.27   11.20
  -2  -1   3  233.13   11.23
   2  -1  -3  220.77   10.91
  -2  -1   3  228.99   10.91
  -2   1   3  236.65   10.91
   2   1  -3  247.22   11.24
  -2   1   3  240.80   11.20
  -2   1   3  264.09   10.97
  -1   1   3    7.91    0.55
  -1   1   3    8.31    0.50
  -1   1   3    7.85    0.54
   1   1  -3    8.33    0.56
   0  -1   3   33.12    1.70
   0  -1   3   33.78    1.64
   0  -1  -3   31.53    1.63
   0  -1  -3   32.82    1.70
   0   1   3   33.56    1.64
   0   1   3   34.66    1.71
   0   1  -3   34.73    1.71
  -1   1  -3   11.31    0.76
   1   1   3   11.12    0.77
   1   1   3   11.11    0.73
  -1   1  -3   11.21    0.72
   1   1   3   11.97    0.65
   2  -1   3  123.07    6.00
  -2  -1  -3  130.56    6.42
   2  -1   3  135.21    5.75
  -2  -1  -3  131.20    5.77
  -2  -1  -3  125.69    6.02
   2  -1   3  139.70    6.46
  -2   1  -3  114.46    5.99
   2   1   3  125.32    6.43
   2   1   3  112.59    6.01
  -2   1  -3  112.74    6.38
  -3  -1  -3    9.33    0.67
   3  -1   3    9.39    0.64
   3  -1   3    9.66    0.77
  -3  -1  -3    9.43    0.53
  -3  -1  -3    9.26    0.73
   3   1   3    8.74    0.76
  -3   1  -3    8.25    0.63
  -3   1  -3    8.73    0.71
   3   1   3    8.15    0.67
   3   1   3    8.51    0.66
  -4  -1  -3   15.04    1.04
  -4  -1  -3   15.01    1.15
   4  -1   3   15.15    1.02
   4  -1   3   15.30    1.20
   4   1   3   18.40    1.23
  -4   1  -3   18.76    1.05
   4   1   3   18.46    1.10
  -4   1  -3   18.05    1.17
   4   1   3   19.47    1.12
  -5  -1  -3   19.84    1.34
   5  -1   3   21.32    1.34
   5  -1   3   19.89    1.54
  -5  -1  -3   20.69    1.49
  -5   1  -3   23.52    1.34
   5   1   3   23.58    1.59
  -5   1  -3   24.91    1.54
   5   1   3   23.71    1.41
   5   1   3   24.77    1.43
  -6  -1  -3    0.60    0.43
  -6  -1  -3   -0.04    0.33
   6  -1   3    0.04    0.50
   6  -1   3   -0.37    0.44
   6  -1   3    0.45    0.42
  -6   1  -3   -0.04    0.44
   6   1   3    0.92    0.54
  -6   1  -3    0.85    0.36
   6   1   3   -0.04    0.41
   6   1   3    0.31    0.40
  -7  -2   3   12.10    0.94
   7  -2  -3   12.37    1.22
   7  -2  -3   11.89    1.02
   7  -2  -3   12.30    1.06
   7   2  -3   12.99    1.01
   7   2  -3   12.14    1.27
   7   2  -3   11.29    1.21
   6  -2  -3   31.89    1.80
  -6  -2   3   31.26    1.79
   6  -2  -3   30.26    1.82
   6  -2  -3   31.77    2.08
   6   2  -3   36.06    1.91
   6   2  -3   35.23    2.12
   6   2  -3   36.43    2.00
  -6   2   3   36.28    1.72
  -5  -2   3   13.96    0.85
   5  -2  -3   13.12    1.01
   5  -2  -3   13.41    0.81
   5  -2  -3   12.74    0.79
   5  -2  -3   12.89    0.82
   5   2  -3   10.96    0.95
   5   2  -3   10.96    0.86
  -5   2   3   10.66    0.77
   5   2  -3   10.69    0.97
  -4  -2   3   74.98    3.69
  -4  -2   3   74.63    3.47
   4  -2  -3   74.54    3.58
   4  -2  -3   77.08    3.95
   4  -2  -3   72.70    3.52
  -4  -2   3   78.38    3.54
   4  -2  -3   76.60    3.58
   4   2  -3   69.87    3.68
   4   2  -3   67.55    3.66
   4   2  -3   73.86    3.93
  -4   2   3   71.51    3.50
   3  -2  -3   56.91    2.79
  -3  -2   3   56.50    2.90
   3  -2  -3   58.09    2.71
   3  -2  -3   59.96    2.81
   3  -2  -3   60.30    2.81
  -3  -2   3   56.28    2.74
   3   2  -3   57.39    2.91
   3   2  -3   57.33    2.89
  -3   2   3   57.71    2.78
  -2  -2   3   11.94    0.75
   2  -2  -3   11.82    0.66
   2  -2  -3   10.86    0.68
   2  -2  -3   11.86    0.61
   2   2  -3    9.35    0.71
  -2   2   3   10.76    0.67
  -2   2   3   10.31    0.60
   2   2  -3   10.25    0.71
   1  -2  -3  177.85    8.77
   1  -2  -3  173.22    8.69
   1  -2  -3  180.22    8.92
  -1  -2   3  177.73    8.94
  -1   2   3  208.80    8.78
   1   2  -3  198.69    8.95
  -1   2   3  205.32    8.94
   0  -2   3   69.61    3.30
   0  -2  -3   72.64    3.22
   0  -2  -3   70.63    3.31
   0   2   3   68.41    3.25
   0   2  -3   63.69    3.29
   0   2   3   66.45    3.20
   0   2   3   63.00    3.30
   1  -2   3    4.66    0.45
   1  -2   3    4.23    0.43
  -1  -2  -3    4.63    0.45
  -1  -2  -3    4.36    0.41
  -1  -2  -3    4.80    0.49
   1   2   3    4.23    0.38
  -1   2  -3    4.61    0.44
   1   2   3    4.80    0.45
  -1   2  -3    4.54    0.45
   2  -2   3   84.69    4.56
  -2  -2  -3   82.31    4.56
   2  -2   3   86.50    4.07
  -2  -2  -3   83.69    4.30
   2  -2   3   85.88    4.27
  -2  -2  -3   87.34    4.11
   2   2   3   88.05    4.58
   2   2   3   90.53    4.24
  -2   2  -3   92.48    4.56
  -2   2  -3   91.35    4.27
   2   2   3   94.89    4.32
   3  -2   3  100.38    4.93
   3  -2   3   98.97    5.30
  -3  -2  -3  103.44    4.72
  -3  -2  -3   98.63    4.97
  -3  -2  -3  100.97    5.30
   3   2   3  102.02    4.99
   3   2   3  104.60    4.90
  -3   2  -3  104.29    5.29
   3   2   3  100.75    5.32
  -3   2  -3  101.50    4.92
   4  -2   3   20.92    1.39
  -4  -2  -3   18.47    1.27
  -4  -2  -3   20.03    1.21
  -4  -2  -3   20.40    1.02
   4  -2   3   21.19    1.18
   4   2   3   19.07    1.36
   4   2   3   20.66    1.24
  -4   2  -3   18.99    1.29
   4   2   3   18.02    1.21
  -4   2  -3   18.91    1.14
   5  -2   3   42.77    2.63
   5  -2   3   41.88    2.32
  -5  -2  -3   42.59    2.36
  -5  -2  -3   41.18    2.53
   5   2   3   45.92    2.61
   5   2   3   45.34    2.39
   5   2   3   44.03    2.37
  -5   2  -3   44.29    2.30
  -5   2  -3   44.75    2.58
  -6  -2  -3   51.35    2.86
  -6  -2  -3   49.99    2.62
   6  -2   3   50.96    2.64
   6  -2   3   52.18    3.00
   6   2   3   46.26    2.90
   6   2   3   46.28    2.64
  -6   2  -3   42.01    2.52
  -6   2  -3   45.64    2.87
   6   2   3   47.14    2.64
   7  -3  -3    0.95    0.55
  -7  -3   3    1.83    0.52
   7  -3  -3    1.31    0.44
   7  -3  -3    1.36    0.47
   7   3  -3    1.10    0.56
   7   3  -3    1.51    0.45
   7   3  -3    0.62    0.64
  -6  -3   3   26.98    1.51
   6  -3  -3   25.70    1.42
   6  -3  -3   25.80    1.42
   6  -3  -3   26.40    1.75
   6   3  -3   24.09    1.54
   6   3  -3   24.15    1.67
   6   3  -3   25.86    1.75
   5  -3  -3   56.00    2.68
   5  -3  -3   55.01    2.67
  -5  -3   3   54.07    2.70
  -5  -3   3   55.52    2.63
   5  -3  -3   53.96    3.05
   5  -3  -3   53.61    2.67
   5   3  -3   54.03    3.03
   5   3  -3   55.18    2.84
  -5   3   3   51.08    2.63
   5   3  -3   53.26    2.87
  -4  -3   3    8.81    0.58
   4  -3  -3    9.11    0.66
   4  -3  -3    7.71    0.76
  -4  -3   3    9.98    0.82
   4  -3  -3    8.42    0.56
   4  -3  -3    8.75    0.52
   4  -3  -3    9.20    0.56
   4   3  -3    8.46    0.77
  -4   3   3    8.44    0.63
   4   3  -3    8.35    0.76
   4   3  -3    8.05    0.70
  -3  -3   3   53.90    2.82
  -3  -3   3   52.58    2.68
   3  -3  -3   56.71    2.70
   3  -3  -3   56.18    2.65
   3  -3  -3   54.94    2.71
   3   3  -3   57.00    2.84
  -3   3   3   57.88    2.69
   3   3  -3   57.23    2.83
  -3   3   3   55.63    2.70
   2  -3  -3  198.42    9.32
   2  -3  -3  189.88    9.11
  -2  -3   3  187.84    9.39
  -2  -3   3  195.84    9.19
   2  -3  -3  193.73    9.17
   2   3  -3  204.19    9.40
  -2   3   3  201.28    9.11
  -2   3   3  209.69    9.18
   2   3  -3  196.33    9.40
   1  -3  -3   64.13    3.16
  -1  -3   3   66.64    3.25
   1  -3  -3   64.66    3.17
   1  -3  -3   63.00    3.20
  -1   3   3   67.64    3.17
  -1   3   3   67.53    3.16
  -1   3   3   68.21    3.21
   1   3  -3   67.46    3.25
   0  -3  -3   82.72    3.87
   0  -3   3   83.79    3.86
   0  -3  -3   79.51    3.81
   0  -3  -3   77.90    3.76
   0   3   3   80.15    3.81
   0   3  -3   81.99    3.86
   0   3   3   76.73    3.76
   0   3   3   75.85    3.86
   0   3  -3   78.93    4.07
  -1  -3  -3  349.13   17.61
  -1  -3  -3  372.07   19.04
   1  -3   3  373.13   17.87
   1  -3   3  378.76   19.01
  -1  -3  -3  377.26   17.91
  -1  -3  -3  389.78   17.38
  -1   3  -3  424.75   19.02
   1   3   3  368.15   17.62
  -1   3  -3  388.45   17.89
   1   3   3  377.22   17.91
  -2  -3  -3   17.29    1.07
   2  -3   3   16.95    0.95
   2  -3   3   17.98    1.08
  -2  -3  -3   16.60    1.02
  -2  -3  -3   18.11    0.94
   2   3   3   16.69    1.03
   2   3   3   14.93    0.97
  -2   3  -3   15.45    1.03
  -2   3  -3   15.79    0.94
   2   3   3   16.66    1.11
   3  -3   3   43.33    2.53
  -3  -3  -3   40.65    2.37
   3  -3   3   42.80    2.32
  -3  -3  -3   43.03    2.22
  -3  -3  -3   42.01    2.51
   3  -3   3   43.95    2.15
   3   3   3   49.81    2.60
  -3   3  -3   49.93    2.54
   3   3   3   48.31    2.42
   3   3   3   49.01    2.36
  -3   3  -3   49.82    2.31
  -4  -3  -3   67.14    3.53
  -4  -3  -3   59.38    3.30
   4  -3   3   63.37    3.54
   4  -3   3   63.27    3.23
  -4  -3  -3   63.14    3.06
  -4   3  -3   66.32    3.20
   4   3   3   68.59    3.57
   4   3   3   62.37    3.32
   4   3   3   65.08    3.25
  -4   3  -3   64.16    3.51
   5  -3   3    7.95    0.78
  -5  -3  -3    6.29    0.84
  -5  -3  -3    7.11    0.56
   5  -3   3    6.84    0.84
  -5  -3  -3    6.67    0.72
   5   3   3    8.86    0.81
  -5   3  -3    7.91    0.93
   5   3   3    7.79    0.88
  -5   3  -3    6.44    0.68
   5   3   3    7.65    0.96
  -6  -3  -3    1.90    0.52
  -6  -3  -3    2.01    0.44
   6  -3   3    2.66    0.59
   6  -3   3    1.83    0.63
   6   3   3    1.84    0.70
   6   3   3    1.21    0.48
  -6   3  -3    2.90    0.68
   6   3   3    2.14    0.66
  -6   3  -3    1.87    0.45
   6   3   3    1.69    0.61
   7  -4  -3   14.13    1.52
   7  -4  -3   15.50    1.02
  -7  -4   3   15.01    1.24
   7  -4  -3   14.24    0.98
   7   4  -3   16.84    1.53
   7   4  -3   13.73    1.54
   7   4  -3   16.27    1.24
   6  -4  -3   19.48    1.53
   6  -4  -3   19.32    1.19
   6  -4  -3   19.39    1.11
  -6  -4   3   19.84    1.31
   6  -4  -3   20.19    1.12
   6   4  -3   21.49    1.37
   6   4  -3   20.13    1.55
   6   4  -3   22.56    1.57
   5  -4  -3    2.77    0.29
   5  -4  -3    2.64    0.50
  -5  -4   3    2.42    0.43
   5  -4  -3    2.27    0.39
  -5  -4   3    2.41    0.37
   5   4  -3    2.35    0.45
   5   4  -3    1.31    0.42
   5   4  -3    1.75    0.49
  -4  -4   3   84.87    4.19
   4  -4  -3   82.22    3.94
  -4  -4   3   80.89    3.98
   4  -4  -3   81.51    3.97
   4  -4  -3   82.66    4.41
   4   4  -3   85.51    4.40
   4   4  -3   85.26    4.19
   4   4  -3   82.66    4.17
   3  -4  -3   56.58    2.71
  -3  -4   3   56.02    2.87
   3  -4  -3   58.00    2.69
  -3  -4   3   54.81    2.74
   3  -4  -3   57.47    2.74
   3   4  -3   52.96    2.86
   3   4  -3   55.63    2.98
   3   4  -3   57.20    2.88
   2  -4  -3    3.11    0.30
  -2  -4   3    2.69    0.33
   2  -4  -3    3.26    0.38
  -2  -4   3    2.24    0.33
   2  -4  -3    2.84    0.35
  -2   4   3    2.34    0.30
  -2   4   3    2.02    0.27
   2   4  -3    1.91    0.35
   2   4  -3    2.30    0.34
   1  -4  -3  200.38    9.28
  -1  -4   3  195.75    9.54
   1  -4  -3  196.81    9.37
   1   4  -3  198.91    9.54
  -1   4   3  211.75    9.37
   1   4  -3  204.89    9.54
  -1   4   3  196.23    9.49
   0  -4   3  188.49    8.52
   0  -4  -3  183.77    8.52
   0  -4  -3  179.82    8.30
   0  -4  -3  179.66    8.40
   0   4   3  167.79    8.51
   0   4  -3  200.69    9.01
   0   4  -3  170.86    8.50
   0   4   3  162.04    8.38
  -1  -4  -3    9.55    0.65
  -1  -4  -3    9.99    0.71
  -1  -4  -3    9.96    0.71
  -1  -4  -3    9.57    0.68
   1  -4   3    9.31    0.62
   1   4   3    8.72    0.66
  -1   4  -3    9.64    0.64
  -1   4  -3    9.44    0.65
   1   4   3    9.44    0.71
  -2  -4  -3   73.75    3.37
   2  -4   3   72.44    3.68
  -2  -4  -3   72.50    3.46
   2  -4   3   72.41    3.43
  -2  -4  -3   72.10    3.52
  -2  -4  -3   73.00    3.71
  -2   4  -3   68.40    3.66
   2   4   3   65.36    3.43
   2   4   3   67.77    3.71
  -2   4  -3   64.22    3.42
   2   4   3   69.04    3.52
  -3  -4  -3   60.31    3.11
   3  -4   3   58.60    2.84
  -3  -4  -3   58.69    2.95
  -3  -4  -3   60.65    2.78
   3  -4   3   60.78    3.11
   3   4   3   52.73    3.09
   3   4   3   54.00    2.87
  -3   4  -3   53.11    3.06
   3   4   3   56.76    2.96
  -3   4  -3   52.81    2.81
  -4  -4  -3    5.37    0.68
  -4  -4  -3    5.32    0.68
   4  -4   3    5.37    0.69
  -4  -4  -3    4.74    0.56
   4  -4   3    5.15    0.59
   4   4   3    3.72    0.59
   4   4   3    4.81    0.59
  -4   4  -3    3.94    0.58
  -4   4  -3    4.18    0.49
   4   4   3    4.45    0.61
  -5  -4  -3   45.08    2.62
   5  -4   3   44.40    2.66
  -5  -4  -3   44.30    2.43
  -5  -4  -3   46.73    2.18
   5  -4   3   45.89    2.34
   5   4   3   41.94    2.63
  -5   4  -3   35.96    2.23
  -5   4  -3   42.05    2.61
   5   4   3   43.54    2.48
   5   4   3   45.04    2.43
   6  -4   3   12.46    1.49
  -6  -4  -3   11.12    1.38
  -6  -4  -3   11.13    1.09
   6  -4   3   12.67    1.15
   6   4   3   13.68    1.26
   6   4   3   12.67    1.50
   6   4   3   10.62    1.31
  -6   4  -3   10.66    1.45
   6   4   3   13.08    1.33
  -6   4  -3   13.10    0.97
  -7  -5   3    0.20    0.60
   7  -5  -3    0.08    0.64
   7   5  -3    0.09    0.63
   7   5  -3    0.08    0.57
   7   5  -3   -0.08    0.76
   6  -5  -3   19.41    1.08
   6  -5  -3   19.54    1.23
   6  -5  -3   19.44    1.54
  -6  -5   3   20.18    1.24
   6   5  -3   18.05    1.41
   6   5  -3   18.42    1.53
   6   5  -3   18.04    1.55
   5  -5  -3   31.52    1.72
   5  -5  -3   31.05    1.62
  -5  -5   3   30.61    1.70
   5  -5  -3   31.24    1.97
  -5  -5   3   31.85    1.88
   5   5  -3   30.68    1.92
   5   5  -3   32.21    1.89
   5   5  -3   32.26    1.97
   4  -5  -3    7.85    0.62
   4  -5  -3    8.19    0.80
  -4  -5   3    8.02    0.69
   4  -5  -3    8.89    0.70
  -4  -5   3    7.98    0.86
   4   5  -3    7.83    0.82
   4   5  -3    8.22    0.80
   4   5  -3    7.93    0.82
  -3  -5   3  109.33    5.17
   3  -5  -3  108.77    4.97
   3  -5  -3  107.00    4.97
  -3  -5   3  102.89    5.00
   3   5  -3   97.69    5.14
   3   5  -3  106.53    5.16
   3   5  -3  100.10    5.37
  -2  -5   3   97.00    4.66
   2  -5  -3   95.92    4.52
   2  -5  -3   93.60    4.54
   2  -5  -3   98.54    4.53
  -2  -5   3   97.15    4.56
  -2   5   3   93.24    4.53
   2   5  -3   89.60    4.65
   2   5  -3   94.06    4.67
  -2   5   3   95.57    4.53
   1  -5  -3   32.53    1.65
  -1  -5   3   32.86    1.67
  -1  -5   3   31.88    1.65
   1  -5  -3   32.19    1.64
  -1   5   3   30.43    1.62
   1   5  -3   28.51    1.65
   1   5  -3   30.01    1.67
   0  -5   3   78.63    3.99
   0  -5  -3   80.20    3.92
   0  -5  -3   79.72    3.97
   0  -5  -3   81.55    4.24
   0  -5  -3   79.91    4.00
   0   5  -3   85.86    4.00
   0   5   3   78.38    3.96
   0   5  -3   81.89    3.99
   0   5  -3   89.26    4.16
   0   5   3   83.41    4.01
   1  -5   3  186.69    8.83
  -1  -5  -3  188.97    8.77
  -1  -5  -3  179.08    8.63
  -1  -5  -3  189.05    9.42
  -1  -5  -3  184.33    8.89
   1   5   3  178.09    8.75
  -1   5  -3  194.98    8.84
  -1   5  -3  189.70    9.36
   1   5   3  182.22    8.90
  -2  -5  -3   22.18    1.38
   2  -5   3   23.44    1.48
  -2  -5  -3   24.43    1.44
  -2  -5  -3   23.77    1.48
   2  -5   3   22.99    1.35
  -2  -5  -3   23.15    1.50
  -2   5  -3   29.40    1.49
  -2   5  -3   29.37    1.39
   2   5   3   27.46    1.44
   2   5   3   27.55    1.60
   2   5   3   27.79    1.53
  -3  -5  -3    8.74    0.73
   3  -5   3    8.55    0.84
  -3  -5  -3    7.74    0.80
  -3  -5  -3    7.66    0.80
   3  -5   3    7.46    0.65
  -3   5  -3    9.51    0.81
   3   5   3   10.31    0.78
   3   5   3   12.35    1.01
   3   5   3   10.19    0.89
  -3   5  -3    9.82    0.64
   4  -5   3   33.06    2.07
  -4  -5  -3   31.16    2.03
  -4  -5  -3   33.45    1.78
  -4  -5  -3   30.11    1.94
  -4   5  -3   36.30    2.06
   4   5   3   32.80    2.01
   4   5   3   35.04    2.11
  -4   5  -3   33.72    1.74
   4   5   3   34.33    1.92
   5  -5   3   18.72    1.22
  -5  -5  -3   20.35    1.54
  -5  -5  -3   20.02    1.21
   5  -5   3   20.28    1.56
  -5  -5  -3   17.52    1.36
  -5   5  -3   15.77    1.10
   5   5   3   18.93    1.51
   5   5   3   21.08    1.45
   5   5   3   16.86    1.48
   5   5   3   19.84    1.54
  -5   5  -3   19.87    1.51
  -6  -5  -3    6.40    0.98
   6  -5   3    7.42    1.11
   6  -5   3    7.73    0.99
  -6  -5  -3    8.15    0.83
  -6  -5  -3    7.48    0.90
   6   5   3    8.42    1.03
   6   5   3    7.60    1.01
   6   5   3   10.36    1.35
   6   5   3    8.40    1.10
  -6   5  -3    9.10    0.79
   7  -6  -3   20.40    1.35
   7  -6  -3   19.79    1.91
  -7  -6   3   19.10    1.61
   7   6  -3   19.29    1.80
   7   6  -3   18.84    1.90
   7   6  -3   21.10    1.87
   6  -6  -3    7.90    0.92
  -6  -6   3    9.11    0.93
   6  -6  -3    7.49    0.74
   6  -6  -3    7.21    0.90
   6   6  -3    6.22    0.89
   6   6  -3    6.15    0.92
   6   6  -3    7.69    1.07
  -5  -6   3    0.87    0.38
   5  -6  -3    0.96    0.36
   5  -6  -3    0.90    0.39
   5  -6  -3    0.75    0.45
   5   6  -3    0.97    0.55
   5   6  -3    1.83    0.49
   5   6  -3    1.98    0.56
   4  -6  -3   38.35    2.19
  -4  -6   3   38.49    2.01
   4  -6  -3   38.77    2.00
   4  -6  -3   37.97    1.96
   4   6  -3   36.82    2.16
   4   6  -3   36.59    2.14
   4   6  -3   36.48    2.16
   3  -6  -3   59.50    3.00
  -3  -6   3   60.29    3.02
   3  -6  -3   58.97    2.98
  -3  -6   3   59.88    3.12
   3   6  -3   62.44    3.19
   3   6  -3   63.22    3.16
   3   6  -3   57.85    3.11
   2  -6  -3    1.97    0.25
  -2  -6   3    1.82    0.34
   2  -6  -3    1.70    0.34
   2  -6  -3    1.78    0.34
  -2  -6   3    1.76    0.32
   2   6  -3    2.33    0.35
   2   6  -3    2.45    0.28
  -2   6   3    2.55    0.27
   2   6  -3    1.45    0.37
  -2   6   3    2.45    0.36
  -1  -6   3   72.63    3.53
   1  -6  -3   73.01    3.45
  -1  -6   3   72.60    3.49
   1  -6  -3   74.25    3.49
   1   6  -3   67.73    3.51
  -1   6   3   65.47    3.45
   1   6  -3   69.52    3.53
   0  -6  -3  146.20    6.81
   0  -6  -3  138.79    6.73
   0  -6  -3  137.58    6.65
   0  -6   3  145.76    6.80
   0  -6  -3  145.61    7.20
   0   6  -3  139.83    6.79
   0   6   3  139.49    6.80
   0   6  -3  140.37    6.79
   0   6  -3  144.71    7.09
   0   6   3  136.60    6.73
   1  -6   3    1.57    0.27
  -1  -6  -3    1.96    0.34
  -1  -6  -3    1.68    0.34
  -1  -6  -3    1.54    0.29
  -1  -6  -3    1.67    0.35
   1   6   3    1.14    0.36
  -1   6  -3    1.63    0.30
  -1   6  -3    1.49    0.27
  -1   6  -3    1.44    0.23
   1   6   3    2.06    0.34
   2  -6   3   37.61    1.86
   2  -6   3   38.06    2.00
  -2  -6  -3   37.64    1.97
  -2  -6  -3   38.57    2.05
  -2  -6  -3   37.67    2.02
  -2  -6  -3   37.04    1.91
   2   6   3   33.18    2.00
  -2   6  -3   34.11    1.86
   2   6   3   32.80    1.91
  -2   6  -3   33.24    1.97
   3  -6   3   50.56    2.46
  -3  -6  -3   52.99    2.75
  -3  -6  -3   50.78    2.67
   3  -6   3   51.97    2.74
  -3  -6  -3   52.37    2.51
  -3  -6  -3   50.88    2.60
   3   6   3   47.10    2.68
   3   6   3   46.71    2.85
   3   6   3   43.01    2.54
  -3   6  -3   45.97    2.43
  -3   6  -3   45.76    2.69
   4  -6   3    0.14    0.30
  -4  -6  -3   -0.17    0.37
  -4  -6  -3    0.07    0.37
  -4  -6  -3    0.02    0.41
   4  -6   3    0.17    0.44
   4   6   3    0.13    0.46
  -4   6  -3    0.17    0.42
   4   6   3    0.63    0.40
   4   6   3   -0.08    0.49
  -4   6  -3    0.16    0.23
   5  -6   3   23.20    1.38
  -5  -6  -3   25.41    1.70
   5  -6   3   23.76    1.83
  -5  -6  -3   25.76    1.50
  -5  -6  -3   24.67    1.78
   5   6   3   23.59    1.66
  -5   6  -3   22.23    1.27
   5   6   3   22.90    1.82
   5   6   3   21.77    1.76
   5   6   3   21.44    1.80
   6  -6   3   11.96    1.05
   6  -6   3   11.21    1.07
   6  -6   3   11.36    1.35
  -6  -6  -3   12.81    1.43
   6   6   3   12.59    1.69
   6   6   3   11.69    1.58
   6   6   3   13.42    1.71
  -6  -7   3    8.11    1.05
   6  -7  -3    7.68    0.90
   6  -7  -3    7.75    0.83
   6  -7  -3    7.43    0.94
   6   7  -3    8.43    1.08
   6   7  -3    7.94    1.08
   6   7  -3   10.34    1.26
   5  -7  -3   14.59    1.15
   5  -7  -3   15.60    1.09
   5  -7  -3   16.40    1.31
  -5  -7   3   16.19    1.18
   5   7  -3   13.95    1.35
   5   7  -3   15.34    1.26
   5   7  -3   16.03    1.47
  -4  -7   3    0.86    0.40
   4  -7  -3    0.63    0.36
   4  -7  -3    0.42    0.37
   4  -7  -3    0.80    0.38
   4   7  -3    0.73    0.36
   4   7  -3    0.55    0.41
   4   7  -3    0.70    0.52
   3  -7  -3   56.50    2.78
  -3  -7   3   47.74    2.86
   3  -7  -3   57.92    2.80
  -3  -7   3   57.11    2.82
   3   7  -3   55.09    2.93
   3   7  -3   54.19    2.89
   3   7  -3   53.61    2.89
  -2  -7   3  123.88    5.90
   2  -7  -3  125.60    5.84
  -2  -7   3  122.70    6.00
   2  -7  -3  122.83    5.84
   2  -7  -3  128.58    5.89
   2   7  -3  123.37    6.00
   2   7  -3  117.71    6.18
  -2   7   3  119.41    5.87
  -2   7   3  121.27    5.82
  -2   7   3  119.04    5.83
   2   7  -3  123.86    6.02
   1  -7  -3   16.24    0.99
  -1  -7   3   16.64    1.00
   1  -7  -3   16.62    1.03
  -1  -7   3   16.27    1.01
   1   7  -3   13.31    1.01
  -1   7   3   12.92    0.95
   1   7  -3   13.70    0.95
   0  -7  -3   16.41    1.04
   0  -7  -3   15.95    1.01
   0  -7  -3   16.01    1.01
   0  -7   3   16.42    0.97
   0  -7  -3   17.24    1.02
   0  -7   3   15.86    1.04
   0   7  -3   15.17    0.95
   0   7   3   14.60    1.02
   0   7  -3   15.93    1.03
   0   7   3   15.39    1.00
  -1  -7  -3   60.76    3.16
  -1  -7  -3   63.18    3.35
   1  -7   3   60.81    3.15
  -1  -7  -3   61.94    3.24
  -1  -7  -3   63.25    3.21
   1   7   3   63.77    3.21
  -1   7  -3   66.87    3.25
   1   7   3   69.29    3.28
  -1   7  -3   61.05    3.14
  -2  -7  -3   33.80    1.94
  -2  -7  -3   34.56    1.89
  -2  -7  -3   32.48    1.94
  -2  -7  -3   30.21    1.82
   2  -7   3   32.76    1.76
   2   7   3   34.15    1.86
   2   7   3   34.85    1.97
  -2   7  -3   33.79    1.75
  -2   7  -3   33.80    1.86
  -2   7  -3   34.48    1.77
   3  -7   3    8.41    0.85
  -3  -7  -3    8.43    0.83
   3  -7   3    7.71    0.64
  -3  -7  -3    7.67    0.81
  -3  -7  -3    8.39    0.85
  -3  -7  -3    9.40    0.94
   3   7   3    6.42    0.84
  -3   7  -3    7.22    0.57
  -3   7  -3    6.86    0.79
  -3   7  -3    7.23    0.59
   3   7   3    6.79    0.78
   4  -7   3   23.13    1.30
  -4  -7  -3   21.90    1.63
   4  -7   3   23.41    1.64
  -4  -7  -3   24.03    1.50
  -4  -7  -3   22.95    1.67
   4   7   3   22.96    1.59
   4   7   3   24.67    1.70
   4   7   3   23.19    1.66
   4   7   3   24.45    1.79
  -5  -7  -3   18.45    1.37
  -5  -7  -3   17.01    1.61
   5  -7   3   18.01    1.65
   5  -7   3   17.78    1.10
  -5  -7  -3   20.01    1.59
   5   7   3   18.63    1.64
   5   7   3   16.52    1.78
   5   7   3   16.89    1.51
   5   7   3   16.28    1.60
   6  -8  -3    3.47    0.84
  -6  -8   3    4.60    0.78
   6  -8  -3    4.55    0.77
   6  -8  -3    4.75    0.72
   6   8  -3    3.16    0.98
   6   8  -3    3.25    0.88
   6   8  -3    3.46    0.83
   5  -8  -3    4.57    0.72
   5  -8  -3    4.75    0.69
   5  -8  -3    4.56    0.64
  -5  -8   3    4.26    0.70
   5   8  -3    4.93    0.87
   5   8  -3    5.15    0.85
   5   8  -3    5.30    0.70
   4  -8  -3   12.47    1.10
   4  -8  -3   13.69    1.12
  -4  -8   3   14.02    1.15
   4  -8  -3   13.26    1.15
   4   8  -3   15.56    1.11
   4   8  -3   16.48    1.38
   4   8  -3   16.83    1.26
  -3  -8   3   29.86    1.69
   3  -8  -3   29.12    1.64
   3  -8  -3   28.48    1.64
   3  -8  -3   29.16    1.66
   3   8  -3   24.12    1.63
   3   8  -3   26.77    1.77
   3   8  -3   25.32    1.55
  -2  -8   3    1.23    0.39
  -2  -8   3    1.19    0.33
   2  -8  -3    1.00    0.34
   2  -8  -3    1.06    0.28
   2  -8  -3    0.75    0.38
  -2   8   3    1.20    0.36
   2   8  -3    1.13    0.47
   2   8  -3    0.89    0.31
  -2   8   3    1.51    0.25
  -2   8   3    1.37    0.28
  -1  -8   3    7.11    0.62
   1  -8  -3    6.08    0.65
  -1  -8   3    7.59    0.71
   1  -8  -3    6.89    0.75
  -1   8   3    6.11    0.68
   1   8  -3    7.58    0.64
  -1   8   3    6.11    0.58
   1   8  -3    6.73    0.80
   0  -8  -3   24.11    1.38
   0  -8  -3   24.16    1.40
   0  -8  -3   21.25    1.37
   0  -8   3   21.76    1.33
   0  -8  -3   23.61    1.43
   0  -8   3   23.81    1.41
   0   8   3   22.68    1.41
   0   8  -3   24.42    1.34
   0   8  -3   22.63    1.38
   0   8   3   24.72    1.36
   0   8   3   24.63    1.39
   1  -8   3    0.24    0.26
  -1  -8  -3   -0.05    0.27
  -1  -8  -3   -0.20    0.35
  -1  -8  -3    0.52    0.29
   1  -8   3   -0.08    0.25
  -1   8  -3    0.10    0.24
   1   8   3   -0.07    0.24
  -1   8  -3    0.17    0.26
   1   8   3    0.23    0.25
   1   8   3    0.23    0.42
  -2  -8  -3   26.51    1.66
  -2  -8  -3   24.24    1.58
   2  -8   3   24.72    1.42
  -2  -8  -3   23.03    1.55
   2  -8   3   24.45    1.58
  -2  -8  -3   24.58    1.55
  -2   8  -3   27.70    1.45
   2   8   3   25.47    1.70
  -2   8  -3   28.70    1.43
   2   8   3   27.60    1.54
   2   8   3   26.88    1.56
   3  -8   3   15.18    0.95
  -3  -8  -3   16.36    1.21
   3  -8   3   16.69    1.17
  -3  -8  -3   15.75    1.32
  -3  -8  -3   15.92    1.22
  -3  -8  -3   15.26    1.20
   3   8   3   15.74    1.15
   3   8   3   16.10    1.19
  -3   8  -3   14.11    0.90
  -3   8  -3   14.43    0.89
   3   8   3   14.11    1.41
   4  -8   3    5.52    0.75
  -4  -8  -3    5.64    0.84
  -4  -8  -3    5.22    0.78
  -4  -8  -3    5.96    0.82
  -4  -8  -3    4.97    0.73
   4   8   3    6.50    1.01
   4   8   3    6.75    0.91
   4   8   3    6.26    0.85
   4   8   3    5.81    0.76
  -5  -8  -3    0.15    0.73
   5  -8   3    0.79    0.50
   5  -8   3    0.03    0.70
  -5  -8  -3    0.13    0.78
  -5  -8  -3    0.69    0.64
   5   8   3    1.20    0.96
   5   8   3    0.70    0.77
   5   8   3    1.48    0.72
   5   8   3    2.51    0.89
   5  -9  -3   10.46    1.19
   5  -9  -3    9.27    1.21
   5  -9  -3    9.09    1.13
  -5  -9   3   11.04    1.23
   5   9  -3    8.75    1.18
   5   9  -3   11.10    1.39
   5   9  -3    7.83    1.14
   4  -9  -3    1.19    0.48
   4  -9  -3    0.68    0.51
   4  -9  -3    0.85    0.49
  -4  -9   3    0.73    0.53
   4   9  -3    2.21    0.80
   4   9  -3    1.43    0.47
   4   9  -3    1.13    0.53
   3  -9  -3   17.21    1.28
   3  -9  -3   15.80    1.25
   3  -9  -3   17.16    1.20
  -3  -9   3   16.50    1.30
   3   9  -3   17.40    1.07
   3   9  -3   19.55    1.49
   3   9  -3   16.86    1.22
  -2  -9   3   30.45    1.90
  -2  -9   3   34.53    1.88
   2  -9  -3   33.56    1.72
   2  -9  -3   29.23    1.85
   2  -9  -3   34.01    1.93
  -2   9   3   33.52    1.71
   2   9  -3   32.70    1.85
  -2   9   3   32.73    1.68
   2   9  -3   32.20    2.00
   1  -9  -3   15.46    1.21
   1  -9  -3   13.09    1.08
   1  -9  -3   16.10    1.07
  -1  -9   3   14.38    1.12
  -1  -9   3   16.25    1.08
   1   9  -3   18.90    1.12
  -1   9   3   17.99    1.18
   1   9  -3   18.05    1.26
  -1   9   3   17.65    1.04
   0  -9  -3    9.45    0.72
   0  -9  -3    9.48    0.85
   0  -9   3    8.36    0.81
   0  -9   3    8.48    0.75
   0  -9  -3    6.74    0.75
   0  -9  -3    7.69    0.80
   0   9   3    9.11    0.89
   0   9   3    9.91    0.78
   0   9   3    7.49    0.71
   0   9  -3    9.09    0.88
   0   9  -3    9.14    0.72
  -1  -9  -3   51.62    2.69
  -1  -9  -3   47.24    2.62
  -1  -9  -3   49.99    2.68
   1  -9   3   50.33    2.68
   1  -9   3   49.91    2.58
  -1  -9  -3   50.00    2.71
   1   9   3   50.53    2.74
  -1   9  -3   50.22    2.57
   1   9   3   48.50    2.63
   1   9   3   50.34    2.65
  -2  -9  -3   21.25    1.44
   2  -9   3   18.62    1.13
   2  -9   3   18.48    1.33
  -2  -9  -3   19.55    1.26
  -2  -9  -3   18.43    1.29
  -2  -9  -3   16.54    1.29
   2   9   3   18.56    1.48
  -2   9  -3   17.10    1.13
  -2   9  -3   18.43    1.11
   2   9   3   16.92    1.21
   2   9   3   17.30    1.20
  -3  -9  -3    2.26    0.69
  -3  -9  -3    1.99    0.57
   3  -9   3    1.56    0.56
  -3  -9  -3    1.81    0.55
   3  -9   3    2.09    0.38
  -3  -9  -3    1.97    0.53
   3   9   3    1.37    0.74
   3   9   3    0.56    0.45
   3   9   3    1.32    0.45
   4  -9   3   27.55    1.97
  -4  -9  -3   26.58    1.96
  -4  -9  -3   27.88    2.13
  -4  -9  -3   26.83    1.94
   4  -9   3   29.06    1.92
  -4  -9  -3   28.47    1.90
   4   9   3   28.56    1.92
   4   9   3   27.75    1.95
   4   9   3   28.47    2.26
   4 -10  -3   21.85    1.58
   4 -10  -3   21.75    1.66
   4 -10  -3   23.10    1.67
  -4 -10   3   21.80    1.72
   4  10  -3   22.50    1.98
   4  10  -3   23.52    1.66
   4  10  -3   24.10    1.52
  -3 -10   3    4.01    0.69
   3 -10  -3    4.44    0.71
   3 -10  -3    3.99    0.68
   3 -10  -3    3.90    0.52
   3  10  -3    3.64    0.58
   3  10  -3    3.89    0.84
   2 -10  -3    3.06    0.63
  -2 -10   3    2.20    0.50
   2 -10  -3    2.49    0.54
   2 -10  -3    2.55    0.40
   2 -10  -3    2.31    0.44
  -2  10   3    3.37    0.43
   2  10  -3    3.37    0.49
   2  10  -3    3.26    0.70
  -2  10   3    2.94    0.38
   1 -10  -3   17.40    1.12
   1 -10  -3   16.07    1.24
  -1 -10   3   17.15    1.27
   1 -10  -3   18.52    1.38
   1  10  -3   18.62    1.20
  -1  10   3   19.77    1.16
   1  10  -3   19.81    1.42
  -1  10   3   18.46    1.31
   0 -10   3    3.22    0.53
   0 -10  -3    3.81    0.59
   0 -10  -3    2.34    0.44
   0 -10  -3    3.83    0.50
   0 -10  -3    3.33    0.58
   0 -10   3    3.34    0.52
   0  10   3    3.62    0.50
   0  10   3    3.66    0.59
   0  10  -3    3.36    0.57
   0  10  -3    3.10    0.46
   0  10   3    3.21    0.48
   1 -10   3    0.46    0.38
   1 -10   3    0.53    0.39
  -1 -10  -3    0.12    0.37
  -1 -10  -3    0.35    0.51
  -1 -10  -3    0.03    0.30
  -1 -10  -3   -0.71    0.34
   1  10   3    0.48    0.56
   1  10   3   -0.09    0.32
  -1  10  -3   -0.01    0.33
   1  10   3    0.31    0.37
  -2 -10  -3    7.42    0.92
   2 -10   3    7.88    0.80
  -2 -10  -3    7.33    0.87
  -2 -10  -3    8.34    0.98
  -2 -10  -3    8.11    0.85
   2 -10   3    9.29    1.01
   2  10   3    7.86    0.98
   2  10   3    5.79    0.68
  -2  10  -3    7.42    0.77
  -2  10  -3    6.93    0.72
   2  10   3    7.53    0.78
  -3 -10  -3    8.50    1.00
   3 -10   3    7.97    1.01
  -3 -10  -3    9.44    1.14
  -3 -10  -3   10.76    1.21
  -3 -10  -3   11.51    1.49
   3  10   3   10.47    1.14
   3  10   3   12.67    1.08
   3  10   3   11.86    1.27
   3 -11  -3    4.17    0.82
   3 -11  -3    4.70    0.83
  -3 -11   3    3.83    0.80
   3 -11  -3    4.30    0.54
   3  11  -3    4.10    0.96
   3  11  -3    3.24    0.58
  -2 -11   3   10.25    1.22
   2 -11  -3   10.49    1.27
   2 -11  -3    9.61    1.12
  -2  11   3   11.85    0.89
   2  11  -3   11.73    1.52
   2  11  -3   11.38    0.98
  -2  11   3   11.17    0.81
   1 -11  -3    3.65    0.62
   1 -11  -3    3.76    0.75
   1 -11  -3    3.77    0.58
  -1 -11   3    3.02    0.54
  -1  11   3    5.34    0.56
   1  11  -3    4.51    0.55
   1  11  -3    4.51    0.81
   0 -11  -3   10.13    1.13
   0 -11  -3   11.06    1.11
   0 -11  -3   10.42    0.99
   0 -11   3   10.73    1.02
   0  11  -3   10.44    0.93
   0  11   3   10.97    0.99
   0  11   3   10.52    0.95
   0  11  -3    9.82    1.13
   0  11   3    9.44    1.12
  -1 -11  -3    7.68    0.94
   1 -11   3    7.35    0.98
  -1 -11  -3    7.49    0.97
  -1 -11  -3    8.47    0.72
  -1 -11  -3    8.02    0.93
   1  11   3    9.62    1.28
   1  11   3    8.65    0.87
  -1  11  -3    8.22    0.87
   1  11   3    9.97    0.96
  -2 -11  -3    7.61    0.89
  -2 -11  -3    7.91    0.98
   2 -11   3    9.42    1.18
  -2 -11  -3    8.57    0.93
  -2 -11  -3    9.21    1.09
   2  11   3    8.85    0.94
  -2  11  -3    8.79    0.87
   2  11   3    8.46    1.00
  -2  11  -3    8.66    0.84
   2  11   3    7.60    1.13
   2 -12  -3    1.65    0.82
  -2 -12   3    0.87    0.73
   2 -12  -3    1.11    0.66
   2  12  -3    2.06    0.52
   2  12  -3    1.42    0.91
  -2  12   3    1.63    0.43
   1 -12  -3    7.17    0.85
  -1 -12   3    9.02    1.13
   1 -12  -3    8.39    1.03
   1 -12  -3    7.54    0.88
   1  12  -3    9.68    0.96
  -1  12   3    9.68    0.99
   1  12  -3    8.75    1.07
  -1  12   3    8.44    1.08
   0 -12  -3    6.86    0.92
   0 -12  -3    6.93    0.81
   0 -12  -3    6.38    0.94
   0 -12   3    7.92    1.04
   0  12   3    8.08    1.05
   0  12  -3    9.84    0.99
   0  12  -3    7.65    0.94
   0  12   3    9.68    1.04
   0  12   3    8.72    0.99
  -1 -12  -3    0.51    0.72
   1 -12   3    0.87    0.58
  -1 -12  -3   -0.37    0.54
  -1 -12  -3   -0.90    0.54
   1  12   3    0.21    0.80
   1  12   3    0.51    0.50
  -1  12  -3    0.44    0.55
  -1  12  -3    0.12    0.50
   8   0  -4    0.76    0.73
   8   0  -4   -0.41    0.58
   8   0  -4    1.07    0.65
  -7   0   4    2.26    0.43
   7   0  -4    1.65    0.56
   7   0  -4    2.13    0.46
   7   0  -4    2.09    0.47
  -6   0   4   40.10    2.06
   6   0  -4   40.47    2.19
   6   0  -4   39.26    2.14
   6   0  -4   39.35    2.38
   5   0  -4    4.35    0.50
  -5   0   4    4.84    0.56
   5   0  -4    4.66    0.63
   5   0  -4    4.64    0.61
  -5   0   4    4.19    0.52
   4   0  -4   63.53    3.22
  -4   0   4   66.39    3.23
   4   0  -4   65.16    3.22
  -4   0   4   63.91    3.14
   3   0  -4  207.17    9.88
  -3   0   4  211.44   10.15
   3   0  -4  229.13   10.17
  -3   0   4  207.96    9.88
   2   0  -4  250.49   11.69
   2   0  -4  253.14   12.02
  -2   0   4  259.09   12.02
   1   0  -4    3.93    0.42
  -1   0   4    3.85    0.42
  -1   0   4    3.74    0.45
   1   0  -4    3.50    0.42
   0   0  -4   66.75    3.31
   0   0   4   70.02    3.19
   0   0  -4   62.52    3.18
   0   0   4   69.09    3.31
  -1   0  -4   33.42    1.79
  -1   0  -4   34.43    1.68
   1   0   4   32.91    1.67
   1   0   4   34.93    1.79
  -2   0  -4    3.97    0.38
   2   0   4    4.35    0.47
   2   0   4    3.83    0.37
  -2   0  -4    4.38    0.47
  -2   0  -4    4.52    0.49
  -3   0  -4  142.77    6.95
  -3   0  -4  145.12    7.43
   3   0   4  145.54    7.44
   3   0   4  141.78    6.96
  -4   0  -4   32.84    1.93
  -4   0  -4   30.52    1.76
   4   0   4   31.56    1.79
   4   0   4   32.55    2.01
   5   0   4   20.77    1.34
  -5   0  -4   21.99    1.46
   5   0   4   23.24    1.62
   5   0   4   20.66    1.43
  -5   0  -4   20.65    1.34
   6   0   4    7.34    0.91
  -6   0  -4    6.57    0.78
   6   0   4    5.41    0.80
  -6   0  -4    5.93    0.71
   6   0   4    5.96    0.67
  -7  -1   4   16.95    1.14
   7  -1  -4   16.72    1.37
   7  -1  -4   15.36    1.20
   7  -1  -4   16.11    1.25
   7   1  -4   17.70    1.39
   7   1  -4   17.36    1.39
  -7   1   4   18.30    1.11
   7   1  -4   17.88    1.23
  -6  -1   4    3.49    0.47
   6  -1  -4    2.63    0.44
   6  -1  -4    2.43    0.47
   6  -1  -4    2.83    0.48
   6   1  -4    2.77    0.53
   6   1  -4    3.18    0.52
   6   1  -4    3.07    0.44
  -6   1   4    3.40    0.44
   5  -1  -4  110.80    5.39
   5  -1  -4  111.80    5.40
  -5  -1   4  113.00    5.46
  -5  -1   4  111.72    5.28
   5  -1  -4  109.43    5.84
   5   1  -4  110.44    5.85
  -5   1   4  113.14    5.24
   5   1  -4  111.90    5.44
  -5   1   4  110.25    5.39
   5   1  -4  108.67    5.44
  -4  -1   4   58.36    2.92
   4  -1  -4   55.76    2.81
  -4  -1   4   55.76    2.82
   4  -1  -4   55.82    2.85
   4  -1  -4   58.63    2.87
  -4   1   4   56.91    2.81
   4   1  -4   59.80    2.93
  -4   1   4   57.38    2.87
   4   1  -4   59.53    2.91
   3  -1  -4    6.49    0.52
   3  -1  -4    5.87    0.54
  -3  -1   4    5.39    0.56
  -3  -1   4    5.88    0.37
  -3  -1   4    6.38    0.52
   3   1  -4    5.35    0.53
   3   1  -4    5.78    0.51
  -3   1   4    4.97    0.51
  -3   1   4    5.77    0.50
   2  -1  -4  445.76   20.23
  -2  -1   4  430.26   20.24
   2  -1  -4  424.34   19.68
  -2  -1   4  442.32   19.68
  -2   1   4  434.95   20.22
  -2   1   4  439.02   19.84
  -2   1   4  406.92   19.67
   2   1  -4  417.56   20.24
  -1  -1   4  115.67    5.78
   1  -1  -4  109.18    5.94
   1  -1  -4  112.89    5.79
  -1  -1   4  116.88    5.95
  -1   1   4  134.53    5.97
  -1   1   4  143.00    5.82
   1   1  -4  138.24    5.97
   0  -1  -4    0.62    0.22
   0  -1  -4    0.90    0.26
   0  -1   4    0.65    0.24
   0  -1   4    0.54    0.19
   0   1   4    0.59    0.24
   0   1  -4    0.57    0.22
   0   1   4    0.57    0.20
   1  -1   4  133.41    6.29
  -1  -1  -4  128.85    6.29
  -1  -1  -4  131.78    6.06
  -1  -1  -4  145.63    6.72
   1  -1   4  138.18    6.06
   1   1   4  109.34    6.26
  -1   1  -4  150.47    6.71
  -1   1  -4  115.68    6.27
   1   1   4  122.94    6.05
  -2  -1  -4  149.49    7.20
   2  -1   4  143.61    7.97
   2  -1   4  146.09    7.18
  -2  -1  -4  143.48    7.97
  -2  -1  -4  142.28    7.48
   2  -1   4  141.84    7.47
  -2   1  -4  164.94    7.98
   2   1   4  169.73    7.52
   2   1   4  164.68    8.00
  -2   1  -4  168.71    7.50
   2   1   4  180.77    7.21
   3  -1   4   20.09    1.18
  -3  -1  -4   20.10    1.04
   3  -1   4   19.30    1.34
  -3  -1  -4   20.43    1.20
  -3  -1  -4   20.41    1.29
   3  -1   4   20.21    0.99
  -3   1  -4   19.34    1.16
   3   1   4   19.60    1.33
  -3   1  -4   18.76    1.26
   3   1   4   20.24    1.19
   3   1   4   19.84    1.20
  -4  -1  -4    1.76    0.33
   4  -1   4    1.22    0.29
  -4  -1  -4    1.57    0.34
   4  -1   4    1.58    0.46
   4   1   4    1.08    0.40
   4   1   4    0.37    0.35
  -4   1  -4    0.82    0.27
   4   1   4    0.75    0.29
  -4   1  -4    0.82    0.30
  -5  -1  -4   17.33    1.28
   5  -1   4   15.52    1.15
  -5  -1  -4   18.63    1.18
   5  -1   4   16.52    1.40
   5   1   4   17.13    1.21
   5   1   4   18.34    1.41
  -5   1  -4   16.96    1.29
  -5   1  -4   19.42    1.16
   5   1   4   18.19    1.30
  -6  -1  -4    3.85    0.60
   6  -1   4    2.92    0.60
   6  -1   4    2.01    0.61
   6  -1   4    3.74    0.73
  -6  -1  -4    2.52    0.48
  -6   1  -4    2.88    0.51
  -6   1  -4    3.71    0.62
   6   1   4    2.31    0.54
   6   1   4    3.31    0.55
   6   1   4    3.78    0.75
   7  -2  -4    8.56    1.08
   7  -2  -4    8.56    0.91
   7  -2  -4    8.33    0.93
  -7  -2   4    9.04    0.94
   7   2  -4   10.15    1.12
  -7   2   4    9.29    0.81
   7   2  -4    8.57    0.86
   7   2  -4    8.78    0.99
  -6  -2   4   55.57    2.84
   6  -2  -4   58.65    3.22
   6  -2  -4   58.57    2.86
   6  -2  -4   55.99    2.86
  -6   2   4   55.30    2.77
   6   2  -4   54.37    2.94
   6   2  -4   54.58    3.19
   6   2  -4   54.87    3.00
   5  -2  -4    7.70    0.62
   5  -2  -4    7.25    0.64
   5  -2  -4    8.03    0.69
   5  -2  -4    7.06    0.77
  -5  -2   4    8.02    0.70
  -5  -2   4    7.47    0.84
   5   2  -4    6.92    0.76
   5   2  -4    6.11    0.66
  -5   2   4    6.86    0.63
   5   2  -4    7.02    0.79
   4  -2  -4   10.88    0.75
  -4  -2   4   11.74    0.89
   4  -2  -4   10.96    0.78
   4  -2  -4   11.70    0.71
  -4  -2   4   11.19    0.62
  -4  -2   4   11.55    0.78
  -4   2   4   11.09    0.75
   4   2  -4   10.28    0.76
   4   2  -4   10.74    0.84
  -3  -2   4   96.71    4.76
  -3  -2   4   93.48    4.61
  -3  -2   4   93.12    4.57
   3  -2  -4   94.25    4.62
  -3   2   4  100.53    4.61
   3   2  -4   98.91    4.76
   3   2  -4   99.32    4.77
  -3   2   4  103.50    4.55
   2  -2  -4  157.27    7.53
   2  -2  -4  164.11    7.72
  -2  -2   4  154.32    7.52
  -2  -2   4  158.97    7.75
   2   2  -4  156.81    7.75
  -2   2   4  172.95    7.55
  -2   2   4  166.09    7.53
  -2   2   4  166.70    7.71
   1  -2  -4   15.90    1.00
   1  -2  -4   16.43    0.98
  -1   2   4   18.20    1.02
  -1   2   4   18.63    1.00
   1   2  -4   18.25    1.02
  -1   2   4   17.97    0.97
   0  -2   4   91.36    4.16
   0  -2  -4   93.81    4.32
   0  -2  -4   88.92    4.17
   0  -2   4   90.40    4.30
   0   2   4   83.60    4.16
   0   2   4   86.62    4.22
   0   2  -4   85.23    4.30
   0   2   4   87.10    4.31
   1  -2   4  251.88   11.37
  -1  -2  -4  231.06   11.76
  -1  -2  -4  247.17   12.52
   1  -2   4  242.65   11.75
  -1  -2  -4  244.84   11.39
   1   2   4  249.28   11.77
  -1   2  -4  255.70   12.50
   1   2   4  258.10   11.39
   1   2   4  245.01   11.57
  -1   2  -4  252.52   11.76
  -2  -2  -4   33.33    1.81
   2  -2   4   34.13    1.78
   2  -2   4   32.71    1.91
  -2  -2  -4   32.81    1.91
  -2  -2  -4   33.60    1.68
   2  -2   4   32.26    1.65
  -2   2  -4   34.54    1.90
   2   2   4   32.83    1.80
   2   2   4   34.22    1.93
  -2   2  -4   33.16    1.76
   2   2   4   34.14    1.77
  -3  -2  -4   72.99    3.58
   3  -2   4   74.11    3.29
  -3  -2  -4   72.62    3.34
   3  -2   4   71.60    3.54
  -3  -2  -4   73.07    3.81
   3  -2   4   71.85    3.81
   3   2   4   69.45    3.58
   3   2   4   67.23    3.50
   3   2   4   67.48    3.81
  -3   2  -4   67.80    3.51
  -3   2  -4   67.78    3.78
  -4  -2  -4   76.67    3.59
  -4  -2  -4   76.77    4.14
  -4  -2  -4   78.35    3.89
   4  -2   4   72.97    4.19
   4  -2   4   75.97    3.84
   4   2   4   77.48    3.84
   4   2   4   74.14    4.19
   4   2   4   78.00    3.91
  -4   2  -4   76.79    3.81
  -4   2  -4   76.12    4.14
   5  -2   4    3.57    0.67
  -5  -2  -4    3.83    0.52
  -5  -2  -4    5.74    0.68
   5  -2   4    2.92    0.53
   5   2   4    3.01    0.58
  -5   2  -4    3.57    0.60
   5   2   4    3.78    0.64
  -5   2  -4    3.65    0.49
   5   2   4    3.09    0.49
   6  -2   4    7.45    0.98
  -6  -2  -4    7.65    1.08
   6  -2   4    8.09    0.91
  -6  -2  -4    8.65    0.89
   6   2   4    9.45    1.12
   6   2   4   10.12    1.22
  -6   2  -4    9.72    1.22
   6   2   4   10.97    1.02
  -6   2  -4    9.76    0.92
   7  -3  -4    6.08    0.77
  -7  -3   4    5.55    0.72
   7  -3  -4    5.64    0.85
   7  -3  -4    5.29    0.63
   7   3  -4    5.94    0.66
   7   3  -4    5.31    0.85
   7   3  -4    5.65    0.87
   6  -3  -4    6.38    0.65
  -6  -3   4    6.69    0.82
   6  -3  -4    6.96    0.69
   6  -3  -4    6.42    0.93
   6  -3  -4    7.45    0.76
   6   3  -4    6.84    0.94
   6   3  -4    6.72    0.73
  -6   3   4    6.98    0.70
   6   3  -4    6.39    0.81
   5  -3  -4   34.13    1.87
   5  -3  -4   34.84    1.81
  -5  -3   4   35.31    1.88
   5  -3  -4   34.83    1.82
   5  -3  -4   34.19    2.11
  -5  -3   4   35.71    1.74
  -5  -3   4   36.29    2.04
   5   3  -4   35.00    2.02
   5   3  -4   36.63    2.13
   5   3  -4   34.94    1.95
  -5   3   4   35.14    1.83
  -4  -3   4  108.39    5.32
   4  -3  -4  113.85    5.23
  -4  -3   4  113.69    5.28
   4  -3  -4  114.23    5.34
   4  -3  -4  111.96    5.38
   4  -3  -4  113.64    5.37
  -4  -3   4  113.73    5.52
   4   3  -4  108.63    5.50
   4   3  -4  111.19    5.84
  -4   3   4  115.94    5.37
  -4   3   4  111.45    5.30
   4   3  -4  111.11    5.52
   3  -3  -4   12.59    0.79
   3  -3  -4   12.56    0.73
   3  -3  -4   12.63    0.84
  -3  -3   4   12.53    0.91
  -3  -3   4   13.20    0.77
  -3   3   4   12.40    0.77
   3   3  -4   13.66    0.91
   3   3  -4   14.52    0.89
  -3   3   4   13.69    0.73
  -3   3   4   13.57    0.82
  -2  -3   4   38.81    1.98
   2  -3  -4   38.22    1.87
   2  -3  -4   37.95    1.92
   2   3  -4   38.83    1.98
  -2   3   4   38.48    1.86
  -2   3   4   38.44    1.91
  -2   3   4   33.77    1.89
   1  -3  -4  525.28   24.97
   1  -3  -4  591.42   25.41
  -1  -3   4  512.12   25.41
   1  -3  -4  537.11   24.69
  -1   3   4  543.49   24.69
   1   3  -4  532.07   25.41
  -1   3   4  536.52   24.97
  -1   3   4  545.72   25.40
   0  -3  -4   40.41    2.22
   0  -3  -4   44.24    2.30
   0  -3   4   43.85    2.28
   0   3   4   47.75    2.31
   0   3  -4   45.68    2.29
   0   3   4   45.68    2.22
   0   3   4   48.36    2.26
  -1  -3  -4   26.47    1.41
   1  -3   4   26.58    1.36
  -1  -3  -4   26.22    1.32
  -1  -3  -4   24.80    1.47
   1   3   4   21.55    1.33
   1   3   4   24.31    1.39
  -1   3  -4   24.52    1.44
  -1   3  -4   23.09    1.35
  -2  -3  -4   92.91    4.55
   2  -3   4   90.26    5.02
  -2  -3  -4   92.11    5.04
   2  -3   4   90.90    4.70
   2  -3   4   95.33    4.52
  -2  -3  -4   95.30    4.77
   2   3   4  103.44    4.69
   2   3   4   99.23    4.78
  -2   3  -4  101.62    5.03
  -2   3  -4  103.63    4.72
   2   3   4   99.06    5.07
   3  -3   4    4.04    0.55
  -3  -3  -4    5.23    0.59
   3  -3   4    4.76    0.43
   3  -3   4    4.95    0.53
  -3  -3  -4    4.04    0.56
  -3  -3  -4    4.82    0.51
   3   3   4    6.94    0.67
   3   3   4    7.10    0.72
  -4  -3  -4   10.84    0.76
  -4  -3  -4   11.34    0.92
  -4  -3  -4   12.04    0.96
   4  -3   4   11.51    0.90
   4  -3   4   11.49    1.08
   4   3   4   11.70    0.96
  -4   3  -4   11.27    0.99
   4   3   4   11.26    1.02
   4   3   4   12.15    0.95
  -4   3  -4   10.95    0.81
  -5  -3  -4   24.17    1.63
  -5  -3  -4   21.99    1.50
   5  -3   4   22.76    1.75
  -5  -3  -4   23.29    1.25
   5  -3   4   22.92    1.52
   5   3   4   23.07    1.68
   5   3   4   25.55    1.63
  -5   3  -4   25.20    1.44
  -5   3  -4   25.08    1.73
   5   3   4   25.71    1.59
   6  -3   4    7.62    0.84
  -6  -3  -4    5.56    0.79
   6  -3   4    6.34    0.96
  -6  -3  -4    5.44    0.66
   6   3   4    5.69    0.89
  -6   3  -4    4.60    0.88
   6   3   4    5.96    0.76
   6   3   4    3.58    0.71
  -6   3  -4    5.91    0.66
  -7  -4   4   10.90    1.17
   7  -4  -4   10.39    0.86
   7  -4  -4   10.01    1.30
   7  -4  -4    9.33    0.81
   7   4  -4    7.97    1.03
   7   4  -4   11.02    1.17
   7   4  -4   11.17    1.34
   6  -4  -4   16.61    1.37
  -6  -4   4   16.95    1.17
   6  -4  -4   15.37    1.11
   6  -4  -4   15.30    0.97
   6  -4  -4   15.45    0.95
   6   4  -4   16.60    1.36
   6   4  -4   15.00    1.34
   6   4  -4   16.03    1.19
   5  -4  -4   45.27    2.35
   5  -4  -4   45.80    2.26
   5  -4  -4   44.77    2.24
  -5  -4   4   47.73    2.37
  -5  -4   4   44.45    2.25
   5  -4  -4   44.58    2.63
  -5  -4   4   46.72    2.53
   5   4  -4   44.03    2.46
   5   4  -4   46.02    2.51
  -5   4   4   43.46    2.29
   5   4  -4   45.52    2.62
   4  -4  -4    0.44    0.19
   4  -4  -4    0.43    0.22
  -4  -4   4    0.25    0.37
   4  -4  -4    0.19    0.28
   4  -4  -4    0.21    0.19
  -4  -4   4    0.48    0.25
   4   4  -4    1.02    0.34
   4   4  -4    1.47    0.36
   4   4  -4    1.14    0.40
  -4   4   4    1.30    0.31
   3  -4  -4   38.61    1.99
  -3  -4   4   38.97    2.15
  -3  -4   4   37.60    2.02
   3  -4  -4   39.38    2.01
   3  -4  -4   37.14    2.05
  -3   4   4   43.10    1.99
   3   4  -4   42.68    2.16
   3   4  -4   40.12    2.15
  -3   4   4   40.81    2.05
  -3   4   4   43.74    2.00
  -2  -4   4    4.85    0.49
  -2   4   4    2.91    0.38
   2   4  -4    3.23    0.43
  -2   4   4    3.54    0.41
   2   4  -4    2.52    0.36
   1  -4  -4   11.93    0.81
  -1  -4   4   12.87    0.85
   1  -4  -4   12.00    0.81
   1  -4  -4   12.67    0.83
  -1   4   4   13.79    0.84
  -1   4   4   13.84    0.82
   1   4  -4   13.95    0.85
  -1   4   4   14.41    0.83
   0  -4   4  213.71   10.57
   0  -4  -4  222.40   10.42
   0  -4  -4  228.24   10.30
   0  -4  -4  239.00   10.60
   0   4  -4  220.90   11.20
   0   4   4  213.29   10.58
   0   4   4  218.93   10.42
   0   4  -4  224.55   10.57
  -1  -4  -4  138.51    6.48
   1  -4   4  139.63    6.64
  -1  -4  -4  139.72    6.59
  -1  -4  -4  142.09    7.10
  -1  -4  -4  139.66    6.69
  -1   4  -4  139.53    6.66
   1   4   4  135.54    6.58
  -1   4  -4  133.47    7.04
   1   4   4  137.47    6.70
  -2  -4  -4    4.11    0.50
  -2  -4  -4    3.07    0.45
   2  -4   4    3.65    0.44
   2  -4   4    4.42    0.61
  -2  -4  -4    5.47    0.62
  -2   4  -4    2.98    0.42
   2   4   4    3.52    0.49
  -2   4  -4    3.80    0.44
   2   4   4    3.97    0.46
  -3  -4  -4   38.28    2.02
   3  -4   4   37.21    1.95
  -3  -4  -4   37.94    2.29
   3  -4   4   36.47    2.28
  -3  -4  -4   38.94    2.18
   3  -4   4   35.31    2.07
  -3   4  -4   43.15    2.08
  -3   4  -4   41.43    2.28
   3   4   4   43.32    2.36
   3   4   4   42.44    2.15
   3   4   4   43.12    2.22
   4  -4   4   91.94    4.14
   4  -4   4   90.07    4.83
   4  -4   4   89.25    4.43
  -4  -4  -4   93.75    4.26
  -4  -4  -4   93.82    4.56
  -4  -4  -4   88.98    4.81
   4   4   4   91.19    4.86
  -4   4  -4   81.93    4.76
   4   4   4   86.35    4.45
   4   4   4   87.42    4.55
  -4   4  -4   87.17    4.39
  -5  -4  -4    0.55    0.46
  -5  -4  -4    0.43    0.34
  -5  -4  -4    0.70    0.42
   5  -4   4    0.84    0.46
   5  -4   4    0.40    0.56
   5   4   4    0.56    0.54
   5   4   4    0.75    0.58
   5   4   4    0.05    0.45
  -5   4  -4    0.76    0.35
  -5   4  -4    0.72    0.53
   6  -4   4   26.87    1.83
  -6  -4  -4   26.52    1.80
   6  -4   4   27.64    2.25
  -6  -4  -4   27.66    2.13
   6   4   4   28.51    2.13
   6   4   4   28.13    1.98
  -6   4  -4   29.09    1.69
   6   4   4   26.48    2.02
   6   4   4   27.82    2.07
  -6   4  -4   28.12    2.21
   7  -5  -4   10.07    1.41
   7  -5  -4   11.07    1.06
  -7  -5   4   11.33    1.28
   7   5  -4    9.21    1.23
   7   5  -4   10.73    1.46
   7   5  -4   11.13    1.50
  -6  -5   4    1.75    0.44
   6  -5  -4    1.73    0.48
  -6  -5   4    1.48    0.53
   6  -5  -4    1.42    0.55
   6   5  -4    2.07    0.56
   6   5  -4    1.20    0.55
   6   5  -4    1.42    0.64
   5  -5  -4   30.37    1.59
   5  -5  -4   30.95    1.96
  -5  -5   4   30.68    1.95
  -5  -5   4   30.88    1.68
   5  -5  -4   31.47    1.75
   5   5  -4   32.61    1.96
   5   5  -4   31.88    1.89
   5   5  -4   29.45    1.89
   4  -5  -4   55.91    2.67
   4  -5  -4   55.98    2.76
  -4  -5   4   54.00    2.90
  -4  -5   4   53.63    2.71
   4   5  -4   54.08    2.89
   4   5  -4   53.77    2.98
   4   5  -4   52.86    2.88
   3  -5  -4   43.94    2.25
   3  -5  -4   45.07    2.21
   3  -5  -4   41.38    2.28
  -3  -5   4   44.62    2.39
  -3  -5   4   46.00    2.28
   3   5  -4   46.98    2.41
  -3   5   4   47.51    2.26
  -3   5   4   46.42    2.20
   3   5  -4   42.75    2.40
   2  -5  -4   88.94    4.38
  -2  -5   4   90.88    4.41
  -2  -5   4   89.74    4.51
   2  -5  -4   90.01    4.41
   2  -5  -4   93.23    4.40
   2   5  -4   93.71    4.52
  -2   5   4   93.26    4.39
   2   5  -4   92.49    4.53
   1  -5  -4  123.82    5.79
  -1  -5   4  120.69    5.84
   1  -5  -4  126.13    5.75
   1  -5  -4  119.46    5.70
   1   5  -4  119.53    5.84
   1   5  -4  113.46    5.82
  -1   5   4  117.02    5.79
  -1   5   4  123.22    5.74
   0  -5   4  108.62    5.07
   0  -5  -4   96.23    4.95
   0  -5  -4   98.28    5.38
   0  -5  -4  104.74    5.08
   0  -5  -4  102.16    5.01
   0   5  -4  108.56    5.07
   0   5   4  104.90    5.08
   0   5  -4  108.08    5.32
   0   5   4  106.93    5.02
  -1  -5  -4   34.91    1.94
  -1  -5  -4   37.80    1.89
   1  -5   4   34.22    1.86
  -1  -5  -4   33.17    1.90
  -1  -5  -4   34.84    2.04
   1   5   4   37.25    1.97
   1   5   4   36.08    1.91
  -1   5  -4   37.21    1.89
  -1   5  -4   38.19    1.98
   2  -5   4   27.04    1.64
   2  -5   4   28.69    1.52
  -2  -5  -4   28.44    1.59
  -2  -5  -4   26.11    1.62
  -2  -5  -4   28.27    1.53
  -2  -5  -4   26.37    1.67
   2   5   4   28.39    1.56
   2   5   4   28.29    1.64
  -2   5  -4   28.10    1.63
  -2   5  -4   28.42    1.52
   3  -5   4   16.52    1.07
   3  -5   4   17.10    1.29
  -3  -5  -4   16.78    1.09
  -3  -5  -4   15.83    1.20
  -3  -5  -4   16.80    1.24
   3   5   4   19.73    1.49
   3   5   4   16.81    1.26
  -3   5  -4   16.87    1.04
   3   5   4   18.45    1.17
  -3   5  -4   16.85    1.19
   4  -5   4   35.88    1.71
  -4  -5  -4   35.45    1.85
  -4  -5  -4   32.80    2.04
   4  -5   4   34.77    2.15
  -4  -5  -4   33.89    2.12
   4  -5   4   33.16    1.87
   4   5   4   32.83    2.08
  -4   5  -4   33.00    2.12
  -4   5  -4   34.88    1.83
   4   5   4   33.15    2.17
   4   5   4   33.64    2.00
   5  -5   4   27.51    2.00
  -5  -5  -4   28.27    1.80
  -5  -5  -4   27.51    1.54
  -5  -5  -4   26.16    1.91
   5  -5   4   26.86    1.63
  -5   5  -4   23.41    1.91
   5   5   4   27.47    1.89
   5   5   4   27.03    2.03
  -5   5  -4   25.56    1.52
   5   5   4   26.68    1.82
   7  -6  -4    6.14    1.01
   7  -6  -4    6.62    0.82
  -7  -6   4    6.38    0.92
   7   6  -4    5.96    0.97
   7   6  -4    5.38    0.98
   7   6  -4    5.99    1.07
  -6  -6   4   11.22    1.00
   6  -6  -4   10.72    0.84
   6  -6  -4   10.14    1.29
   6  -6  -4   10.85    1.10
   6   6  -4   13.50    1.38
   6   6  -4   13.46    1.29
   6   6  -4   14.02    1.37
   5  -6  -4    6.04    0.77
   5  -6  -4    5.44    0.62
   5  -6  -4    5.34    0.71
  -5  -6   4    5.84    0.74
   5   6  -4    4.46    0.69
   5   6  -4    4.56    0.66
   5   6  -4    3.84    0.69
  -4  -6   4    2.70    0.47
  -4  -6   4    2.49    0.54
   4  -6  -4    2.87    0.49
   4  -6  -4    2.66    0.42
   4   6  -4    4.90    0.64
   4   6  -4    5.19    0.67
   4   6  -4    4.58    0.55
   3  -6  -4   30.00    1.51
  -3  -6   4   30.49    1.66
   3  -6  -4   32.23    1.64
  -3  -6   4   30.61    1.74
   3  -6  -4   31.68    1.69
   3   6  -4   29.21    1.76
  -3   6   4   29.00    1.49
  -3   6   4   28.42    1.60
   3   6  -4   30.01    1.73
   3   6  -4   29.44    1.72
  -2  -6   4   12.65    0.87
   2  -6  -4   13.20    0.77
   2  -6  -4   12.76    0.86
  -2  -6   4   12.86    0.86
   2  -6  -4   12.89    0.86
   2   6  -4   10.63    0.83
  -2   6   4    9.80    0.79
   2   6  -4    9.65    0.90
   1  -6  -4   10.58    0.78
   1  -6  -4    9.71    0.79
  -1  -6   4   10.70    0.79
   1  -6  -4   10.19    0.81
  -1  -6   4   10.76    0.81
  -1   6   4   13.33    0.80
   1   6  -4   12.99    0.89
  -1   6   4   13.29    0.81
   1   6  -4   11.78    0.79
   0  -6  -4  118.10    5.53
   0  -6   4  115.90    5.56
   0  -6  -4  110.47    5.57
   0  -6  -4  111.47    5.90
   0  -6  -4  114.46    5.46
   0   6  -4  114.18    5.55
   0   6  -4  119.60    5.81
   0   6   4  108.08    5.57
   0   6  -4  115.82    5.57
   0   6   4  116.60    5.52
  -1  -6  -4   19.68    1.21
  -1  -6  -4   19.77    1.24
  -1  -6  -4   19.89    1.19
   1  -6   4   19.46    1.13
  -1  -6  -4   20.46    1.29
  -1   6  -4   18.94    1.14
   1   6   4   20.10    1.20
   1   6   4   19.17    1.27
  -1   6  -4   19.16    1.16
  -2  -6  -4    1.96    0.40
  -2  -6  -4    1.45    0.43
  -2  -6  -4    1.79    0.37
   2  -6   4    1.83    0.32
  -2  -6  -4    1.52    0.37
  -2   6  -4    1.85    0.35
   2   6   4    1.51    0.30
   2   6   4    1.49    0.44
  -2   6  -4    1.57    0.34
   3  -6   4   62.58    3.42
  -3  -6  -4   62.33    3.32
   3  -6   4   62.34    3.14
  -3  -6  -4   66.69    3.15
  -3  -6  -4   62.97    3.46
   3   6   4   61.93    3.22
  -3   6  -4   61.21    3.12
  -3   6  -4   60.87    3.38
   3   6   4   61.02    3.34
   4  -6   4   12.49    0.95
  -4  -6  -4   12.22    1.17
  -4  -6  -4   14.51    1.24
  -4  -6  -4   13.24    1.01
   4  -6   4   12.96    1.24
   4   6   4    9.87    1.26
  -4   6  -4   11.25    1.16
   4   6   4   10.63    1.21
   4   6   4   11.39    1.10
   5  -6   4   -0.54    0.45
   5  -6   4    0.42    0.65
  -5  -6  -4    0.73    0.48
  -5  -6  -4    0.41    0.63
   5   6   4    0.20    0.62
   5   6   4    0.31    0.65
  -5   6  -4    0.28    0.61
   5   6   4    0.80    0.58
   5   6   4   -0.01    0.71
  -5   6  -4    0.62    0.38
   6  -7  -4    0.93    0.61
  -6  -7   4    0.63    0.54
   6  -7  -4    1.28    0.60
   6  -7  -4    0.85    0.45
   6   7  -4    0.21    0.79
   6   7  -4    0.91    0.58
   6   7  -4    0.37    0.69
  -5  -7   4   15.47    1.21
   5  -7  -4   16.46    1.12
   5  -7  -4   17.02    1.38
   5  -7  -4   14.89    1.23
   5   7  -4   16.51    1.41
   5   7  -4   15.82    1.30
   5   7  -4   16.31    1.47
  -4  -7   4   32.99    1.93
   4  -7  -4   34.94    1.90
  -4  -7   4   31.72    2.09
   4  -7  -4   32.15    1.94
   4   7  -4   38.41    2.10
   4   7  -4   40.21    2.07
   4   7  -4   33.27    2.13
   3  -7  -4    6.03    0.73
  -3  -7   4    7.13    0.76
   3  -7  -4    6.64    0.49
  -3  -7   4    7.30    0.77
   3  -7  -4    6.22    0.74
   3   7  -4    6.39    0.75
   3   7  -4    5.94    0.66
   3   7  -4    6.54    0.73
   2  -7  -4   28.29    1.44
   2  -7  -4   28.87    1.56
   2  -7  -4   28.66    1.57
  -2  -7   4   26.03    1.55
  -2  -7   4   30.59    1.58
   2   7  -4   25.36    1.54
  -2   7   4   24.90    1.51
  -2   7   4   25.88    1.45
   2   7  -4   24.11    1.60
   2   7  -4   25.32    1.47
  -1  -7   4   52.75    2.74
   1  -7  -4   51.38    2.72
   1  -7  -4   54.21    2.69
  -1  -7   4   52.76    2.74
   1  -7  -4   53.02    2.70
   1   7  -4   55.17    2.74
  -1   7   4   52.35    2.71
   1   7  -4   54.74    2.74
   1   7  -4   52.75    2.77
  -1   7   4   50.85    2.69
   0  -7  -4   10.70    0.84
   0  -7  -4   11.33    0.84
   0  -7   4   10.58    0.74
   0  -7  -4   11.09    0.87
   0  -7  -4   11.18    0.81
   0   7  -4    9.21    0.82
   0   7   4    9.65    0.86
   0   7   4    9.62    0.76
   0   7  -4    9.75    0.75
   0   7  -4   10.61    0.66
  -1  -7  -4   15.08    1.08
   1  -7   4   16.41    0.97
  -1  -7  -4   15.45    1.04
  -1  -7  -4   16.45    1.10
  -1  -7  -4   16.01    1.03
   1   7   4   15.12    1.11
  -1   7  -4   14.20    0.99
  -1   7  -4   13.85    0.92
  -1   7  -4   13.60    0.95
   1   7   4   13.13    0.99
  -2  -7  -4   36.87    2.08
  -2  -7  -4   39.55    2.23
  -2  -7  -4   39.48    2.14
   2  -7   4   37.22    2.03
  -2  -7  -4   39.11    2.22
  -2   7  -4   38.16    2.14
  -2   7  -4   39.12    2.05
   2   7   4   39.35    2.11
   2   7   4   38.07    2.23
  -3  -7  -4   12.85    1.18
  -3  -7  -4   13.21    1.21
   3  -7   4   14.18    1.17
  -3  -7  -4   12.96    1.10
   3  -7   4   13.46    0.97
  -3  -7  -4   14.10    1.12
   3   7   4   14.65    1.08
   3   7   4   16.14    1.33
  -3   7  -4   14.79    1.12
  -3   7  -4   14.72    0.95
   4  -7   4    2.22    0.65
   4  -7   4    2.54    0.47
  -4  -7  -4    2.18    0.61
  -4  -7  -4    2.57    0.57
  -4  -7  -4    2.71    0.71
  -4   7  -4    2.38    0.62
   4   7   4    2.24    0.73
   4   7   4    2.38    0.64
  -4   7  -4    1.96    0.37
  -5  -7  -4   10.87    1.47
  -5  -7  -4   12.53    1.60
  -5  -7  -4   13.20    1.29
   5  -7   4   13.35    1.09
   5  -7   4   12.92    1.62
   5  -7   4   12.63    0.92
   5  -7   4   12.23    0.93
   5   7   4   15.89    1.80
  -5   7  -4   13.64    0.91
   5   7   4   13.43    1.58
   5   7   4   17.19    1.55
   6  -8  -4   10.88    1.10
   6  -8  -4   11.30    1.13
  -6  -8   4   10.13    1.29
   6  -8  -4   12.60    1.48
   6   8  -4    9.75    1.26
   6   8  -4   10.22    1.26
   6   8  -4    8.77    1.08
   5  -8  -4    3.53    0.59
   5  -8  -4    2.04    0.59
   5  -8  -4    2.49    0.65
  -5  -8   4    2.67    0.64
   5   8  -4    2.70    0.60
   5   8  -4    3.79    0.85
   5   8  -4    3.46    0.75
   4  -8  -4   17.24    1.34
  -4  -8   4   17.12    1.30
   4  -8  -4   17.16    1.25
   4  -8  -4   17.92    1.29
   4   8  -4   18.17    1.36
   4   8  -4   18.35    1.24
   4   8  -4   17.02    1.51
   3  -8  -4   21.53    1.49
  -3  -8   4   22.28    1.50
   3  -8  -4   22.39    1.49
  -3  -8   4   23.12    1.53
   3   8  -4   24.73    1.52
   3   8  -4   27.51    1.69
   3   8  -4   25.11    1.41
   2  -8  -4   10.41    0.76
   2  -8  -4   10.92    0.92
  -2  -8   4    9.54    0.82
  -2  -8   4   10.36    0.91
   2  -8  -4   10.14    0.89
  -2   8   4   10.09    0.71
   2   8  -4   10.61    0.82
   2   8  -4    9.86    0.66
   2   8  -4   11.27    1.02
  -2   8   4   10.57    0.77
  -2   8   4    8.59    0.86
   1  -8  -4    5.15    0.68
   1  -8  -4    5.12    0.61
  -1  -8   4    4.93    0.58
  -1  -8   4    5.41    0.64
   1  -8  -4    5.52    0.63
   1   8  -4    4.96    0.56
  -1   8   4    5.15    0.59
  -1   8   4    5.31    0.65
   1   8  -4    4.95    0.63
   0  -8  -4   14.50    1.04
   0  -8  -4   13.38    0.94
   0  -8   4   12.37    0.97
   0  -8   4   12.73    0.89
   0  -8  -4   13.27    1.00
   0  -8  -4   13.06    0.99
   0   8   4   13.26    1.05
   0   8  -4   11.90    0.99
   0   8  -4   13.39    0.89
   0   8   4   12.57    0.93
  -1  -8  -4   11.00    0.90
  -1  -8  -4   12.22    0.99
   1  -8   4   11.61    0.83
  -1  -8  -4   12.11    0.91
  -1  -8  -4   12.96    0.94
  -1   8  -4    8.41    0.84
   1   8   4    9.73    1.02
  -1   8  -4    9.57    0.79
   1   8   4   10.30    0.82
  -1   8  -4    9.39    0.71
  -2  -8  -4    7.32    0.80
  -2  -8  -4    7.28    0.96
  -2  -8  -4    7.48    0.86
  -2  -8  -4    6.68    0.84
   2  -8   4    6.72    0.72
  -2   8  -4    7.24    0.72
   2   8   4    7.07    0.87
   2   8   4    6.94    0.71
  -2   8  -4    8.25    0.73
  -3  -8  -4   25.54    1.66
   3  -8   4   27.21    1.47
  -3  -8  -4   25.01    1.60
  -3  -8  -4   27.14    1.79
  -3  -8  -4   27.72    1.75
  -3   8  -4   24.45    1.41
  -3   8  -4   20.84    1.39
  -3   8  -4   24.29    1.60
   3   8   4   23.58    1.59
   3   8   4   26.17    1.85
   4  -8   4   17.14    1.19
   4  -8   4   18.83    1.58
  -4  -8  -4   20.84    1.64
  -4  -8  -4   18.35    1.58
  -4  -8  -4   17.53    1.44
   4   8   4   17.79    1.50
  -4   8  -4   17.82    1.09
   4   8   4   16.86    1.54
  -4   8  -4   17.37    1.06
   4   8   4   19.22    1.82
   5  -9  -4    7.81    0.87
  -5  -9   4    7.49    0.93
   5  -9  -4    6.83    0.91
   5  -9  -4    7.24    0.90
   5   9  -4    7.02    1.15
   5   9  -4    6.13    0.78
   5   9  -4    5.51    0.91
  -4  -9   4   24.08    1.70
   4  -9  -4   26.21    1.67
   4  -9  -4   25.59    1.67
   4  -9  -4   27.21    1.73
   4   9  -4   22.86    1.68
   4   9  -4   24.66    1.94
   4   9  -4   23.67    1.57
   3  -9  -4    0.43    0.42
   3  -9  -4    0.60    0.51
  -3  -9   4    0.27    0.44
  -3  -9   4    0.43    0.40
   3   9  -4    0.54    0.37
   3   9  -4    0.46    0.56
   3   9  -4    0.18    0.28
   2  -9  -4    9.46    0.77
   2  -9  -4   11.32    1.03
  -2  -9   4    9.00    0.83
   2  -9  -4    9.70    0.93
  -2  -9   4   10.07    0.94
   2   9  -4    8.67    1.10
  -2   9   4    8.85    0.77
  -2   9   4   10.25    0.93
   2   9  -4    8.28    0.80
  -2   9   4    8.48    0.68
   1  -9  -4   22.99    1.58
   1  -9  -4   27.90    1.57
   1  -9  -4   27.07    1.51
  -1  -9   4   28.83    1.61
   1  -9  -4   28.03    1.59
  -1  -9   4   27.97    1.53
  -1   9   4   23.51    1.51
   1   9  -4   25.13    1.64
  -1   9   4   23.21    1.44
   1   9  -4   23.20    1.49
  -1   9   4   23.46    1.54
   0  -9   4    0.09    0.30
   0  -9  -4   -0.02    0.37
   0  -9  -4    0.22    0.39
   0  -9   4    0.40    0.33
   0  -9  -4    0.52    0.31
   0  -9  -4   -0.05    0.34
   0   9   4    0.45    0.48
   0   9   4    0.63    0.30
   0   9   4    0.62    0.32
   0   9  -4    0.25    0.41
   0   9  -4    0.64    0.31
  -1  -9  -4    9.28    0.89
   1  -9   4    7.10    0.82
  -1  -9  -4    9.26    0.89
  -1  -9  -4    8.07    0.87
   1  -9   4    6.33    0.83
  -1  -9  -4    7.68    0.99
  -1   9  -4   11.21    0.83
   1   9   4    9.95    0.83
   1   9   4   10.40    0.81
  -1   9  -4    9.92    0.88
   1   9   4   11.36    1.10
  -2  -9  -4   27.71    1.68
  -2  -9  -4   27.35    1.69
   2  -9   4   26.29    1.54
  -2  -9  -4   25.88    1.68
  -2  -9  -4   27.05    1.79
   2  -9   4   25.35    1.69
  -2   9  -4   26.35    1.53
   2   9   4   24.39    1.84
   2   9   4   25.31    1.59
   2   9   4   25.70    1.62
  -2   9  -4   26.08    1.51
  -3  -9  -4    5.04    0.74
   3  -9   4    5.14    0.58
  -3  -9  -4    4.22    0.82
  -3  -9  -4    6.04    0.81
  -3  -9  -4    5.15    0.74
   3   9   4    4.64    0.67
   3   9   4    5.25    0.75
  -3   9  -4    5.45    0.67
  -3   9  -4    5.34    0.65
   3   9   4    5.93    0.99
   4  -9   4    0.94    0.44
  -4  -9  -4    1.45    0.70
  -4  -9  -4    1.53    0.81
  -4  -9  -4    0.97    0.74
   4   9   4    1.63    0.72
   4   9   4    0.97    0.73
   4   9   4    2.59    1.01
  -4 -10   4    3.48    0.79
   4 -10  -4    4.61    0.77
   4 -10  -4    4.18    0.73
   4 -10  -4    5.86    0.86
   4  10  -4    4.33    0.69
   4  10  -4    4.38    0.58
   4  10  -4    4.50    1.06
   3 -10  -4   13.12    1.27
  -3 -10   4   14.11    1.36
   3 -10  -4   13.35    1.16
   3 -10  -4   12.38    1.33
   3  10  -4   17.27    1.19
   3  10  -4   13.75    1.53
   2 -10  -4    3.48    0.67
  -2 -10   4    3.21    0.49
   2 -10  -4    3.28    0.50
  -2 -10   4    3.46    0.65
   2 -10  -4    3.66    0.63
  -2  10   4    3.91    0.44
   2  10  -4    2.97    0.49
  -2  10   4    3.76    0.51
   2  10  -4    4.05    0.75
  -1 -10   4    7.58    0.77
   1 -10  -4    6.93    0.85
   1 -10  -4    6.98    0.84
  -1 -10   4    7.42    0.87
   1 -10  -4    7.17    0.82
   1 -10  -4    7.69    0.87
   1  10  -4    6.59    0.83
   1  10  -4    7.47    0.75
  -1  10   4    6.55    0.80
  -1  10   4    6.56    0.72
   0 -10  -4   12.31    1.03
   0 -10   4   13.31    1.06
   0 -10  -4   12.46    1.12
   0 -10   4   12.88    1.06
   0 -10  -4   13.47    1.05
   0 -10  -4   12.15    1.15
   0  10  -4   12.97    1.19
   0  10   4   14.20    1.22
   0  10   4   13.32    1.05
   0  10   4   13.43    1.00
   0  10  -4   13.82    1.02
  -1 -10  -4    3.57    0.57
  -1 -10  -4    4.58    0.57
  -1 -10  -4    3.13    0.68
   1 -10   4    3.68    0.59
   1 -10   4    3.71    0.60
  -1 -10  -4    4.66    0.61
  -1  10  -4    3.81    0.54
   1  10   4    3.75    0.49
   1  10   4    3.41    0.73
   1  10   4    3.14    0.51
  -2 -10  -4    1.19    0.68
   2 -10   4    0.37    0.54
  -2 -10  -4   -0.04    0.44
  -2 -10  -4    1.40    0.51
  -2 -10  -4    1.01    0.58
   2 -10   4    0.94    0.48
  -2  10  -4    1.15    0.43
   2  10   4    1.32    0.42
   2  10   4    0.95    0.47
   2  10   4    0.80    0.75
  -2  10  -4    1.24    0.46
  -3 -10  -4   10.03    1.28
  -3 -10  -4   11.21    1.36
  -3 -10  -4   11.41    1.28
  -3 -10  -4   11.48    1.28
   3 -10   4   10.61    1.15
   3 -10   4   10.61    0.98
   3  10   4    9.84    1.14
  -3  10  -4   10.60    0.84
  -3  10  -4   10.44    0.83
   3  10   4    9.84    1.19
   3  10   4   11.01    1.33
   3 -11  -4    0.45    0.70
   3 -11  -4    1.63    0.71
   3 -11  -4    0.62    0.49
  -3 -11   4    0.61    0.69
   3  11  -4    0.04    0.90
   3  11  -4    0.60    0.49
   2 -11  -4    7.84    0.96
   2 -11  -4    7.81    0.90
  -2 -11   4    7.56    0.93
   2 -11  -4    8.43    1.06
   2 -11  -4    7.63    0.84
   2 -11  -4    7.96    0.99
  -2  11   4    6.82    0.85
   2  11  -4    7.36    1.06
   2  11  -4    7.56    0.86
  -2  11   4    7.25    0.77
   1 -11  -4   11.08    1.07
   1 -11  -4   11.61    1.26
   1 -11  -4   11.10    0.97
  -1 -11   4   11.66    1.14
   1 -11  -4   12.32    1.12
  -1 -11   4   11.76    1.04
  -1  11   4   11.01    1.20
   1  11  -4   11.51    1.00
   1  11  -4   11.38    1.38
  -1  11   4   11.11    0.98
   0 -11   4    7.43    0.98
   0 -11   4    9.36    1.03
   0 -11  -4    8.19    0.82
   0 -11  -4    9.94    1.14
   0 -11  -4    8.34    1.06
   0 -11  -4    7.55    0.89
   0  11   4    7.97    0.98
   0  11  -4    6.73    0.87
   0  11   4    6.94    0.92
   0  11  -4    9.84    0.94
   0  11   4    6.73    0.88
  -1 -11  -4    8.09    1.04
  -1 -11  -4    8.85    0.93
   1 -11   4    8.47    1.07
  -1 -11  -4    7.94    1.05
  -1 -11  -4    9.10    1.06
   1 -11   4    8.91    1.06
  -1  11  -4    9.81    0.98
   1  11   4    9.67    0.91
   1  11   4    9.77    1.12
   1  11   4    8.28    0.98
  -2 -11  -4    6.97    1.09
   2 -11   4    6.97    0.78
  -2 -11  -4    6.38    0.78
  -2 -11  -4    6.97    0.96
   2 -11   4    7.73    0.98
  -2 -11  -4    7.57    1.08
   2  11   4    7.49    0.92
  -2  11  -4    6.87    0.72
  -2  11  -4    8.90    0.96
   2  11   4    6.13    0.71
   2  11   4    7.25    1.13
   1 -12  -4    1.98    0.80
   1 -12  -4    3.49    0.67
  -1 -12   4    2.20    0.62
   1  12  -4    2.02    0.58
  -1  12   4    3.36    0.61
   1  12  -4    3.36    0.94
   0 -12  -4   12.16    1.36
   0 -12   4   11.06    1.18
   0 -12  -4   12.26    1.16
   0  12  -4    9.73    1.14
   0  12   4    9.09    1.10
   0  12   4    9.64    1.12
   7   0  -5   10.73    1.11
   7   0  -5   11.11    1.14
   7   0  -5   11.77    1.03
  -7   0   5   11.65    1.00
   6   0  -5    2.54    0.50
  -6   0   5    2.82    0.47
   6   0  -5    2.38    0.47
  -6   0   5    2.03    0.52
   6   0  -5    2.71    0.42
  -5   0   5   30.71    1.67
  -5   0   5   32.50    1.73
   5   0  -5   26.91    1.65
   5   0  -5   32.15    1.73
  -4   0   5    7.77    0.69
  -4   0   5    7.92    0.67
   4   0  -5    7.17    0.59
   4   0  -5    8.19    0.69
  -3   0   5   12.40    0.81
  -3   0   5   13.01    0.85
   3   0  -5   11.16    0.81
   3   0  -5   12.72    0.84
   2   0  -5  319.09   14.41
   2   0  -5  315.27   14.81
  -2   0   5  303.09   14.40
  -2   0   5  315.57   14.81
  -1   0   5    8.64    0.62
  -1   0   5    8.04    0.67
   1   0  -5    8.41    0.63
   1   0  -5    8.29    0.66
   0   0  -5   17.64    1.01
   0   0   5   18.09    1.09
   0   0   5   17.00    0.99
  -1   0  -5  126.26    5.84
  -1   0  -5  121.23    6.45
   1   0   5  127.98    6.08
   1   0   5  123.74    5.83
  -1   0  -5  125.96    6.07
  -2   0  -5   41.28    2.16
  -2   0  -5   39.09    2.00
   2   0   5   40.12    2.31
  -2   0  -5   40.23    2.30
   2   0   5   42.16    2.17
   2   0   5   40.44    2.00
   3   0   5    1.25    0.24
   3   0   5    1.28    0.31
   3   0   5    1.17    0.33
  -3   0  -5    0.88    0.28
  -3   0  -5    1.13    0.29
   4   0   5   16.76    1.32
   4   0   5   17.33    1.17
  -4   0  -5   17.43    1.14
  -4   0  -5   17.43    1.25
   5   0   5   19.36    1.45
  -5   0  -5   20.24    1.41
   5   0   5   18.18    1.45
  -5   0  -5   20.19    1.28
   5   0   5   18.18    1.29
   6   0   5    0.26    0.54
   6   0   5    0.58    0.72
   6   0   5    0.83    0.55
  -6   0  -5   -0.40    0.45
  -6   0  -5   -0.16    0.59
  -7  -1   5   28.02    1.62
   7  -1  -5   28.04    1.85
   7  -1  -5   25.94    1.66
   7  -1  -5   27.24    1.66
  -7   1   5   25.50    1.56
   7   1  -5   25.95    1.84
   7   1  -5   24.88    1.77
   7   1  -5   25.38    1.62
   6  -1  -5   36.92    2.18
  -6  -1   5   35.60    1.92
   6  -1  -5   36.69    1.93
   6  -1  -5   36.00    1.95
  -6  -1   5   35.50    2.05
  -6   1   5   32.01    1.86
   6   1  -5   33.97    1.93
   6   1  -5   33.87    2.02
   6   1  -5   33.58    2.16
   5  -1  -5   35.40    1.85
  -5  -1   5   34.46    1.84
  -5  -1   5   33.62    1.90
   5  -1  -5   34.26    1.81
  -5   1   5   33.02    1.80
  -5   1   5   33.02    1.83
   5   1  -5   32.47    1.84
   5   1  -5   33.48    1.89
   4  -1  -5  116.84    5.59
   4  -1  -5  115.16    5.48
  -4  -1   5  117.95    5.64
   4  -1  -5  115.51    5.60
  -4  -1   5  120.54    5.50
   4   1  -5  110.33    5.62
   4   1  -5  119.57    5.65
  -4   1   5  115.22    5.59
  -4   1   5  109.36    5.46
   3  -1  -5  221.27   10.42
  -3  -1   5  234.56   10.18
   3  -1  -5  216.17   10.17
  -3  -1   5  217.22   10.45
  -3   1   5  227.12   10.15
  -3   1   5  207.40   10.15
  -3   1   5  213.10   10.41
   3   1  -5  217.34   10.45
  -2  -1   5    5.96    0.58
   2  -1  -5    6.14    0.55
   2  -1  -5    6.28    0.55
  -2   1   5    5.87    0.51
  -2   1   5    5.66    0.45
  -2   1   5    6.05    0.56
   2   1  -5    5.79    0.56
   1  -1  -5  231.82   10.52
  -1  -1   5  234.59   10.51
   1  -1  -5  229.66   10.22
  -1  -1   5  249.71   10.23
   1   1  -5  194.12   10.48
  -1   1   5  192.37   10.48
  -1   1   5  213.79   10.20
   0  -1  -5   59.60    2.80
   0  -1   5   61.29    2.79
   0  -1   5   54.95    2.88
   0   1   5   54.09    2.77
   0   1   5   57.18    2.90
   0   1  -5   56.73    2.89
  -1  -1  -5   22.11    1.24
   1  -1   5   22.68    1.23
   1  -1   5   22.08    1.31
  -1  -1  -5   22.03    1.41
  -1  -1  -5   21.81    1.32
   1   1   5   24.60    1.24
  -1   1  -5   23.01    1.41
   1   1   5   23.08    1.34
  -1   1  -5   24.76    1.33
   2  -1   5  126.58    5.88
  -2  -1  -5  125.83    6.17
   2  -1   5  118.83    6.54
  -2  -1  -5  129.35    5.91
  -2  -1  -5  125.10    6.57
   2  -1   5  121.99    6.16
  -2   1  -5  131.73    6.16
  -2   1  -5  133.02    6.58
   2   1   5  129.63    5.89
   2   1   5  123.16    6.16
  -3  -1  -5   47.52    3.04
   3  -1   5   56.46    2.88
  -3  -1  -5   56.72    2.66
  -3  -1  -5   58.26    2.90
   3  -1   5   56.97    2.63
   3  -1   5   55.69    3.10
  -3   1  -5   58.97    2.88
   3   1   5   51.96    2.87
   3   1   5   54.00    3.10
   3   1   5   55.12    2.85
  -3   1  -5   57.04    3.07
  -4  -1  -5    1.11    0.31
   4  -1   5    1.54    0.43
  -4  -1  -5    1.53    0.40
   4  -1   5    1.10    0.32
   4   1   5    1.72    0.44
   4   1   5    1.58    0.34
   4   1   5    1.14    0.42
  -4   1  -5    1.25    0.32
  -4   1  -5    1.98    0.39
  -5  -1  -5    8.77    0.97
  -5  -1  -5    9.25    0.86
   5  -1   5    7.71    1.07
   5  -1   5    9.57    0.90
   5   1   5    9.97    1.04
   5   1   5   10.19    0.93
  -5   1  -5   11.47    0.87
  -5   1  -5    9.99    1.00
   5   1   5    9.90    1.10
  -6  -1  -5   12.56    1.12
   6  -1   5   13.46    1.47
   6  -1   5   11.62    1.45
  -6  -1  -5   13.15    1.34
   6  -1   5    9.66    1.27
  -6   1  -5   13.00    1.15
   6   1   5   13.57    1.52
   6   1   5   13.29    1.32
  -6   1  -5   12.02    1.39
   6   1   5   14.28    1.23
   7  -2  -5    3.52    0.63
   7  -2  -5    3.78    0.58
  -7  -2   5    4.06    0.67
   7  -2  -5    4.17    0.70
  -7   2   5    3.98    0.56
   7   2  -5    3.55    0.67
   7   2  -5    4.13    0.79
   7   2  -5    4.58    0.57
  -6  -2   5    4.79    0.72
   6  -2  -5    4.63    0.56
  -6  -2   5    5.59    0.67
   6  -2  -5    5.33    0.72
   6   2  -5    7.32    0.75
   6   2  -5    8.08    0.94
   6   2  -5    7.21    0.89
  -6   2   5    7.78    0.74
   5  -2  -5   37.43    1.85
   5  -2  -5   34.82    1.88
  -5  -2   5   36.09    2.01
   5  -2  -5   35.00    1.91
  -5  -2   5   36.36    1.91
   5   2  -5   32.07    1.97
   5   2  -5   32.92    1.90
  -5   2   5   33.86    1.85
   5   2  -5   33.64    2.09
   4  -2  -5    8.66    0.70
   4  -2  -5    8.82    0.76
  -4  -2   5    7.96    0.80
  -4  -2   5    8.71    0.75
  -4  -2   5    8.22    0.55
   4   2  -5   10.66    0.72
  -4   2   5    9.97    0.71
  -4   2   5   10.91    0.73
   4   2  -5   10.23    0.80
  -3  -2   5   35.45    1.81
  -3  -2   5   35.54    1.88
   3  -2  -5   33.74    1.83
   3  -2  -5   35.92    1.83
  -3   2   5   34.09    1.80
  -3   2   5   33.43    1.81
   3   2  -5   34.39    1.88
  -3   2   5   35.42    1.70
  -2  -2   5   27.37    1.47
  -2  -2   5   30.05    1.54
   2  -2  -5   30.48    1.52
   2  -2  -5   29.16    1.50
   2   2  -5   25.32    1.52
  -2   2   5   27.48    1.47
  -2   2   5   26.39    1.50
  -2   2   5   25.95    1.41
  -1  -2   5   34.21    1.72
   1  -2  -5   32.53    1.66
  -1  -2   5   29.25    1.63
   1  -2  -5   32.52    1.70
   1   2  -5   30.42    1.69
  -1   2   5   31.52    1.63
  -1   2   5   32.12    1.71
  -1   2   5   31.79    1.65
   0  -2   5   11.54    0.79
   0  -2   5   11.31    0.84
   0  -2  -5   11.43    0.81
   0  -2  -5   11.62    0.87
   0   2   5   14.73    0.84
   0   2  -5   13.01    0.95
   0   2   5   14.41    0.90
   0   2  -5   15.07    0.88
   0   2   5   15.68    0.83
   1  -2   5  122.60    5.95
  -1  -2  -5  127.07    6.21
  -1  -2  -5  118.49    6.58
   1  -2   5  126.69    6.18
  -1  -2  -5  120.24    5.96
   1   2   5  132.79    6.21
   1   2   5  130.53    5.97
   1   2   5  132.10    6.10
  -1   2  -5  136.31    6.20
  -1   2  -5  129.65    6.57
   2  -2   5   52.81    2.84
  -2  -2  -5   55.74    2.89
  -2  -2  -5   54.04    2.71
  -2  -2  -5   56.35    3.07
   2  -2   5   53.02    3.05
   2  -2   5   52.32    2.68
  -2   2  -5   59.25    3.06
   2   2   5   60.52    2.84
  -2   2  -5   55.42    2.85
   2   2   5   57.52    2.71
   3  -2   5    1.92    0.43
  -3  -2  -5    2.37    0.34
   3  -2   5    2.59    0.30
  -3  -2  -5    2.85    0.41
  -3  -2  -5    2.24    0.40
   3  -2   5    2.34    0.36
   3   2   5    1.81    0.36
   3   2   5    2.01    0.41
  -3   2  -5    1.99    0.34
  -3   2  -5    1.94    0.41
   3   2   5    2.33    0.47
   4  -2   5   34.52    2.00
  -4  -2  -5   37.27    2.05
  -4  -2  -5   36.25    1.80
   4  -2   5   36.04    2.26
  -4  -2  -5   38.85    2.19
  -4   2  -5   36.00    2.20
  -4   2  -5   35.37    1.97
   4   2   5   37.49    2.27
   4   2   5   35.60    2.06
   4   2   5   33.03    2.03
   5  -2   5   21.41    1.71
  -5  -2  -5   19.80    1.43
  -5  -2  -5   20.58    1.52
   5  -2   5   21.38    1.46
   5   2   5   22.22    1.59
  -5   2  -5   22.26    1.62
   5   2   5   24.31    1.67
   5   2   5   24.02    1.50
  -5   2  -5   23.10    1.40
   6  -2   5    0.66    0.72
   6  -2   5    1.68    0.70
  -6  -2  -5   -0.25    0.49
  -6   2  -5    0.69    0.71
   6   2   5    1.06    0.61
   6   2   5    0.61    0.81
  -6   2  -5    0.17    0.51
   6   2   5    0.06    0.62
   7  -3  -5   27.35    1.62
  -7  -3   5   26.58    1.78
   7  -3  -5   27.43    1.98
   7  -3  -5   27.82    1.65
   7   3  -5   26.34    1.92
   7   3  -5   27.39    1.72
   7   3  -5   28.16    2.03
  -7   3   5   27.03    1.61
   6  -3  -5   21.71    1.27
   6  -3  -5   21.84    1.55
   6  -3  -5   20.33    1.33
  -6  -3   5   22.05    1.40
   6  -3  -5   21.18    1.25
  -6  -3   5   22.60    1.57
  -6   3   5   18.87    1.28
   6   3  -5   18.18    1.53
   6   3  -5   18.95    1.32
   6   3  -5   20.81    1.49
  -5  -3   5    8.35    0.57
  -5  -3   5    8.97    0.98
   5  -3  -5    9.47    0.82
   5  -3  -5    8.18    0.69
  -5  -3   5    9.27    0.81
   5  -3  -5    8.62    0.66
  -5   3   5    7.50    0.68
   5   3  -5    7.97    0.92
   5   3  -5    7.87    0.89
  -5   3   5    8.03    0.75
   5   3  -5    7.62    0.73
  -4  -3   5  127.58    5.83
  -4  -3   5  122.15    5.55
  -4  -3   5  120.10    5.62
   4  -3  -5  122.95    5.64
   4  -3  -5  125.50    5.70
   4   3  -5  109.84    5.79
  -4   3   5  109.21    5.58
   4   3  -5  106.72    5.76
  -3  -3   5   90.50    4.36
  -3  -3   5   90.89    4.40
   3  -3  -5   93.56    4.42
  -3  -3   5   95.49    4.56
   3  -3  -5   89.38    4.50
   3   3  -5   91.62    4.55
  -3   3   5   94.47    4.40
   3   3  -5   92.20    4.54
  -3   3   5   84.93    4.43
  -3   3   5   95.94    4.34
  -2  -3   5   16.44    0.98
  -2  -3   5   16.76    1.05
   2  -3  -5   16.32    0.99
   2  -3  -5   15.66    0.98
  -2   3   5   16.58    0.93
  -2   3   5   16.59    0.97
   2   3  -5   16.75    1.02
  -2   3   5   15.67    0.99
   1  -3  -5  161.87    7.32
   1  -3  -5  161.68    7.51
  -1  -3   5  165.10    7.53
   1   3  -5  148.46    7.51
  -1   3   5  154.23    7.51
  -1   3   5  150.40    7.36
  -1   3   5  153.89    7.30
   0  -3   5  157.28    7.73
   0  -3  -5  168.79    7.76
   0  -3   5  162.81    7.50
   0  -3  -5  172.94    7.53
   0   3   5  156.10    7.74
   0   3  -5  152.92    7.73
   0   3   5  165.09    7.61
   0   3  -5  157.41    8.20
   0   3   5  156.50    7.50
  -1  -3  -5   18.26    1.18
  -1  -3  -5   16.38    1.22
  -1  -3  -5   18.95    1.10
   1  -3   5   17.65    1.13
   1  -3   5   18.32    1.07
   1   3   5   20.96    1.21
   1   3   5   20.55    1.10
  -1   3  -5   21.70    1.17
   1   3   5   19.74    1.15
  -1   3  -5   19.41    1.21
  -2  -3  -5   36.98    2.11
   2  -3   5   33.47    1.92
   2  -3   5   36.11    1.83
  -2  -3  -5   35.48    2.01
  -2  -3  -5   35.15    1.86
  -2   3  -5   36.85    2.09
   2   3   5   37.97    1.96
   2   3   5   38.12    2.02
  -2   3  -5   37.07    1.95
  -3  -3  -5   42.89    2.25
  -3  -3  -5   45.09    2.38
   3  -3   5   42.18    2.16
   3  -3   5   40.21    2.36
   3  -3   5   41.44    1.98
  -3  -3  -5   43.46    2.05
  -3   3  -5   36.22    2.31
   3   3   5   39.63    2.40
   3   3   5   37.93    2.23
  -3   3  -5   37.23    2.13
   3   3   5   35.61    2.15
  -4  -3  -5    2.21    0.38
   4  -3   5    1.57    0.55
  -4  -3  -5    2.41    0.45
  -4  -3  -5    1.87    0.43
   4  -3   5    2.28    0.44
  -4   3  -5    2.57    0.42
  -4   3  -5    2.99    0.51
   4   3   5    2.92    0.52
   4   3   5    2.61    0.54
   4   3   5    3.10    0.56
   5  -3   5   15.03    1.28
   5  -3   5   14.36    1.47
  -5  -3  -5   15.38    0.95
  -5  -3  -5   15.90    1.30
  -5  -3  -5   15.26    1.24
  -5   3  -5   17.87    1.17
  -5   3  -5   14.23    1.42
   5   3   5   17.61    1.40
   5   3   5   16.58    1.46
   5   3   5   17.23    1.34
  -7  -4   5   -0.20    0.60
   7  -4  -5   -0.39    0.46
   7  -4  -5   -0.06    0.39
   7  -4  -5    0.08    0.62
   7   4  -5    0.49    0.67
   7   4  -5    0.38    0.64
   7   4  -5    0.74    0.50
  -6  -4   5   35.77    2.02
   6  -4  -5   33.67    1.83
   6  -4  -5   35.07    1.88
  -6  -4   5   34.20    1.78
   6  -4  -5   32.68    1.97
   6  -4  -5   34.68    2.27
   6   4  -5   37.68    2.28
  -6   4   5   35.99    1.93
   6   4  -5   35.76    2.17
   6   4  -5   37.51    2.09
  -5  -4   5    6.36    0.77
   5  -4  -5    6.90    0.59
   5  -4  -5    7.21    0.66
   5  -4  -5    7.72    0.81
  -5  -4   5    7.19    0.62
  -5  -4   5    6.30    0.77
  -5   4   5    7.54    0.58
  -5   4   5    7.72    0.75
   5   4  -5    6.62    0.91
   5   4  -5    6.74    0.77
   5   4  -5    6.85    0.90
   4  -4  -5   12.47    0.72
   4  -4  -5   12.61    0.80
   4  -4  -5   12.84    0.92
  -4  -4   5   13.43    1.01
  -4  -4   5   12.03    0.78
  -4   4   5    9.50    0.83
   4   4  -5   10.63    0.95
  -4   4   5   10.13    0.73
   4   4  -5   11.16    0.91
  -3  -4   5   13.45    0.82
  -3  -4   5   14.27    0.94
   3  -4  -5   12.53    0.80
   3  -4  -5   14.45    0.79
   3  -4  -5   14.02    0.88
  -3   4   5   10.92    0.81
  -3   4   5   10.39    0.74
   3   4  -5   10.65    0.88
   3   4  -5    9.80    0.86
   2  -4  -5   50.80    2.61
   2  -4  -5   48.37    2.64
  -2  -4   5   50.42    2.71
   2  -4  -5   50.35    2.63
  -2   4   5   53.26    2.65
  -2   4   5   56.54    2.61
   2   4  -5   55.52    2.72
  -2   4   5   56.68    2.64
   1  -4  -5   92.02    4.35
   1  -4  -5   94.92    4.27
  -1  -4   5   93.10    4.37
   1  -4  -5   87.69    4.28
  -1   4   5   82.65    4.26
   1   4  -5   86.58    4.36
  -1   4   5   87.81    4.25
  -1   4   5   84.32    4.34
   0  -4  -5   17.03    1.03
   0  -4  -5   17.34    1.09
   0  -4  -5   17.41    1.14
   0  -4   5   17.76    1.04
   0   4  -5   17.21    1.04
   0   4   5   17.88    1.10
   0   4  -5   16.43    1.08
   0   4   5   16.92    1.01
   0   4   5   16.23    1.02
  -1  -4  -5   79.73    3.88
   1  -4   5   76.69    3.98
  -1  -4  -5   74.94    4.27
  -1  -4  -5   74.70    4.02
   1   4   5   86.48    3.98
  -1   4  -5   87.43    4.25
  -1   4  -5   82.62    4.01
   1   4   5   81.97    4.05
  -2  -4  -5   46.32    2.63
  -2  -4  -5   49.99    2.80
   2  -4   5   49.17    2.56
   2  -4   5   52.15    2.47
  -2  -4  -5   49.70    2.50
   2   4   5   51.23    2.59
   2   4   5   48.10    2.65
  -2   4  -5   50.14    2.57
  -2   4  -5   49.69    2.74
  -3  -4  -5    2.55    0.50
   3  -4   5    1.92    0.51
  -3  -4  -5    2.18    0.41
   3  -4   5    2.54    0.42
  -3  -4  -5    1.98    0.45
   3  -4   5    2.45    0.35
   3   4   5    2.53    0.44
  -3   4  -5    2.77    0.40
   3   4   5    2.32    0.54
   3   4   5    2.27    0.52
  -3   4  -5    2.49    0.49
  -4  -4  -5   48.31    2.41
  -4  -4  -5   47.41    2.66
  -4  -4  -5   46.39    2.80
   4  -4   5   45.29    2.83
   4  -4   5   47.84    2.27
   4  -4   5   47.99    2.54
   4   4   5   48.50    2.85
   4   4   5   48.38    2.61
   4   4   5   48.67    2.71
  -4   4  -5   46.25    2.49
  -4   4  -5   46.18    2.78
  -5  -4  -5   20.86    1.65
   5  -4   5   19.78    1.78
  -5  -4  -5   20.09    1.51
  -5  -4  -5   19.84    1.26
   5  -4   5   20.96    1.47
   5   4   5   22.12    1.66
  -5   4  -5   20.22    1.72
  -5   4  -5   21.30    1.36
   5   4   5   19.64    1.64
   5   4   5   19.86    1.65
   7  -5  -5   18.50    1.74
  -7  -5   5   17.58    1.56
   7  -5  -5   19.88    1.43
   7   5  -5   14.62    1.69
   7   5  -5   16.04    1.48
   7   5  -5   13.91    1.68
   6  -5  -5   16.98    1.36
  -6  -5   5   18.33    1.18
   6  -5  -5   18.56    1.58
  -6  -5   5   17.23    1.39
   6   5  -5   21.96    1.53
   6   5  -5   19.79    1.56
   6   5  -5   22.14    1.60
  -5  -5   5    0.55    0.54
   5  -5  -5    0.46    0.24
  -5  -5   5    0.40    0.34
   5  -5  -5    0.66    0.39
   5  -5  -5    0.46    0.25
   5  -5  -5    0.39    0.27
   5   5  -5   -0.02    0.41
   5   5  -5    0.18    0.44
   5   5  -5    0.42    0.44
   4  -5  -5   30.44    1.73
   4  -5  -5   32.81    1.61
  -4  -5   5   33.15    1.87
  -4  -5   5   32.65    1.67
   4  -5  -5   32.22    1.61
   4   5  -5   29.13    1.82
  -4   5   5   28.93    1.69
   4   5  -5   29.46    1.85
  -4   5   5   29.10    1.56
   4   5  -5   29.11    1.83
   3  -5  -5   26.08    1.45
   3  -5  -5   28.70    1.39
   3  -5  -5   26.72    1.36
  -3  -5   5   26.45    1.52
  -3  -5   5   27.19    1.41
  -3   5   5   23.47    1.40
  -3   5   5   22.28    1.32
   3   5  -5   22.73    1.47
   3   5  -5   22.48    1.49
  -3   5   5   22.24    1.33
   2  -5  -5    0.00    0.23
  -2  -5   5    0.03    0.24
   2  -5  -5    0.15    0.27
   2  -5  -5   -0.02    0.23
  -2   5   5    0.16    0.23
  -2   5   5   -0.05    0.20
  -2   5   5   -0.10    0.25
   2   5  -5   -0.57    0.26
   2   5  -5    0.09    0.24
   1  -5  -5   49.86    2.49
  -1  -5   5   51.71    2.52
   1  -5  -5   47.65    2.45
   1  -5  -5   48.34    2.47
   1   5  -5   47.51    2.50
  -1   5   5   45.19    2.48
  -1   5   5   48.11    2.45
   0  -5  -5  108.47    5.30
   0  -5  -5  112.97    5.65
   0  -5  -5  110.91    5.24
   0  -5  -5  113.01    5.18
   0  -5   5  105.79    5.28
   0   5   5  104.81    5.29
   0   5  -5  106.44    5.56
   0   5   5  108.45    5.23
   0   5  -5  103.20    5.27
  -1  -5  -5   18.99    1.12
  -1  -5  -5   16.23    1.16
  -1  -5  -5   16.31    1.20
   1  -5   5   16.90    1.05
  -1   5  -5   18.01    1.15
   1   5   5   18.62    1.20
   1   5   5   17.97    1.11
  -1   5  -5   17.35    1.08
  -2  -5  -5   16.12    1.00
  -2  -5  -5   16.42    1.11
   2  -5   5   14.04    0.94
  -2  -5  -5   15.25    1.14
  -2   5  -5   13.08    0.93
   2   5   5   13.27    0.96
  -2   5  -5   12.66    1.03
   2   5   5   13.14    1.13
  -3  -5  -5   24.68    1.61
  -3  -5  -5   24.31    1.41
  -3  -5  -5   21.65    1.54
   3  -5   5   22.53    1.42
   3  -5   5   24.48    1.63
   3  -5   5   23.96    1.32
   3   5   5   24.53    1.49
  -3   5  -5   23.34    1.37
  -3   5  -5   23.56    1.56
   3   5   5   23.19    1.62
   4  -5   5    3.23    0.41
   4  -5   5    2.95    0.66
  -4  -5  -5    2.98    0.51
  -4  -5  -5    3.33    0.63
  -4  -5  -5    3.03    0.59
   4  -5   5    3.31    0.55
   4   5   5    2.29    0.57
  -4   5  -5    2.40    0.58
  -4   5  -5    3.01    0.47
   4   5   5    3.07    0.71
   4   5   5    3.45    0.63
   5  -5   5   13.92    1.59
   5  -5   5   13.01    1.23
  -5  -5  -5   12.37    1.30
  -5  -5  -5   12.60    1.43
  -5  -5  -5   11.71    1.06
   5   5   5   12.14    1.53
   5   5   5   11.68    1.41
   5   5   5   14.12    1.41
  -5   5  -5   14.57    1.51
  -5   5  -5   12.42    1.03
  -6  -6   5    5.47    0.79
  -6  -6   5    5.36    0.65
   6  -6  -5    4.89    0.83
   6  -6  -5    5.86    0.59
   6  -6  -5    6.18    0.79
   6   6  -5    3.82    0.78
   6   6  -5    5.44    0.87
   6   6  -5    3.04    0.76
  -5  -6   5   58.52    3.29
  -5  -6   5   57.38    3.00
   5  -6  -5   58.26    2.93
   5  -6  -5   57.04    3.08
   5   6  -5   61.50    3.35
   5   6  -5   62.10    3.26
   5   6  -5   61.57    3.28
   4  -6  -5    0.69    0.40
   4  -6  -5    0.85    0.33
  -4  -6   5    0.68    0.36
   4  -6  -5    0.57    0.23
  -4  -6   5    0.77    0.47
   4   6  -5    0.72    0.45
   4   6  -5    1.03    0.41
   4   6  -5    1.02    0.45
   3  -6  -5   21.43    1.41
   3  -6  -5   22.54    1.37
  -3  -6   5   22.43    1.48
  -3  -6   5   23.89    1.40
   3  -6  -5   21.86    1.29
   3   6  -5   24.59    1.54
   3   6  -5   25.34    1.50
  -3   6   5   26.47    1.30
  -3   6   5   25.07    1.36
  -2  -6   5   81.78    4.22
   2  -6  -5   83.03    4.20
   2  -6  -5   83.77    4.21
  -2  -6   5   85.31    4.31
   2   6  -5   91.38    4.35
  -2   6   5   89.64    4.21
   2   6  -5   89.32    4.33
   1  -6  -5   18.14    1.13
   1  -6  -5   17.69    1.11
  -1  -6   5   17.96    1.11
   1  -6  -5   19.32    1.11
   1   6  -5   16.25    1.09
  -1   6   5   16.27    1.11
   1   6  -5   18.65    1.18
  -1   6   5   16.91    1.12
   0  -6  -5   10.70    0.85
   0  -6  -5   11.57    0.84
   0  -6  -5   10.61    0.95
   0  -6  -5   10.99    0.89
   0  -6   5   11.07    0.80
   0   6  -5   13.68    0.88
   0   6  -5   11.61    0.81
   0   6   5   11.39    0.82
   0   6   5   12.23    0.93
  -1  -6  -5   76.72    3.79
  -1  -6  -5   78.14    3.99
  -1  -6  -5   74.58    3.66
   1  -6   5   68.14    3.68
  -1  -6  -5   73.11    3.72
   1   6   5   74.58    3.79
  -1   6  -5   73.87    3.88
  -1   6  -5   73.59    3.71
   1   6   5   73.29    3.70
  -2  -6  -5   49.25    2.71
  -2  -6  -5   48.61    2.60
  -2  -6  -5   48.30    2.48
   2  -6   5   47.82    2.46
  -2   6  -5   46.84    2.46
   2   6   5   46.22    2.49
  -2   6  -5   44.77    2.60
   2   6   5   44.55    2.61
  -3  -6  -5    6.03    0.75
   3  -6   5    5.71    0.73
  -3  -6  -5    4.74    0.72
  -3  -6  -5    6.30    0.70
  -3   6  -5    6.55    0.84
   3   6   5    7.05    0.76
  -3   6  -5    6.78    0.70
   3   6   5    6.81    0.86
   4  -6   5   28.77    1.59
  -4  -6  -5   29.73    1.76
   4  -6   5   28.27    1.75
   4  -6   5   29.52    2.06
  -4  -6  -5   29.95    2.05
  -4  -6  -5   27.99    1.97
  -4   6  -5   30.45    1.69
   4   6   5   29.35    1.89
   4   6   5   31.24    2.10
  -4   6  -5   28.71    1.99
  -5  -6  -5   15.67    1.65
   5  -6   5   13.46    1.70
  -5  -6  -5   14.49    1.49
  -5  -6  -5   13.65    1.25
   5  -6   5   11.76    1.28
   5   6   5   18.37    1.82
   5   6   5   14.10    1.77
  -5   6  -5   14.21    1.09
  -5   6  -5   13.44    1.66
   5   6   5   16.90    1.63
   6  -7  -5   11.52    0.91
   6  -7  -5   10.96    1.44
  -6  -7   5    9.98    1.10
   6  -7  -5   10.76    1.24
   6   7  -5    9.53    1.23
   6   7  -5    9.74    1.30
   6   7  -5    8.88    1.16
  -5  -7   5    2.81    0.55
   5  -7  -5    3.03    0.50
  -5  -7   5    3.01    0.78
   5  -7  -5    2.45    0.60
   5  -7  -5    2.31    0.57
   5   7  -5    2.62    0.64
   5   7  -5    3.05    0.58
   5   7  -5    3.24    0.77
  -4  -7   5   32.52    1.98
   4  -7  -5   29.95    1.83
  -4  -7   5   32.08    1.79
   4  -7  -5   32.99    1.74
   4   7  -5   30.72    1.87
   4   7  -5   27.20    1.89
   4   7  -5   29.14    1.96
  -3  -7   5   31.77    1.76
   3  -7  -5   30.17    1.76
   3  -7  -5   33.78    1.74
   3  -7  -5   31.11    1.59
  -3  -7   5   30.51    1.82
  -3   7   5   27.90    1.69
   3   7  -5   28.36    1.85
   3   7  -5   29.61    1.79
  -3   7   5   29.38    1.58
   3   7  -5   29.41    1.75
  -2  -7   5    8.16    0.80
   2  -7  -5    8.63    0.81
   2  -7  -5    8.78    0.70
  -2  -7   5    8.72    0.73
   2  -7  -5    6.90    0.73
  -2   7   5    8.08    0.76
   2   7  -5    7.59    0.90
   2   7  -5    7.81    0.72
   1  -7  -5   14.35    1.01
  -1  -7   5   13.41    0.98
   1  -7  -5   14.79    1.02
   1  -7  -5   14.81    1.08
  -1  -7   5   14.39    1.05
  -1   7   5   16.33    1.04
   1   7  -5   15.91    1.00
   1   7  -5   14.85    1.05
   1   7  -5   15.16    1.12
  -1   7   5   15.16    1.04
   0  -7  -5   33.80    1.87
   0  -7  -5   33.87    1.87
   0  -7  -5   33.62    1.83
   0  -7   5   32.90    1.81
   0  -7  -5   32.51    2.00
   0   7   5   32.48    1.89
   0   7  -5   32.99    1.87
   0   7  -5   33.33    1.81
   0   7   5   32.01    1.83
  -1  -7  -5    3.11    0.47
  -1  -7  -5    2.81    0.53
  -1  -7  -5    3.44    0.55
  -1  -7  -5    3.19    0.47
   1  -7   5    3.15    0.43
  -1   7  -5    2.30    0.39
   1   7   5    1.96    0.37
   1   7   5    2.28    0.53
  -1   7  -5    2.39    0.38
   2  -7   5    6.00    0.68
  -2  -7  -5    6.47    0.88
  -2  -7  -5    6.56    0.79
  -2  -7  -5    5.82    0.72
  -2  -7  -5    5.49    0.64
  -2   7  -5    4.77    0.70
   2   7   5    4.50    0.53
   2   7   5    4.86    0.73
  -2   7  -5    4.48    0.54
   3  -7   5   38.05    2.14
  -3  -7  -5   38.86    2.36
  -3  -7  -5   39.54    2.20
  -3  -7  -5   39.04    2.40
   3   7   5   41.40    2.24
  -3   7  -5   38.89    2.10
   3   7   5   40.19    2.44
  -3   7  -5   36.28    2.29
   4  -7   5    0.47    0.65
   4  -7   5    0.99    0.49
  -4  -7  -5    0.51    0.63
  -4  -7  -5    0.34    0.55
   4  -7   5    0.67    0.47
  -4  -7  -5    0.42    0.62
   4   7   5    0.12    0.79
  -4   7  -5    0.65    0.62
   4   7   5    0.89    0.62
  -4   7  -5    0.24    0.39
   6  -8  -5    7.17    0.77
   6  -8  -5    7.61    0.99
  -6  -8   5    6.25    0.90
   6  -8  -5    6.75    1.03
   6   8  -5    7.27    1.09
   6   8  -5    8.03    1.29
   6   8  -5    5.73    0.90
   5  -8  -5   11.37    1.25
   5  -8  -5   13.02    1.36
   5  -8  -5   12.42    1.09
  -5  -8   5   12.05    1.18
   5   8  -5   14.13    1.40
   5   8  -5   12.40    1.56
   5   8  -5   12.73    1.22
  -4  -8   5    4.55    0.72
  -4  -8   5    4.32    0.75
   4  -8  -5    4.87    0.65
   4  -8  -5    5.37    0.73
   4   8  -5    5.70    0.74
   4   8  -5    5.51    0.84
   4   8  -5    6.34    0.82
  -3  -8   5   29.65    1.90
   3  -8  -5   28.84    1.85
  -3  -8   5   32.48    1.89
   3  -8  -5   29.63    1.68
   3  -8  -5   31.92    1.86
   3   8  -5   34.42    2.06
   3   8  -5   33.83    1.91
  -3   8   5   29.71    1.82
   3   8  -5   34.49    1.83
  -3   8   5   34.82    1.67
  -2  -8   5   47.89    2.55
   2  -8  -5   44.81    2.51
  -2  -8   5   48.70    2.57
   2  -8  -5   47.08    2.45
   2  -8  -5   47.56    2.54
   2   8  -5   47.31    2.50
  -2   8   5   48.95    2.53
   2   8  -5   46.85    2.62
   2   8  -5   47.73    2.55
   1  -8  -5    9.67    0.98
   1  -8  -5   11.06    0.91
   1  -8  -5   10.07    0.87
  -1  -8   5   10.09    0.92
  -1  -8   5   10.57    0.85
  -1   8   5   12.52    0.95
  -1   8   5   12.77    0.97
   1   8  -5   12.63    1.07
   1   8  -5   13.04    0.88
   0  -8  -5   19.68    1.33
   0  -8   5   18.96    1.24
   0  -8  -5   16.67    1.26
   0  -8  -5   18.98    1.41
   0  -8  -5   21.05    1.37
   0   8  -5   21.48    1.38
   0   8   5   21.83    1.40
   0   8   5   22.22    1.31
   0   8  -5   21.82    1.18
   0   8  -5   21.67    1.26
  -1  -8  -5   37.50    2.14
  -1  -8  -5   36.33    2.02
  -1  -8  -5   35.19    2.02
   1  -8   5   34.71    1.96
  -1  -8  -5   36.80    2.09
   1   8   5   35.04    2.12
  -1   8  -5   34.10    1.98
   1   8   5   34.79    1.98
  -1   8  -5   35.49    1.94
  -1   8  -5   33.73    1.95
  -2  -8  -5   30.75    1.97
  -2  -8  -5   33.03    2.02
   2  -8   5   32.75    1.81
  -2  -8  -5   31.74    1.89
  -2  -8  -5   32.23    1.89
   2   8   5   30.86    2.06
  -2   8  -5   30.53    1.79
   2   8   5   32.06    1.83
  -2   8  -5   28.65    1.83
  -3  -8  -5   -0.10    0.57
  -3  -8  -5    0.09    0.55
  -3  -8  -5    0.56    0.54
   3  -8   5    0.45    0.45
   3   8   5    0.14    0.71
   3   8   5    0.54    0.48
  -3   8  -5    0.45    0.51
  -3   8  -5    0.16    0.37
   4  -8   5    8.35    1.03
  -4  -8  -5    7.47    1.02
  -4  -8  -5    7.86    1.09
  -4  -8  -5    9.05    0.99
  -4   8  -5    8.25    0.82
   4   8   5    9.47    1.34
  -4   8  -5    8.04    0.99
   4   8   5    7.24    0.98
   5  -9  -5    1.65    0.69
   5  -9  -5    2.16    0.64
  -5  -9   5    1.63    0.71
   5  -9  -5    0.86    0.67
   5   9  -5    1.16    0.76
   5   9  -5    1.73    0.60
   5   9  -5    1.41    0.99
  -4  -9   5   21.52    1.74
   4  -9  -5   21.03    1.54
  -4  -9   5   18.80    1.59
   4  -9  -5   21.50    1.61
   4   9  -5   22.36    1.63
   4   9  -5   23.45    1.88
   4   9  -5   22.88    1.45
  -3  -9   5   24.49    1.64
   3  -9  -5   24.09    1.35
   3  -9  -5   25.42    1.61
   3  -9  -5   24.35    1.61
  -3  -9   5   23.61    1.61
   3   9  -5   23.56    1.41
   3   9  -5   24.29    1.57
   3   9  -5   23.34    1.79
  -2  -9   5    5.99    0.72
   2  -9  -5    6.26    0.78
   2  -9  -5    5.42    0.72
  -2  -9   5    4.97    0.70
   2  -9  -5    5.79    0.74
  -2   9   5    5.12    0.60
   2   9  -5    5.29    0.79
   2   9  -5    4.85    0.59
  -2   9   5    5.59    0.61
  -2   9   5    5.82    0.73
   1  -9  -5   13.21    1.05
  -1  -9   5   13.91    0.99
   1  -9  -5   14.99    1.06
  -1  -9   5   15.31    1.12
   1  -9  -5   13.03    1.17
   1  -9  -5   15.18    1.19
  -1   9   5   13.59    1.11
   1   9  -5   14.42    1.00
   1   9  -5   14.16    1.22
  -1   9   5   11.48    1.08
   0  -9   5    9.81    0.87
   0  -9  -5    8.63    0.96
   0  -9   5    8.46    0.90
   0  -9  -5   10.02    0.90
   0  -9  -5    9.46    1.00
   0  -9  -5    9.53    1.06
   0   9   5   10.93    0.91
   0   9  -5   10.93    1.05
   0   9  -5   10.75    0.86
   0   9   5   11.91    1.08
   1  -9   5    0.13    0.41
  -1  -9  -5    0.17    0.51
  -1  -9  -5    0.03    0.46
  -1  -9  -5    0.61    0.40
  -1  -9  -5    0.41    0.39
   1  -9   5    0.45    0.37
  -1   9  -5    0.58    0.39
  -1   9  -5    0.62    0.28
   1   9   5    0.81    0.38
  -1   9  -5    0.47    0.48
   1   9   5    0.46    0.59
  -2  -9  -5   11.40    1.20
  -2  -9  -5   10.43    1.19
   2  -9   5   10.66    1.04
  -2  -9  -5   11.68    1.33
  -2  -9  -5   11.00    1.07
   2   9   5   12.66    1.03
  -2   9  -5   11.95    0.97
   2   9   5   11.87    1.43
  -2   9  -5   12.54    1.02
  -3  -9  -5    8.61    0.97
  -3  -9  -5    8.49    1.01
   3  -9   5    7.56    1.00
  -3  -9  -5    8.61    1.10
   3   9   5    8.37    1.07
  -3   9  -5    8.49    0.88
   3   9   5    9.13    1.27
   3   9   5    7.72    0.89
  -3   9  -5    8.29    0.92
   4 -10  -5    2.88    0.71
   4 -10  -5    2.40    0.72
  -4 -10   5    2.58    0.78
   4 -10  -5    3.67    0.78
   4  10  -5    2.49    0.52
   4  10  -5    2.23    0.65
   4  10  -5    3.00    0.99
   3 -10  -5   23.41    1.64
   3 -10  -5   22.71    1.29
   3 -10  -5   22.15    1.63
  -3 -10   5   21.57    1.64
  -3 -10   5   22.16    1.59
   3  10  -5   20.06    1.47
   3  10  -5   21.61    1.86
   2 -10  -5   12.91    1.27
   2 -10  -5   12.19    1.03
  -2 -10   5   11.72    1.03
  -2 -10   5   13.20    1.23
   2 -10  -5   12.49    1.13
  -2  10   5   12.62    1.03
  -2  10   5   13.27    1.24
  -2  10   5   12.58    0.92
   2  10  -5   11.46    1.01
   2  10  -5   11.46    1.41
  -1 -10   5    7.20    0.82
   1 -10  -5    7.64    0.93
   1 -10  -5    6.88    0.84
   1 -10  -5    7.31    1.00
   1 -10  -5    6.46    0.84
  -1 -10   5    8.47    0.94
  -1  10   5    6.75    0.79
  -1  10   5    6.46    0.81
   1  10  -5    6.86    0.77
  -1  10   5    7.55    0.79
   1  10  -5    6.57    0.89
   0 -10  -5    3.79    0.63
   0 -10   5    3.34    0.56
   0 -10  -5    2.64    0.65
   0 -10  -5    3.36    0.60
   0 -10   5    2.85    0.55
   0 -10  -5    2.22    0.52
   0  10   5    2.88    0.47
   0  10   5    2.74    0.69
   0  10  -5    2.64    0.49
   0  10  -5    2.59    0.63
   0  10   5    2.55    0.52
  -1 -10  -5   29.57    1.89
   1 -10   5   30.11    1.85
  -1 -10  -5   32.47    1.88
   1 -10   5   28.45    1.80
  -1 -10  -5   29.55    1.99
  -1 -10  -5   29.24    1.89
   1  10   5   27.79    2.08
  -1  10  -5   28.73    1.78
  -1  10  -5   27.91    1.82
   1  10   5   28.94    1.79
   1  10   5   29.66    1.76
  -2 -10  -5    3.60    0.73
  -2 -10  -5    3.16    0.76
   2 -10   5    3.25    0.66
   2 -10   5    4.66    0.71
  -2 -10  -5    4.33    0.65
  -2 -10  -5    3.77    0.84
   2  10   5    3.38    0.56
  -2  10  -5    4.89    0.65
   2  10   5    3.22    0.57
   2  10   5    4.83    1.01
  -2  10  -5    4.11    0.64
   3 -11  -5   10.89    1.44
  -3 -11   5    9.40    1.11
   3 -11  -5   11.85    1.36
   3 -11  -5    9.38    0.89
   3 -11  -5    8.96    1.18
   3  11  -5    9.30    1.03
   3  11  -5   11.82    1.40
   2 -11  -5    0.99    0.62
  -2 -11   5    2.05    0.57
   2 -11  -5    2.01    0.75
   2 -11  -5    1.35    0.57
   2 -11  -5    2.69    0.60
  -2 -11   5    1.35    0.67
  -2  11   5    0.84    0.54
  -2  11   5    0.81    0.66
   2  11  -5    2.01    0.50
   2  11  -5    1.69    0.86
  -2  11   5    1.88    0.45
  -1 -11   5    3.93    0.62
   1 -11  -5    4.40    0.83
   1 -11  -5    3.71    0.67
   1 -11  -5    4.57    0.73
  -1 -11   5    4.38    0.71
   1 -11  -5    3.37    0.60
  -1  11   5    5.73    0.79
   1  11  -5    5.67    0.96
  -1  11   5    4.43    0.79
  -1  11   5    5.28    0.64
   1  11  -5    5.07    0.61
   0 -11  -5    4.99    0.81
   0 -11  -5    4.45    0.67
   0 -11   5    4.14    0.64
   0 -11  -5    5.05    0.83
   0 -11  -5    3.61    0.63
   0 -11   5    4.54    0.73
   0  11  -5    5.22    0.68
   0  11   5    5.15    0.88
   0  11  -5    4.76    0.85
   0  11   5    5.08    0.66
   0  11   5    4.25    0.66
   1 -11   5    3.42    0.72
  -1 -11  -5    3.95    0.81
  -1 -11  -5    2.60    0.61
  -1 -11  -5    3.05    0.66
  -1 -11  -5    2.99    0.89
   1 -11   5    3.73    0.65
   1  11   5    3.80    0.58
  -1  11  -5    3.33    0.64
   1  11   5    2.42    0.60
  -1  11  -5    2.61    0.74
   1  11   5    4.41    0.97
   7   0  -6   13.64    1.13
   7   0  -6   12.66    1.22
  -7   0   6   11.45    1.11
   7   0  -6   13.23    1.24
  -6   0   6    1.31    0.52
   6   0  -6    1.08    0.34
  -6   0   6    1.18    0.44
   6   0  -6    1.15    0.47
   6   0  -6    0.48    0.35
  -5   0   6  101.66    5.05
  -5   0   6  100.55    4.93
   5   0  -6  101.84    5.03
   5   0  -6  104.74    5.07
  -4   0   6   43.94    2.36
   4   0  -6   43.69    2.36
  -4   0   6   46.39    2.32
  -3   0   6    3.06    0.41
  -3   0   6    2.94    0.45
   3   0  -6    3.28    0.44
   3   0  -6    2.69    0.42
  -2   0   6   83.26    3.92
   2   0  -6   79.43    3.92
   2   0  -6   86.77    4.03
  -2   0   6   74.77    4.00
   1   0  -6   63.84    3.12
   1   0  -6   63.14    3.23
  -1   0   6   67.13    3.13
  -1   0   6   60.81    3.22
   0   0  -6   42.13    2.12
   0   0   6   42.33    2.11
   0   0  -6   39.94    2.20
   0   0   6   42.33    2.22
  -1   0  -6   58.82    2.91
  -1   0  -6   52.45    3.07
   1   0   6   56.17    2.74
  -1   0  -6   54.56    2.75
   1   0   6   58.31    2.91
  -2   0  -6   51.85    2.68
   2   0   6   50.32    2.50
  -2   0  -6   50.48    2.85
  -2   0  -6   50.94    2.50
   2   0   6   50.25    2.68
   3   0   6   41.24    2.50
   3   0   6   40.18    2.27
  -3   0  -6   43.81    2.28
   3   0   6   39.85    2.05
  -3   0  -6   42.19    2.43
  -4   0  -6    4.93    0.65
  -4   0  -6    5.76    0.76
   4   0   6    4.61    0.56
   4   0   6    4.07    0.68
   5   0   6   20.54    1.50
  -5   0  -6   22.20    1.43
  -5   0  -6   20.67    1.56
   5   0   6   20.04    1.63
   5   0   6   22.75    1.66
   7  -1  -6    1.63    0.54
  -7  -1   6    1.22    0.57
   7  -1  -6    0.49    0.48
   7  -1  -6    1.11    0.50
   7   1  -6    1.47    0.46
  -7   1   6    1.21    0.54
   7   1  -6    0.85    0.60
   7   1  -6    1.27    0.50
  -6  -1   6   21.99    1.49
  -6  -1   6   24.01    1.62
   6  -1  -6   23.28    1.64
   6  -1  -6   23.18    1.50
   6  -1  -6   21.20    1.42
   6   1  -6   24.52    1.45
   6   1  -6   27.42    1.60
  -6   1   6   24.78    1.53
  -6   1   6   24.97    1.49
   6   1  -6   25.74    1.65
  -5  -1   6  121.07    5.42
   5  -1  -6  112.90    5.50
   5  -1  -6  117.51    5.49
  -5  -1   6  117.55    5.56
  -5   1   6  109.64    5.37
  -5   1   6  106.01    5.47
   5   1  -6  102.94    5.50
   5   1  -6  109.47    5.54
  -4  -1   6   62.56    2.95
   4  -1  -6   60.53    2.93
  -4  -1   6   61.21    3.01
   4  -1  -6   59.62    2.96
  -4   1   6   53.98    2.89
   4   1  -6   56.40    2.98
  -4   1   6   55.55    2.94
   4   1  -6   53.25    2.94
   3  -1  -6  157.07    7.63
  -3  -1   6  161.07    7.84
   3  -1  -6  161.45    7.82
  -3  -1   6  165.41    7.65
  -3   1   6  166.36    7.64
   3   1  -6  167.97    7.85
  -3   1   6  159.74    7.59
  -3   1   6  162.92    7.82
  -2  -1   6  166.32    7.82
   2  -1  -6  159.86    7.81
   2  -1  -6  164.77    7.62
  -2  -1   6  168.43    7.62
  -2   1   6  159.59    7.60
   2   1  -6  164.90    7.82
  -2   1   6  162.85    7.80
  -2   1   6  152.49    7.61
  -1  -1   6    8.09    0.71
  -1  -1   6    7.37    0.61
   1  -1  -6    7.34    0.69
   1  -1  -6    7.39    0.63
   1   1  -6    8.73    0.71
  -1   1   6    8.85    0.71
  -1   1   6    8.68    0.62
   0  -1   6  144.75    6.86
   0  -1  -6  141.44    7.09
   0  -1  -6  138.83    6.86
   0  -1   6  149.10    7.10
   0   1  -6  144.51    7.10
   0   1   6  155.74    6.87
   0   1   6  151.01    7.11
   0   1  -6  147.14    7.54
  -1  -1  -6  107.20    5.83
   1  -1   6  117.13    5.49
  -1  -1  -6  108.62    5.27
   1  -1   6  109.90    5.25
  -1  -1  -6  102.88    5.47
  -1   1  -6  114.29    5.48
   1   1   6  117.11    5.51
   1   1   6  113.39    5.27
  -1   1  -6  113.16    5.83
  -2  -1  -6    2.02    0.38
  -2  -1  -6    2.32    0.36
  -2  -1  -6    1.81    0.39
   2  -1   6    2.86    0.40
   2  -1   6    2.66    0.36
   2   1   6    2.05    0.40
   2   1   6    1.98    0.34
  -2   1  -6    2.68    0.42
  -2   1  -6    1.89    0.35
  -3  -1  -6   54.49    2.97
   3  -1   6   53.36    3.01
   3  -1   6   53.10    2.77
  -3  -1  -6   56.22    2.80
  -3  -1  -6   55.00    2.55
   3  -1   6   53.93    2.52
   3   1   6   47.17    2.75
  -3   1  -6   49.79    2.74
   3   1   6   48.53    2.98
   3   1   6   48.62    2.71
  -3   1  -6   49.53    2.92
   4  -1   6   20.09    1.58
   4  -1   6   18.43    1.33
  -4  -1  -6   17.38    1.44
  -4  -1  -6   18.56    1.34
   4   1   6   21.37    1.45
  -4   1  -6   22.62    1.51
  -4   1  -6   23.09    1.34
   4   1   6   23.33    1.58
   4   1   6   22.31    1.41
  -5  -1  -6    3.74    0.52
  -5  -1  -6    3.85    0.61
   5  -1   6    3.57    0.58
   5  -1   6    3.12    0.68
  -5   1  -6    3.21    0.58
   5   1   6    4.49    0.67
  -5   1  -6    3.77    0.54
   5   1   6    3.44    0.78
   5   1   6    3.26    0.58
   7  -2  -6   10.34    1.05
   7  -2  -6   10.82    1.19
  -7  -2   6   10.36    1.18
   7   2  -6    9.86    1.28
   7   2  -6   11.06    1.28
  -7   2   6   10.68    1.10
   7   2  -6   11.11    0.99
   6  -2  -6    9.47    0.85
  -6  -2   6    9.65    1.00
   6  -2  -6   10.02    0.91
  -6  -2   6   10.77    1.16
  -6   2   6    9.06    0.90
   6   2  -6    9.59    1.04
   6   2  -6   10.88    1.06
  -6   2   6    9.69    0.92
   6   2  -6    9.44    0.87
   5  -2  -6   12.55    0.97
   5  -2  -6   11.29    1.01
  -5  -2   6   12.27    1.03
  -5  -2   6   12.88    1.12
   5  -2  -6   12.77    0.91
   5   2  -6   14.41    0.97
   5   2  -6   15.37    1.10
  -5   2   6   15.89    1.02
  -5   2   6   15.50    0.99
   4  -2  -6   59.73    3.17
  -4  -2   6   59.72    3.15
  -4  -2   6   58.24    3.01
  -4  -2   6   61.24    3.25
   4  -2  -6   56.50    3.14
   4   2  -6   68.01    3.24
  -4   2   6   68.13    3.16
  -4   2   6   68.92    3.19
   4   2  -6   68.52    3.28
  -3  -2   6   13.69    0.99
   3  -2  -6   13.40    0.93
  -3  -2   6   15.35    0.92
   3  -2  -6   14.58    0.94
  -3   2   6   12.63    0.90
   3   2  -6   12.04    0.95
  -3   2   6   12.87    0.88
  -3   2   6   13.85    0.79
   2  -2  -6   74.94    3.84
  -2  -2   6   79.04    3.95
   2  -2  -6   84.22    3.94
  -2  -2   6   83.66    3.85
   2   2  -6   78.24    3.94
  -2   2   6   75.53    3.91
  -2   2   6   75.77    3.82
  -2   2   6   80.91    3.80
  -1  -2   6  249.60   10.66
   1  -2  -6  238.23   10.66
   1  -2  -6  239.25   10.96
  -1  -2   6  236.00   10.96
  -1   2   6  227.18   10.74
  -1   2   6  224.91   10.95
  -1   2   6  206.02   10.62
   1   2  -6  215.17   10.94
   0  -2  -6   18.20    1.16
   0  -2   6   16.20    1.09
   0  -2   6   18.45    1.06
   0  -2  -6   18.38    1.19
   0  -2  -6   16.61    1.06
   0   2   6   18.30    1.05
   0   2   6   17.74    1.16
   0   2  -6   18.41    1.12
   0   2   6   17.32    1.06
   0   2  -6   17.98    1.17
   1  -2   6   13.14    0.84
  -1  -2  -6   12.50    0.91
  -1  -2  -6   12.39    0.82
  -1  -2  -6   13.57    1.02
   1  -2   6   11.94    0.80
   1   2   6   10.93    0.90
   1   2   6   10.35    0.77
  -1   2  -6    9.61    0.79
   1   2   6   10.37    0.80
  -1   2  -6    9.72    0.96
   2  -2   6   92.35    4.35
   2  -2   6   93.55    4.58
  -2  -2  -6   89.52    4.89
  -2  -2  -6   88.86    4.38
  -2  -2  -6   89.70    4.61
   2   2   6   94.26    4.62
   2   2   6   88.82    4.51
  -2   2  -6   91.32    4.58
  -2   2  -6   96.58    4.90
   2   2   6   92.66    4.37
   3  -2   6   21.34    1.16
  -3  -2  -6   22.12    1.39
   3  -2   6   21.10    1.32
  -3  -2  -6   21.13    1.22
  -3  -2  -6   22.57    1.44
   3  -2   6   19.95    1.51
  -3   2  -6   20.21    1.45
   3   2   6   20.76    1.33
  -3   2  -6   20.72    1.31
   3   2   6   20.44    1.38
   4  -2   6   10.83    1.16
  -4  -2  -6   10.36    0.74
  -4  -2  -6   10.51    0.92
   4  -2   6   10.89    0.87
  -4  -2  -6    8.70    0.92
   4   2   6    8.38    0.96
   4   2   6    8.79    0.97
   4   2   6    8.81    1.00
  -4   2  -6    7.23    0.78
  -4   2  -6    8.01    1.04
  -5  -2  -6   27.20    1.68
  -5  -2  -6   24.26    1.78
   5  -2   6   24.85    1.94
   5  -2   6   24.04    1.69
   5   2   6   24.26    1.85
   5   2   6   25.72    1.73
  -5   2  -6   24.90    1.88
  -5   2  -6   27.04    1.63
   5   2   6   27.51    1.88
   7  -3  -6    5.23    0.66
   7  -3  -6    6.00    0.85
  -7  -3   6    5.13    0.82
   7  -3  -6    5.57    0.70
   7   3  -6    6.18    0.93
   7   3  -6    5.69    0.93
  -7   3   6    4.84    0.71
   7   3  -6    6.14    0.69
   6  -3  -6   91.74    4.91
   6  -3  -6   87.84    4.41
  -6  -3   6   91.62    4.64
  -6  -3   6   91.12    4.45
   6  -3  -6   87.35    4.42
   6  -3  -6   87.74    4.41
  -6   3   6   79.05    4.35
   6   3  -6   89.98    4.60
   6   3  -6   95.20    4.56
   6   3  -6   92.72    4.91
  -5  -3   6    8.28    0.86
   5  -3  -6    8.30    0.86
  -5  -3   6    8.83    0.57
   5  -3  -6    8.51    0.81
  -5  -3   6    8.39    0.99
   5  -3  -6    8.38    0.69
   5   3  -6    6.13    0.72
  -5   3   6    5.72    0.77
   4  -3  -6    2.56    0.42
  -4  -3   6    2.33    0.50
  -4  -3   6    2.53    0.33
   4  -3  -6    2.65    0.47
  -4  -3   6    2.56    0.41
   4   3  -6    2.85    0.42
  -4   3   6    3.40    0.43
   4   3  -6    3.27    0.52
  -4   3   6    3.17    0.45
  -4   3   6    3.16    0.36
  -3  -3   6  106.21    5.01
   3  -3  -6  107.47    5.11
   3  -3  -6  106.62    5.04
  -3  -3   6  104.09    5.17
  -3   3   6  100.68    5.00
  -3   3   6  105.01    4.95
  -3   3   6  103.58    5.09
   3   3  -6  102.93    5.17
  -2  -3   6   38.53    1.94
   2  -3  -6   40.33    1.91
   2  -3  -6   40.46    1.89
  -2  -3   6   37.91    1.86
  -2   3   6   32.04    1.82
  -2   3   6   32.00    1.79
  -2   3   6   29.30    1.86
   2   3  -6   30.42    1.89
  -1  -3   6    3.94    0.46
   1  -3  -6    4.09    0.50
   1  -3  -6    4.43    0.50
  -1  -3   6    4.33    0.53
   1   3  -6    4.66    0.51
  -1   3   6    4.46    0.47
  -1   3   6    5.26    0.64
  -1   3   6    4.31    0.50
   0  -3   6   48.15    2.36
   0  -3   6   45.46    2.44
   0  -3  -6   48.21    2.37
   0  -3  -6   48.85    2.47
   0  -3  -6   48.78    2.63
   0   3   6   46.43    2.47
   0   3  -6   45.55    2.58
   0   3   6   45.74    2.40
   0   3   6   46.26    2.35
   0   3  -6   43.58    2.43
   1  -3   6   51.20    2.68
  -1  -3  -6   47.90    2.98
  -1  -3  -6   51.77    2.69
   1  -3   6   50.28    2.78
  -1  -3  -6   52.80    2.85
  -1   3  -6   58.99    3.00
   1   3   6   55.01    2.78
   1   3   6   56.14    2.86
   1   3   6   59.96    2.72
  -1   3  -6   58.19    2.82
  -2  -3  -6    4.09    0.49
  -2  -3  -6    4.05    0.57
   2  -3   6    3.85    0.45
  -2  -3  -6    3.03    0.52
   2  -3   6    3.50    0.45
   2   3   6    4.40    0.60
  -2   3  -6    4.78    0.55
  -2   3  -6    3.84    0.51
   2   3   6    3.72    0.47
  -3  -3  -6   22.37    1.40
  -3  -3  -6   22.83    1.44
   3  -3   6   21.60    1.27
  -3  -3  -6   20.89    1.22
   3  -3   6   21.92    1.14
   3   3   6   16.81    1.28
  -3   3  -6   16.34    1.38
  -3   3  -6   16.69    1.21
  -4  -3  -6   50.72    2.49
  -4  -3  -6   49.08    2.90
  -4  -3  -6   51.18    2.76
   4  -3   6   48.69    2.66
   4  -3   6   51.09    2.97
  -4   3  -6   48.16    2.63
   4   3   6   46.82    2.78
   4   3   6   47.19    2.92
   4   3   6   49.09    2.73
  -4   3  -6   50.26    2.94
   5  -3   6    0.74    0.54
  -5  -3  -6    0.00    0.50
  -5  -3  -6    0.06    0.36
  -5  -3  -6    0.81    0.56
   5  -3   6    0.66    0.71
   5   3   6   -0.02    0.51
  -5   3  -6    0.12    0.62
   5   3   6    0.18    0.64
   5   3   6   -0.28    0.59
  -5   3  -6   -0.10    0.43
   7  -4  -6    4.24    0.65
   7  -4  -6    4.56    0.74
   7  -4  -6    3.06    0.55
   7  -4  -6    3.60    0.83
  -7  -4   6    4.34    0.84
   7   4  -6    4.23    0.66
   7   4  -6    3.45    0.86
   7   4  -6    3.90    0.82
   6  -4  -6    4.10    0.52
   6  -4  -6    4.94    0.70
  -6  -4   6    4.54    0.54
   6  -4  -6    4.52    0.57
  -6  -4   6    3.80    0.79
  -6  -4   6    4.38    0.70
   6  -4  -6    3.94    0.67
  -6   4   6    5.24    0.64
   6   4  -6    4.23    0.62
   6   4  -6    4.14    0.76
   6   4  -6    4.36    0.74
  -5  -4   6   20.65    1.42
   5  -4  -6   22.32    1.36
   5  -4  -6   21.62    1.28
  -5  -4   6   23.37    1.61
  -5  -4   6   23.11    1.26
   5  -4  -6   23.69    1.49
  -5   4   6   23.49    1.28
  -5   4   6   21.43    1.40
   5   4  -6   23.22    1.54
   5   4  -6   22.77    1.47
   4  -4  -6   43.03    2.41
  -4  -4   6   45.59    2.31
  -4  -4   6   40.47    2.37
  -4  -4   6   44.77    2.51
   4  -4  -6   46.15    2.38
  -4   4   6   47.44    2.39
   4   4  -6   47.15    2.49
   4   4  -6   47.75    2.51
  -4   4   6   48.63    2.26
   3  -4  -6   19.31    1.28
   3  -4  -6   19.72    1.24
  -3  -4   6   19.15    1.23
  -3  -4   6   19.10    1.34
  -3   4   6   23.55    1.19
  -3   4   6   21.76    1.25
   3   4  -6   23.50    1.36
   3   4  -6   21.79    1.35
  -3   4   6   22.19    1.25
  -2  -4   6   25.96    1.51
   2  -4  -6   24.85    1.44
   2  -4  -6   23.82    1.44
  -2  -4   6   24.79    1.42
  -2   4   6   25.38    1.40
   2   4  -6   27.08    1.52
  -2   4   6   25.31    1.46
  -2   4   6   26.66    1.43
   1  -4  -6   68.21    3.37
  -1  -4   6   70.60    3.29
  -1  -4   6   67.59    3.38
   1  -4  -6   64.57    3.29
  -1   4   6   67.94    3.29
  -1   4   6   65.60    3.30
  -1   4   6   66.14    3.38
   1   4  -6   62.81    3.36
   0  -4   6   84.20    4.13
   0  -4  -6   84.41    4.15
   0  -4   6   82.38    4.25
   0  -4  -6   86.81    4.57
   0  -4  -6   80.25    4.28
   0   4  -6   84.18    4.26
   0   4   6   89.09    4.15
   0   4  -6   87.26    4.51
   0   4   6   87.55    4.30
   0   4   6   91.11    4.22
   1  -4   6    5.29    0.60
  -1  -4  -6    5.14    0.63
  -1  -4  -6    5.45    0.74
   1  -4   6    6.09    0.62
  -1  -4  -6    3.93    0.58
  -1   4  -6    7.61    0.63
   1   4   6    7.13    0.78
   1   4   6    6.39    0.59
  -1   4  -6    7.84    0.80
   2  -4   6   64.61    3.18
  -2  -4  -6   68.31    3.23
  -2  -4  -6   64.80    3.41
   2  -4   6   62.74    3.30
  -2  -4  -6   68.65    3.64
   2   4   6   63.48    3.42
   2   4   6   61.32    3.29
  -2   4  -6   63.37    3.31
  -2   4  -6   66.11    3.55
  -3  -4  -6   11.22    1.03
   3  -4   6   10.36    0.88
  -3  -4  -6   10.29    0.87
   3  -4   6   10.95    0.83
  -3  -4  -6   10.66    1.05
  -3   4  -6   11.93    1.07
   3   4   6   11.83    1.14
  -3   4  -6   11.00    0.87
   3   4   6   12.08    0.97
   4  -4   6    0.34    0.28
  -4  -4  -6    0.34    0.45
   4  -4   6   -0.18    0.41
  -4  -4  -6   -0.29    0.40
  -4  -4  -6   -0.34    0.47
   4  -4   6    0.12    0.60
  -4   4  -6    0.40    0.51
  -4   4  -6    0.47    0.36
   4   4   6    0.09    0.58
   4   4   6    0.39    0.51
  -5  -4  -6   14.34    1.39
   5  -4   6   13.35    1.32
  -5  -4  -6   14.51    1.52
  -5  -4  -6   14.08    1.06
   5  -4   6   15.08    1.72
  -5   4  -6   12.94    1.14
  -5   4  -6   11.14    1.54
   5   4   6   14.06    1.52
   5   4   6   10.13    1.23
   5   4   6   14.81    1.50
   7  -5  -6   10.34    1.27
   7  -5  -6   10.73    1.33
  -7  -5   6   11.73    1.48
   7   5  -6   14.34    1.59
   7   5  -6   12.88    1.65
   7   5  -6   13.56    1.39
  -6  -5   6   15.55    1.03
   6  -5  -6   15.10    1.31
  -6  -5   6   15.99    1.59
   6  -5  -6   14.26    0.96
   6  -5  -6   15.25    1.04
   6  -5  -6   15.17    1.43
  -6  -5   6   15.71    1.31
   6   5  -6   13.47    1.44
   6   5  -6   14.81    1.36
   6   5  -6   13.24    1.44
  -5  -5   6   22.00    1.31
  -5  -5   6   20.49    1.44
   5  -5  -6   23.33    1.30
  -5  -5   6   20.11    1.62
   5  -5  -6   23.52    1.51
   5  -5  -6   22.57    1.24
   5   5  -6   21.45    1.55
  -5   5   6   21.70    1.22
  -5   5   6   22.90    1.43
   5   5  -6   22.32    1.59
   5   5  -6   20.44    1.49
  -4  -5   6   10.03    0.86
   4  -5  -6   10.55    0.83
   4  -5  -6   10.13    0.96
  -4  -5   6    9.75    1.09
  -4   5   6   12.73    0.97
   4   5  -6   12.69    1.04
   4   5  -6   12.02    1.05
  -4   5   6   12.99    0.82
  -4   5   6   12.83    0.81
  -3  -5   6    6.93    0.70
   3  -5  -6    7.15    0.67
  -3  -5   6    6.76    0.79
   3  -5  -6    7.02    0.72
  -3   5   6    7.35    0.66
   3   5  -6    6.63    0.81
  -3   5   6    6.51    0.63
   3   5  -6    7.44    0.77
   2  -5  -6   48.72    2.54
   2  -5  -6   53.05    2.53
   2  -5  -6   48.01    2.53
  -2  -5   6   48.07    2.60
  -2   5   6   48.00    2.51
  -2   5   6   47.78    2.54
  -2   5   6   48.56    2.50
   2   5  -6   51.17    2.61
   1  -5  -6    6.09    0.68
  -1  -5   6    5.21    0.59
   1  -5  -6    5.27    0.59
  -1   5   6    5.41    0.72
  -1   5   6    6.35    0.60
  -1   5   6    6.36    0.56
   1   5  -6    5.32    0.59
   0  -5   6   52.42    2.66
   0  -5  -6   53.26    2.71
   0  -5  -6   48.62    2.59
   0  -5  -6   51.58    2.87
   0   5   6   51.63    2.70
   0   5  -6   48.10    2.79
   0   5  -6   49.40    2.64
   0   5   6   51.84    2.63
   1  -5   6   25.36    1.43
  -1  -5  -6   24.44    1.61
  -1  -5  -6   25.37    1.45
  -1  -5  -6   26.82    1.56
   1   5   6   22.27    1.42
   1   5   6   24.35    1.55
  -1   5  -6   24.33    1.56
  -1   5  -6   22.32    1.42
   2  -5   6    3.52    0.45
  -2  -5  -6    3.53    0.52
  -2  -5  -6    3.66    0.61
  -2  -5  -6    3.69    0.60
   2  -5   6    3.86    0.50
   2   5   6    3.63    0.48
   2   5   6    2.83    0.57
  -2   5  -6    4.15    0.55
  -2   5  -6    3.74    0.54
   3  -5   6   48.01    2.62
  -3  -5  -6   45.97    2.75
  -3  -5  -6   48.99    2.56
   3  -5   6   49.04    2.48
  -3  -5  -6   50.68    2.91
  -3   5  -6   49.03    2.60
  -3   5  -6   49.58    2.86
   3   5   6   51.30    2.69
   3   5   6   49.20    2.81
   4  -5   6   14.50    1.23
  -4  -5  -6   15.75    1.17
  -4  -5  -6   15.79    1.42
   4  -5   6   15.36    0.99
  -4  -5  -6   13.30    1.44
   4  -5   6   15.72    1.60
  -4   5  -6   14.14    1.12
   4   5   6   14.93    1.35
   4   5   6   14.55    1.51
  -4   5  -6   14.40    1.40
   5  -5   6    3.87    0.97
   5  -5   6    4.01    0.80
  -5  -5  -6    3.64    0.82
  -5   5  -6    3.99    0.65
   5   5   6    3.96    0.97
   5   5   6    3.24    0.99
  -6  -6   6    1.45    0.81
   6  -6  -6    1.71    0.65
   6  -6  -6    1.67    0.68
  -6  -6   6    1.60    0.66
  -6  -6   6    1.62    0.51
   6   6  -6    2.11    0.76
   6   6  -6    1.33    0.68
   6   6  -6    1.65    0.72
   5  -6  -6   29.76    1.51
   5  -6  -6   27.82    1.49
   5  -6  -6   28.57    1.55
  -5  -6   6   31.63    2.00
   5  -6  -6   29.18    1.80
  -5  -6   6   29.69    1.66
   5   6  -6   28.04    1.89
   5   6  -6   24.98    1.88
   5   6  -6   24.74    1.86
   4  -6  -6   19.35    1.15
   4  -6  -6   20.85    1.22
  -4  -6   6   18.56    1.44
   4  -6  -6   18.19    1.31
  -4  -6   6   18.29    1.25
   4   6  -6   20.28    1.40
  -4   6   6   19.88    1.12
  -4   6   6   20.37    1.20
   4   6  -6   19.08    1.45
   3  -6  -6    0.86    0.35
   3  -6  -6    1.77    0.42
   3  -6  -6    2.01    0.39
  -3  -6   6    1.97    0.42
  -3  -6   6    0.78    0.41
   3   6  -6    2.42    0.53
   3   6  -6    2.44    0.49
  -3   6   6    2.53    0.41
   2  -6  -6   23.28    1.35
   2  -6  -6   21.83    1.34
   2  -6  -6   22.00    1.37
  -2  -6   6   21.12    1.40
  -2   6   6   22.86    1.37
   2   6  -6   22.77    1.39
   2   6  -6   23.07    1.47
  -2   6   6   23.10    1.35
   1  -6  -6   65.86    3.43
   1  -6  -6   64.28    3.45
   1  -6  -6   59.64    3.37
  -1  -6   6   61.55    3.45
   1   6  -6   75.40    3.50
   1   6  -6   72.37    3.62
  -1   6   6   70.61    3.48
  -1   6   6   74.98    3.44
   0  -6  -6    4.19    0.56
   0  -6  -6    3.14    0.49
   0  -6  -6    3.13    0.46
   0  -6   6    3.44    0.44
   0  -6  -6    2.95    0.55
   0   6   6    2.22    0.50
   0   6  -6    2.76    0.41
   0   6   6    2.59    0.40
  -1  -6  -6    2.21    0.52
  -1  -6  -6    2.46    0.55
   1  -6   6    2.71    0.40
  -1  -6  -6    3.10    0.49
   1   6   6    2.99    0.43
   1   6   6    2.73    0.57
  -1   6  -6    2.77    0.46
  -1   6  -6    2.60    0.40
  -2  -6  -6   20.06    1.29
   2  -6   6   18.64    1.21
  -2  -6  -6   20.87    1.49
  -2  -6  -6   19.53    1.39
   2   6   6   18.58    1.22
  -2   6  -6   16.69    1.29
  -2   6  -6   16.74    1.18
   2   6   6   16.59    1.43
  -3  -6  -6   26.70    1.70
   3  -6   6   25.60    1.69
   3  -6   6   28.32    1.61
  -3  -6  -6   27.78    1.88
  -3  -6  -6   27.61    1.93
   3   6   6   29.66    1.99
  -3   6  -6   26.20    1.65
  -3   6  -6   28.51    1.84
   3   6   6   30.53    1.76
   4  -6   6    1.61    0.61
  -4  -6  -6    2.06    0.74
   4  -6   6    1.91    0.50
  -4  -6  -6    1.78    0.73
  -4  -6  -6    2.33    0.62
  -4   6  -6    1.85    0.70
   4   6   6    1.21    0.63
   4   6   6    2.07    0.85
  -4   6  -6    1.99    0.51
  -6  -7   6    5.39    0.76
  -6  -7   6    2.94    0.77
   6  -7  -6    4.30    0.86
   6  -7  -6    3.94    0.89
   6   7  -6    4.69    0.94
   6   7  -6    4.06    0.83
   6   7  -6    4.60    0.98
   5  -7  -6   14.85    1.08
  -5  -7   6   13.65    1.54
  -5  -7   6   14.87    1.18
   5  -7  -6   13.29    1.31
   5   7  -6   14.02    1.33
   5   7  -6   14.67    1.41
   5   7  -6   14.31    1.52
  -4  -7   6    4.37    0.74
   4  -7  -6    4.62    0.72
   4  -7  -6    5.96    0.78
   4  -7  -6    5.18    0.59
  -4  -7   6    5.59    0.69
   4   7  -6    6.12    0.84
   4   7  -6    5.41    0.67
   4   7  -6    5.71    0.73
  -4   7   6    5.32    0.54
   3  -7  -6   14.89    1.25
  -3  -7   6   15.51    1.29
   3  -7  -6   16.84    1.22
  -3  -7   6   17.18    1.26
   3  -7  -6   16.30    1.13
   3   7  -6   21.70    1.33
  -3   7   6   21.46    1.24
  -3   7   6   20.25    1.14
   3   7  -6   20.47    1.43
   2  -7  -6   15.83    1.05
   2  -7  -6   15.48    1.06
  -2  -7   6   13.81    1.04
  -2  -7   6   14.95    1.11
   2  -7  -6   16.27    1.13
  -2   7   6   14.49    1.07
   2   7  -6   13.98    1.20
   2   7  -6   13.40    1.02
  -2   7   6   14.52    1.06
  -1  -7   6   16.59    1.10
   1  -7  -6   15.55    1.13
   1  -7  -6   18.07    1.20
   1  -7  -6   17.03    1.11
  -1   7   6   15.37    1.19
   1   7  -6   15.24    1.22
   1   7  -6   17.05    1.11
   1   7  -6   15.47    1.11
  -1   7   6   16.91    1.14
   0  -7  -6   46.45    2.44
   0  -7   6   43.33    2.38
   0  -7  -6   46.21    2.62
   0  -7  -6   46.18    2.46
   0  -7  -6   42.80    2.37
   0   7  -6   38.33    2.35
   0   7  -6   47.53    2.47
   0   7   6   45.84    2.48
   0   7   6   44.28    2.40
   1  -7   6   12.68    1.01
  -1  -7  -6   14.45    1.29
  -1  -7  -6   14.90    1.13
  -1  -7  -6   14.01    1.20
  -1   7  -6   15.13    1.09
   1   7   6   16.60    1.08
   1   7   6   16.15    1.29
  -1   7  -6   15.26    1.04
  -2  -7  -6    7.11    0.80
  -2  -7  -6    7.67    0.91
   2  -7   6    6.71    0.83
  -2  -7  -6    8.21    1.06
  -2   7  -6    6.32    0.86
   2   7   6    6.73    0.91
   2   7   6    8.20    0.80
  -2   7  -6    7.90    0.77
   3  -7   6   20.33    1.40
   3  -7   6   20.15    1.44
  -3  -7  -6   21.31    1.52
  -3  -7  -6   21.02    1.67
  -3  -7  -6   20.99    1.70
   3   7   6   22.65    1.49
  -3   7  -6   19.72    1.38
   3   7   6   22.66    1.82
  -3   7  -6   21.75    1.59
  -4  -7  -6   12.10    1.31
  -4  -7  -6   14.28    1.59
   4  -7   6   11.77    1.14
  -4  -7  -6   13.87    1.64
   4  -7   6   13.44    1.30
  -4   7  -6   14.35    1.57
   4   7   6   14.06    1.81
   4   7   6   13.53    1.51
  -4   7  -6   14.12    1.15
   5  -8  -6   10.42    1.07
  -5  -8   6   11.12    1.21
   5  -8  -6    9.83    1.24
  -5  -8   6    9.71    1.19
   5   8  -6   11.67    1.31
   5   8  -6   10.06    1.22
   5   8  -6    9.80    1.32
   4  -8  -6   25.27    1.59
   4  -8  -6   23.36    1.66
   4  -8  -6   24.13    1.34
  -4  -8   6   24.84    1.82
  -4  -8   6   23.59    1.64
   4   8  -6   25.61    1.65
   4   8  -6   23.08    1.84
   4   8  -6   26.42    1.72
   3  -8  -6    4.26    0.51
  -3  -8   6    4.16    0.67
   3  -8  -6    4.08    0.65
   3  -8  -6    4.91    0.66
  -3  -8   6    3.51    0.62
  -3   8   6    4.61    0.64
   3   8  -6    4.05    0.54
   3   8  -6    4.69    0.65
  -3   8   6    4.09    0.50
   3   8  -6    3.79    0.77
   2  -8  -6    2.37    0.55
  -2  -8   6    2.33    0.53
  -2  -8   6    2.25    0.42
   2  -8  -6    2.28    0.46
   2  -8  -6    2.36    0.47
  -2   8   6    3.67    0.56
   2   8  -6    3.27    0.68
   2   8  -6    4.13    0.49
   1  -8  -6   46.97    2.65
  -1  -8   6   45.53    2.46
   1  -8  -6   46.21    2.44
  -1  -8   6   47.00    2.48
   1  -8  -6   46.14    2.46
   1  -8  -6   39.30    2.47
   1   8  -6   43.68    2.53
  -1   8   6   44.69    2.49
  -1   8   6   45.09    2.46
   1   8  -6   46.22    2.46
   1   8  -6   45.96    2.48
   0  -8  -6    4.27    0.71
   0  -8  -6    4.00    0.53
   0  -8  -6    4.76    0.66
   0  -8   6    4.53    0.52
   0  -8  -6    4.53    0.64
   0   8  -6    4.57    0.61
   0   8  -6    3.54    0.61
   0   8   6    3.30    0.51
   0   8   6    3.93    0.66
   0   8  -6    3.15    0.46
  -1  -8  -6    6.90    0.85
   1  -8   6    8.90    0.85
  -1  -8  -6    8.25    0.95
  -1  -8  -6    6.45    0.81
  -1  -8  -6    7.14    0.85
  -1   8  -6    7.07    0.95
  -1   8  -6    7.22    0.78
   1   8   6    7.73    0.91
  -1   8  -6    7.72    0.81
   1   8   6    7.04    0.79
  -2  -8  -6   26.13    1.85
  -2  -8  -6   25.04    1.72
  -2  -8  -6   25.83    1.89
   2  -8   6   26.68    1.67
   2   8   6   26.13    1.98
  -2   8  -6   26.91    1.63
  -2   8  -6   25.84    1.68
   2   8   6   27.29    1.67
   3  -8   6    8.41    1.08
  -3  -8  -6    8.59    1.11
  -3  -8  -6    7.51    1.01
  -3  -8  -6   10.54    1.20
  -3   8  -6    7.93    0.94
   3   8   6    7.59    1.15
   3   8   6    8.31    1.06
  -3   8  -6    7.18    0.89
  -5  -9   6    1.95    0.97
   5  -9  -6    2.69    0.70
  -5  -9   6    1.65    0.79
   5  -9  -6    1.66    0.77
   5  -9  -6    1.66    0.77
   5   9  -6    1.05    0.66
   5   9  -6    0.15    0.73
   5   9  -6    1.62    0.98
   4  -9  -6    3.22    0.74
  -4  -9   6    2.02    0.67
   4  -9  -6    3.04    0.71
  -4  -9   6    3.57    0.80
   4   9  -6    2.05    0.61
   4   9  -6    3.24    0.58
   4   9  -6    2.11    0.86
   3  -9  -6   29.60    1.85
   3  -9  -6   28.90    1.84
  -3  -9   6   27.61    1.84
  -3  -9   6   28.40    1.85
   3  -9  -6   28.41    1.60
   3   9  -6   28.32    1.78
  -3   9   6   28.66    1.80
  -3   9   6   27.56    1.58
   3   9  -6   27.43    1.66
   3   9  -6   24.34    1.99
   2  -9  -6    2.79    0.66
  -2  -9   6    2.50    0.62
   2   9  -6    4.85    0.79
   2   9  -6    5.79    0.72
   2   9  -6    4.59    0.59
   2   9  -6    4.44    0.50
  -2   9   6    4.96    0.70
   1  -9  -6    3.44    0.55
   1  -9  -6    2.48    0.63
   1  -9  -6    3.39    0.57
  -1  -9   6    3.26    0.58
   1  -9  -6    2.88    0.61
  -1  -9   6    2.75    0.44
  -1   9   6    3.70    0.62
   1   9  -6    3.12    0.47
  -1   9   6    3.07    0.66
   1   9  -6    2.91    0.70
   0  -9  -6   10.77    0.97
   0  -9   6    8.89    0.89
   0  -9   6   11.03    0.97
   0  -9  -6    9.05    1.18
   0  -9  -6   10.21    1.11
   0  -9  -6    8.78    1.05
   0   9  -6   10.25    1.17
   0   9  -6   10.92    0.77
   0   9   6   10.27    1.20
   0   9  -6   10.84    0.89
   0   9   6   11.16    1.01
   1  -9   6   16.71    1.26
  -1  -9  -6   17.21    1.48
  -1  -9  -6   15.92    1.45
  -1  -9  -6   15.77    1.30
  -1  -9  -6   18.84    1.30
  -1   9  -6   13.96    1.30
   1   9   6   14.25    1.15
  -1   9  -6   14.24    1.07
  -1   9  -6   14.79    1.18
   1   9   6   14.48    1.48
   2  -9   6    4.26    0.73
  -2  -9  -6    4.72    0.79
  -2  -9  -6    3.60    0.85
  -2  -9  -6    3.41    0.77
   2   9   6    4.22    0.60
  -2   9  -6    4.57    0.64
  -2   9  -6    2.97    0.67
   2   9   6    4.60    0.98
  -2   9  -6    3.81    0.63
  -4 -10   6    8.96    1.08
   4 -10  -6   10.40    1.17
  -4 -10   6    7.41    1.13
   4 -10  -6   10.70    1.37
   4  10  -6   10.10    1.00
   4  10  -6    8.65    1.28
   4  10  -6    7.30    0.95
   3 -10  -6   10.03    1.29
   3 -10  -6    9.09    1.19
  -3 -10   6    8.54    1.04
  -3 -10   6    8.91    1.14
   3 -10  -6    9.36    0.93
   3  10  -6   10.49    1.05
  -3  10   6    9.16    0.86
   3  10  -6    8.32    1.20
  -3  10   6    9.38    0.75
  -3  10   6    8.90    0.99
  -2 -10   6   22.80    1.72
  -2 -10   6   22.93    1.53
   2 -10  -6   23.02    1.56
   2 -10  -6   24.28    1.55
   2 -10  -6   22.39    1.73
   2  10  -6   21.06    1.86
  -2  10   6   22.38    1.41
   2  10  -6   24.09    1.51
  -2  10   6   23.01    1.69
  -1 -10   6   16.34    1.19
  -1 -10   6   15.67    1.31
   1 -10  -6   16.00    1.23
   1 -10  -6   15.84    1.30
   1 -10  -6   15.01    1.46
   1 -10  -6   16.39    1.39
  -1  10   6   14.50    1.39
   1  10  -6   15.40    1.17
  -1  10   6   13.46    1.34
   1  10  -6   14.86    1.51
   0 -10   6    3.69    0.66
   0 -10  -6    3.73    0.72
   0 -10  -6    3.36    0.72
   0 -10   6    3.25    0.62
   0 -10  -6    3.94    0.79
   0 -10  -6    3.48    0.60
   0  10   6    2.50    0.62
   0  10  -6    4.11    0.80
   0  10   6    3.34    0.78
   0  10  -6    3.64    0.56
   1 -10   6    2.97    0.68
  -1 -10  -6    3.71    0.83
   1 -10   6    2.24    0.57
  -1 -10  -6    3.09    0.62
  -1 -10  -6    2.38    0.74
  -1 -10  -6    3.22    0.72
   1  10   6    5.54    0.99
  -1  10  -6    3.56    0.63
  -1  10  -6    2.94    0.76
   1  10   6    3.78    0.59
   2 -10   6    9.43    1.02
   2 -10   6   11.07    1.31
  -2  10  -6   11.07    1.15
   2  10   6   11.18    1.38
   2 -11  -6   10.58    1.25
   2 -11  -6   14.42    1.58
   2 -11  -6   11.86    1.23
  -2 -11   6   13.48    1.47
   2 -11  -6   10.62    1.47
   2  11  -6   12.37    1.13
  -2  11   6   11.05    1.04
  -2  11   6   12.86    1.51
  -2  11   6   11.64    1.22
   2  11  -6   11.74    1.37
  -1 -11   6    0.22    0.59
   1 -11  -6    0.22    0.72
  -1 -11   6    0.26    0.60
   1 -11  -6    0.48    0.62
   1 -11  -6    0.15    0.70
   1 -11  -6    0.32    0.54
   1  11  -6    0.54    0.50
  -1  11   6    1.25    0.53
  -1  11   6   -0.10    0.72
  -1  11   6    0.34    0.67
   1  11  -6    0.76    0.84
   0 -11   6    6.29    0.85
   0 -11  -6    6.88    0.96
   0 -11  -6    8.04    0.95
   0 -11  -6    7.30    0.96
   0 -11   6    7.50    0.81
   0 -11  -6    7.20    1.00
   0  11   6    5.43    0.88
   0  11   6    7.90    0.96
   0  11   6    7.10    1.06
   0  11  -6    6.60    1.00
   0  11  -6    8.44    1.05
  -7   0   7   17.99    1.54
  -7   0   7   17.10    1.36
   7   0  -7   17.54    1.45
   7   0  -7   16.38    1.32
   7   0  -7   18.42    1.49
  -6   0   7    1.40    0.50
  -6   0   7    1.46    0.56
   6   0  -7    1.31    0.56
   6   0  -7    1.70    0.37
  -5   0   7    1.81    0.51
   5   0  -7    2.53    0.52
   5   0  -7    1.75    0.33
  -5   0   7    1.60    0.43
  -4   0   7   42.90    2.08
  -4   0   7   42.36    2.26
  -4   0   7   41.69    2.33
   4   0  -7   43.85    2.33
   3   0  -7   44.76    2.43
  -3   0   7   47.22    2.37
  -3   0   7   45.52    2.44
   3   0  -7   45.32    2.37
  -2   0   7   11.17    0.80
   2   0  -7   11.13    0.82
   2   0  -7   10.95    0.88
  -2   0   7   11.79    0.92
  -1   0   7   12.61    0.81
  -1   0   7   12.12    0.94
   1   0  -7   12.07    0.93
   1   0  -7   11.61    0.84
   0   0   7  241.78   11.68
   0   0  -7  242.56   11.68
   0   0  -7  248.50   11.32
   0   0  -7  240.19   12.43
   0   0   7  246.56   11.31
   1   0   7   20.64    1.32
  -1   0  -7   19.62    1.30
  -1   0  -7   21.93    1.23
   1   0   7   19.29    1.19
  -1   0  -7   19.52    1.38
   2   0   7    2.05    0.37
  -2   0  -7    1.63    0.40
   2   0   7    1.56    0.40
   3   0   7   55.71    2.77
  -3   0  -7   59.28    3.04
  -3   0  -7   57.68    3.23
   3   0   7   53.26    3.02
  -4   0  -7   12.39    1.12
  -4   0  -7   10.79    0.99
   4   0   7   12.53    1.06
   4   0   7   12.00    1.14
   5   0   7    9.57    1.19
   5   0   7    8.65    1.19
  -5   0  -7    9.60    1.29
   5   0   7   11.47    1.34
  -5   0  -7   13.04    1.08
   7  -1  -7    7.84    0.90
  -7  -1   7    7.94    0.99
   7  -1  -7    7.69    0.86
  -7  -1   7    6.95    0.88
   7  -1  -7    7.83    1.03
   7   1  -7    7.46    0.92
  -7   1   7    8.16    0.94
   7   1  -7    8.12    1.00
   7   1  -7    8.94    1.15
  -7   1   7    8.53    0.89
  -6  -1   7    2.31    0.54
   6  -1  -7    2.78    0.48
   6  -1  -7    2.23    0.57
  -6  -1   7    2.36    0.63
   6   1  -7    3.77    0.66
   6   1  -7    3.71    0.47
  -6   1   7    3.80    0.62
  -6   1   7    3.53    0.58
   5  -1  -7   33.38    2.13
  -5  -1   7   35.29    2.21
   5  -1  -7   34.69    2.08
  -5  -1   7   34.96    2.13
   5   1  -7   42.84    2.26
  -5   1   7   45.86    2.22
  -5   1   7   43.56    2.16
   5   1  -7   43.61    2.17
   4  -1  -7   46.36    2.50
  -4  -1   7   49.58    2.59
   4  -1  -7   47.41    2.53
  -4  -1   7   49.14    2.51
  -4   1   7   45.56    2.54
  -4   1   7   49.92    2.50
  -4   1   7   48.14    2.31
   4   1  -7   46.23    2.57
  -3  -1   7   11.48    0.83
   3  -1  -7   11.32    0.84
   3  -1  -7   10.50    0.90
  -3  -1   7   10.92    0.94
  -3   1   7   11.11    0.74
  -3   1   7   12.62    0.93
  -3   1   7   11.81    0.82
   3   1  -7   11.51    0.93
   2  -1  -7  113.81    5.46
  -2  -1   7  114.55    5.46
   2  -1  -7  117.62    5.32
  -2  -1   7  114.51    5.31
  -2   1   7  101.36    5.42
  -2   1   7  105.77    5.27
   2   1  -7  109.74    5.45
  -2   1   7  108.25    5.29
   1  -1  -7   33.01    1.70
  -1  -1   7   33.86    1.69
   1  -1  -7   33.02    1.77
  -1  -1   7   32.80    1.78
  -1   1   7   28.70    1.76
   1   1  -7   27.55    1.74
  -1   1   7   27.57    1.64
   0  -1   7   26.62    1.46
   0  -1   7   25.44    1.54
   0  -1  -7   26.13    1.56
   0  -1  -7   26.32    1.48
   0  -1  -7   25.13    1.66
   0   1   7   26.54    1.46
   0   1   7   26.31    1.57
   0   1  -7   27.66    1.66
   0   1  -7   25.31    1.55
   1  -1   7  110.71    5.47
   1  -1   7  113.08    5.25
  -1  -1  -7  103.89    5.25
  -1  -1  -7  102.20    5.47
  -1  -1  -7  107.76    5.84
   1   1   7  118.08    5.52
  -1   1  -7  113.45    5.48
  -1   1  -7  111.32    5.83
   1   1   7  113.76    5.26
  -2  -1  -7   22.16    1.24
   2  -1   7   21.55    1.21
  -2  -1  -7   23.82    1.54
  -2  -1  -7   22.10    1.38
   2  -1   7   20.73    1.31
   2   1   7   17.47    1.35
   2   1   7   17.43    1.19
  -2   1  -7   18.21    1.27
  -2   1  -7   21.09    1.48
  -3  -1  -7    4.49    0.60
   3  -1   7    3.68    0.45
   3  -1   7    3.28    0.48
  -3  -1  -7    3.71    0.49
  -3  -1  -7    3.21    0.55
   3   1   7    3.93    0.61
   3   1   7    3.42    0.53
  -3   1  -7    3.49    0.51
  -3   1  -7    3.77    0.57
   4  -1   7   59.11    3.15
  -4  -1  -7   61.47    3.17
  -4  -1  -7   60.26    3.40
   4   1   7   56.39    3.17
   4   1   7   55.47    3.15
  -4   1  -7   54.61    3.37
  -4   1  -7   58.84    3.11
   5  -1   7   11.00    1.50
  -5  -1  -7   11.63    1.13
  -5  -1  -7   10.35    1.30
   5  -1   7    9.13    1.16
   5   1   7    8.91    1.00
   5   1   7   11.41    1.25
   5   1   7   15.27    1.41
  -5   1  -7   12.93    1.44
  -5   1  -7   12.28    1.07
   7  -2  -7   15.56    1.28
   7  -2  -7   14.46    1.29
  -7  -2   7   15.15    1.38
   7  -2  -7   15.80    1.40
  -7  -2   7   14.09    1.68
  -7   2   7   16.29    1.35
   7   2  -7   15.61    1.54
   7   2  -7   12.83    1.21
   7   2  -7   14.75    1.49
  -6  -2   7   35.47    2.03
  -6  -2   7   35.67    2.13
   6  -2  -7   34.61    1.96
   6  -2  -7   34.66    1.92
  -6   2   7   32.91    1.95
   6   2  -7   31.84    1.93
  -6   2   7   32.03    1.95
   6   2  -7   33.89    2.09
   5  -2  -7    4.07    0.55
  -5  -2   7    3.46    0.62
  -5  -2   7    4.07    0.62
   5  -2  -7    4.18    0.50
   5  -2  -7    3.71    0.58
  -5   2   7    4.35    0.57
   5   2  -7    4.43    0.67
  -5   2   7    3.82    0.55
   5   2  -7    4.68    0.59
   4  -2  -7   94.32    4.53
  -4  -2   7   90.20    4.44
   4  -2  -7   98.97    4.48
  -4  -2   7   98.69    4.61
  -4   2   7   85.81    4.49
  -4   2   7   85.18    4.41
  -4   2   7   89.50    4.28
   4   2  -7   89.74    4.55
   4   2  -7   85.39    4.57
   3  -2  -7   56.21    2.91
  -3  -2   7   57.70    3.01
  -3  -2   7   55.80    2.89
   3  -2  -7   57.23    2.97
  -3   2   7   57.50    2.81
  -3   2   7   57.34    2.96
  -3   2   7   57.52    2.89
   3   2  -7   59.60    3.01
  -2  -2   7    5.47    0.54
  -2  -2   7    5.81    0.68
   2  -2  -7    5.31    0.67
   2  -2  -7    4.67    0.55
  -2   2   7    4.74    0.52
   2   2  -7    4.18    0.53
  -2   2   7    3.73    0.52
  -2   2   7    4.33    0.52
  -1  -2   7   27.17    1.61
   1  -2  -7   26.80    1.54
  -1  -2   7   26.46    1.51
   1  -2  -7   26.56    1.60
  -1   2   7   26.71    1.52
   1   2  -7   29.33    1.62
  -1   2   7   28.53    1.62
  -1   2   7   28.11    1.51
   0  -2   7  120.30    5.27
   0  -2  -7  109.42    5.46
   0  -2  -7  119.15    5.29
   0  -2  -7  114.67    5.80
   0  -2   7  111.36    5.44
   0   2  -7  106.28    5.43
   0   2  -7  108.21    5.76
   0   2   7  106.20    5.24
   0   2   7  100.39    5.31
   0   2   7  104.10    5.44
   1  -2   7   17.87    1.16
   1  -2   7   17.38    1.20
  -1  -2  -7   18.17    1.29
  -1  -2  -7   16.34    1.16
  -1  -2  -7   19.24    1.38
  -1   2  -7   20.48    1.23
  -1   2  -7   20.62    1.38
   1   2   7   20.58    1.18
   1   2   7   20.22    1.33
   1   2   7   19.48    1.19
   2  -2   7   23.84    1.47
  -2  -2  -7   23.24    1.41
   2  -2   7   26.29    1.39
  -2  -2  -7   23.57    1.61
  -2  -2  -7   25.48    1.57
   2   2   7   24.24    1.40
   2   2   7   22.57    1.57
  -2   2  -7   25.29    1.49
  -2   2  -7   24.28    1.65
   2   2   7   23.68    1.45
  -3  -2  -7   24.31    1.53
  -3  -2  -7   23.24    1.34
   3  -2   7   23.95    1.29
   3  -2   7   23.37    1.45
  -3  -2  -7   25.46    1.59
  -3   2  -7   21.10    1.41
   3   2   7   20.39    1.41
   3   2   7   20.38    1.54
  -3   2  -7   20.35    1.58
  -4  -2  -7   10.61    1.04
  -4  -2  -7   11.36    0.90
   4  -2   7   10.00    0.73
  -4  -2  -7   10.70    1.09
   4  -2   7   10.64    0.97
   4   2   7   12.39    1.21
  -4   2  -7   10.30    1.23
  -4   2  -7    9.32    0.90
   4   2   7    9.56    1.11
  -5  -2  -7    4.25    0.65
   5  -2   7    4.11    0.71
   5  -2   7    4.70    0.93
   5   2   7    6.07    0.86
   5   2   7    3.52    0.95
  -5   2  -7    4.39    0.85
  -5   2  -7    5.27    0.64
   7  -3  -7    4.85    0.74
  -7  -3   7    4.48    0.98
   7  -3  -7    3.69    0.73
  -7  -3   7    4.98    0.83
   7  -3  -7    4.69    0.68
   7   3  -7    4.23    0.61
   7   3  -7    3.81    0.84
  -7   3   7    3.05    0.69
   7   3  -7    3.37    0.82
   6  -3  -7    6.94    0.83
  -6  -3   7    7.61    0.97
   6  -3  -7    6.78    0.82
  -6  -3   7    6.73    0.85
   6   3  -7    8.85    1.15
   6   3  -7    8.92    1.16
   6   3  -7    8.54    0.87
  -6   3   7    9.90    1.01
  -5  -3   7   22.48    1.59
   5  -3  -7   22.32    1.38
  -5  -3   7   22.99    1.24
   5  -3  -7   23.37    1.50
  -5  -3   7   22.76    1.51
   5  -3  -7   24.02    1.45
   5   3  -7   24.08    1.59
  -5   3   7   22.79    1.43
  -5   3   7   23.27    1.46
   5   3  -7   22.16    1.45
  -4  -3   7    4.49    0.55
  -4  -3   7    4.07    0.54
   4  -3  -7    3.29    0.51
   4  -3  -7    4.26    0.55
  -4  -3   7    3.43    0.60
   4   3  -7    6.74    0.79
  -4   3   7    6.38    0.68
   4   3  -7    5.63    0.66
   3  -3  -7    1.20    0.39
   3  -3  -7    1.22    0.36
  -3  -3   7    1.39    0.31
  -3  -3   7    0.97    0.44
  -3   3   7    2.22    0.35
   3   3  -7    1.27    0.41
  -3   3   7    2.01    0.42
  -3   3   7    1.86    0.33
   2  -3  -7   52.67    2.53
   2  -3  -7   55.55    2.59
  -2  -3   7   54.10    2.52
  -2  -3   7   50.92    2.61
   2   3  -7   42.25    2.55
  -2   3   7   43.58    2.44
  -2   3   7   45.40    2.48
  -2   3   7   44.66    2.55
   1  -3  -7   47.50    2.49
   1  -3  -7   48.47    2.41
  -1  -3   7   48.16    2.39
  -1  -3   7   51.30    2.50
  -1   3   7   42.30    2.36
  -1   3   7   43.64    2.47
  -1   3   7   45.51    2.39
   1   3  -7   43.59    2.45
   0  -3   7    2.55    0.42
   0  -3  -7    2.31    0.42
   0  -3  -7    3.03    0.51
   0  -3   7    2.04    0.40
   0  -3  -7    2.19    0.44
   0   3   7    2.68    0.41
   0   3   7    3.58    0.56
   0   3  -7    3.00    0.44
   0   3   7    3.25    0.41
   0   3  -7    2.88    0.45
   1  -3   7   75.74    3.80
  -1  -3  -7   76.27    3.86
  -1  -3  -7   72.94    4.07
  -1  -3  -7   74.34    3.68
   1  -3   7   78.83    3.67
  -1   3  -7   70.21    4.03
   1   3   7   72.68    3.85
  -1   3  -7   75.22    3.80
   1   3   7   76.33    3.67
   1   3   7   73.42    3.74
  -2  -3  -7   39.39    2.47
  -2  -3  -7   42.71    2.39
   2  -3   7   43.07    2.16
   2  -3   7   42.65    2.29
  -2  -3  -7   42.07    2.20
   2   3   7   40.09    2.39
  -2   3  -7   43.32    2.51
   2   3   7   43.31    2.28
  -2   3  -7   38.08    2.26
  -3  -3  -7    7.87    0.91
   3  -3   7    8.44    0.72
  -3  -3  -7    8.35    0.83
   3  -3   7    7.65    0.74
  -3  -3  -7    6.70    0.82
   3   3   7    6.29    0.82
   3   3   7    7.43    0.91
  -3   3  -7    7.01    0.98
  -3   3  -7    6.57    0.75
   4  -3   7   13.17    0.85
  -4  -3  -7   14.23    1.04
  -4  -3  -7   13.84    1.25
  -4  -3  -7   12.85    1.24
   4  -3   7   13.52    1.09
   4   3   7   10.35    1.23
  -4   3  -7   12.23    1.39
  -4   3  -7   12.94    1.05
   4   3   7   11.04    1.36
  -7  -4   7   24.32    2.17
   7  -4  -7   24.35    1.82
   7  -4  -7   24.93    1.69
   7  -4  -7   24.62    2.05
  -7  -4   7   22.58    1.89
   7  -4  -7   23.94    1.57
   7   4  -7   25.49    2.08
   7   4  -7   22.83    1.73
  -7   4   7   26.04    1.77
   7   4  -7   25.67    2.02
   6  -4  -7   11.23    0.93
  -6  -4   7   12.09    1.22
   6  -4  -7   10.17    1.04
  -6  -4   7   10.91    0.75
  -6  -4   7    9.07    1.12
   6  -4  -7    9.23    1.14
   6   4  -7   10.85    1.28
  -6   4   7   10.62    1.09
   6   4  -7   10.79    1.26
  -6   4   7   10.74    0.90
   6   4  -7    9.65    1.07
  -5  -4   7    9.06    0.98
  -5  -4   7    9.11    1.15
   5  -4  -7   10.35    1.02
   5  -4  -7   10.02    0.93
  -5  -4   7    8.68    0.75
   5   4  -7    9.48    1.08
  -5   4   7    9.34    0.94
   5   4  -7   10.12    0.99
  -4  -4   7   20.37    1.25
   4  -4  -7   19.77    1.39
  -4  -4   7   22.10    1.34
   4  -4  -7   19.61    1.32
  -4  -4   7   20.08    1.48
   4   4  -7   21.05    1.42
  -4   4   7   22.23    1.32
   4   4  -7   21.34    1.48
  -4   4   7   22.39    1.19
  -4   4   7   22.56    1.36
  -3  -4   7  104.97    5.25
   3  -4  -7  108.79    5.18
   3  -4  -7  103.25    5.09
  -3  -4   7  103.97    5.07
   3   4  -7  104.33    5.25
  -3   4   7  100.62    5.15
  -3   4   7  106.73    5.03
  -3   4   7  106.39    5.08
   2  -4  -7    8.64    0.78
   2  -4  -7    8.13    0.71
  -2  -4   7    8.33    0.79
  -2  -4   7    6.76    0.62
  -2   4   7    6.52    0.68
   2   4  -7    7.30    0.76
  -2   4   7    5.59    0.63
  -2   4   7    6.99    0.76
  -1  -4   7   82.53    4.00
  -1  -4   7   82.74    4.13
   1  -4  -7   78.97    4.01
   1  -4  -7   78.25    4.12
   1   4  -7   83.78    4.13
  -1   4   7   79.38    3.99
  -1   4   7   82.96    4.03
  -1   4   7   85.71    4.15
   0  -4  -7    0.97    0.41
   0  -4  -7    0.36    0.30
   0  -4   7    0.47    0.28
   0  -4  -7    0.77    0.39
   0  -4   7    0.39    0.28
   0   4   7    0.50    0.29
   0   4  -7    0.24    0.37
   0   4   7    0.54    0.40
   0   4   7    0.51    0.30
   0   4  -7    0.13    0.25
  -1  -4  -7   34.80    1.98
  -1  -4  -7   34.43    1.84
   1  -4   7   33.50    1.81
   1  -4   7   31.31    1.84
  -1  -4  -7   34.23    2.15
  -1   4  -7   33.12    2.07
   1   4   7   33.15    1.84
   1   4   7   30.95    1.96
   1   4   7   31.41    1.81
  -1   4  -7   31.18    1.85
  -2  -4  -7    6.17    0.76
  -2  -4  -7    5.89    0.76
  -2  -4  -7    6.18    0.89
   2  -4   7    6.54    0.74
   2  -4   7    4.72    0.65
   2   4   7    6.74    0.73
  -2   4  -7    6.47    0.67
   2   4   7    5.15    0.75
  -2   4  -7    6.67    0.91
  -3  -4  -7   36.69    2.24
   3  -4   7   37.08    1.93
  -3  -4  -7   36.86    2.02
   3  -4   7   37.30    2.05
  -3  -4  -7   36.41    2.31
   3   4   7   35.10    2.10
  -3   4  -7   34.49    2.05
  -3   4  -7   35.11    2.29
   3   4   7   36.60    2.27
   4  -4   7    9.07    1.07
  -4  -4  -7    8.43    1.20
   4  -4   7    9.50    0.75
  -4  -4  -7    8.83    1.01
  -4  -4  -7    9.00    0.97
   4   4   7    7.11    0.94
  -4   4  -7    7.69    0.98
   4   4   7    6.91    1.03
  -4   4  -7    7.50    0.91
  -6  -5   7    7.10    0.80
  -6  -5   7    8.32    1.10
   6  -5  -7    6.95    0.87
   6  -5  -7    7.55    0.92
  -6  -5   7    7.64    0.94
   6  -5  -7    6.33    0.79
   6   5  -7    6.59    0.89
   6   5  -7    5.67    0.94
  -6   5   7    6.52    0.80
   6   5  -7    6.59    0.93
  -6   5   7    6.41    0.73
  -5  -5   7   48.86    2.52
  -5  -5   7   45.97    2.36
  -5  -5   7   45.63    2.69
   5  -5  -7   44.73    2.40
   5  -5  -7   46.59    2.56
   5   5  -7   45.81    2.63
  -5   5   7   43.14    2.46
  -5   5   7   44.69    2.34
   5   5  -7   42.08    2.60
   4  -5  -7    8.78    0.82
  -4  -5   7   10.14    0.84
  -4  -5   7    9.18    0.82
  -4  -5   7    8.02    1.04
   4  -5  -7    8.54    0.91
   4   5  -7    6.83    0.85
  -4   5   7    7.53    0.70
   4   5  -7    8.45    0.98
  -4   5   7    8.24    0.86
  -3  -5   7   26.32    1.52
   3  -5  -7   24.97    1.53
  -3  -5   7   20.91    1.61
   3  -5  -7   24.33    1.55
  -3   5   7   24.86    1.52
  -3   5   7   27.39    1.48
   3   5  -7   26.26    1.65
   3   5  -7   27.93    1.65
  -3   5   7   29.26    1.54
  -2  -5   7   41.91    2.14
   2  -5  -7   42.35    2.19
   2  -5  -7   40.49    2.16
  -2  -5   7   37.86    2.23
  -2   5   7   39.48    2.13
   2   5  -7   40.05    2.23
  -2   5   7   39.92    2.13
  -2   5   7   38.00    2.17
   1  -5  -7   33.45    1.88
   1  -5  -7   31.67    1.93
  -1  -5   7   31.42    1.89
  -1  -5   7   30.93    1.85
   1   5  -7   36.01    1.92
  -1   5   7   36.40    1.87
  -1   5   7   35.55    1.90
  -1   5   7   35.92    1.97
   0  -5  -7   30.04    1.82
   0  -5   7   32.62    1.74
   0  -5  -7   31.15    1.72
   0  -5   7   29.48    1.72
   0  -5  -7   29.61    1.97
   0   5   7   28.51    1.71
   0   5  -7   28.07    1.72
   0   5  -7   33.64    1.96
   0   5   7   27.93    1.82
  -1  -5  -7   39.98    2.49
  -1  -5  -7   44.13    2.27
   1  -5   7   42.69    2.22
   1  -5   7   37.60    2.24
  -1  -5  -7   41.64    2.39
  -1   5  -7   37.33    2.25
   1   5   7   43.38    2.42
   1   5   7   42.64    2.27
  -1   5  -7   45.18    2.47
   2  -5   7   22.94    1.40
  -2  -5  -7   20.73    1.64
   2  -5   7   23.34    1.41
  -2  -5  -7   21.23    1.57
  -2  -5  -7   22.09    1.45
   2   5   7   22.37    1.62
   2   5   7   23.32    1.45
  -2   5  -7   22.23    1.58
  -2   5  -7   22.18    1.39
  -3  -5  -7    0.54    0.48
   3  -5   7    1.14    0.46
   3  -5   7    1.14    0.47
  -3  -5  -7    0.96    0.54
  -3  -5  -7    0.72    0.56
   3   5   7    1.37    0.67
  -3   5  -7    0.24    0.52
   3   5   7    1.35    0.43
  -3   5  -7    0.70    0.39
  -4  -5  -7    5.81    0.96
  -4  -5  -7    5.12    0.78
  -4  -5  -7    6.00    0.97
   4  -5   7    5.78    0.84
   4  -5   7    7.37    0.81
   4   5   7    7.39    0.95
   4   5   7    7.54    1.15
  -4   5  -7    7.65    0.80
  -4   5  -7    6.45    0.94
  -6  -6   7    7.57    1.17
   6  -6  -7    8.87    0.99
   6  -6  -7    6.84    0.78
  -6  -6   7    5.44    0.91
   6  -6  -7    5.84    0.74
  -6  -6   7    7.90    0.95
   6   6  -7    7.24    0.98
   6   6  -7    7.78    1.07
   6   6  -7    8.57    1.06
   5  -6  -7    3.80    0.73
   5  -6  -7    3.68    0.51
  -5  -6   7    3.01    0.56
  -5  -6   7    3.92    0.84
  -5  -6   7    3.69    0.68
  -5   6   7    3.78    0.45
   5   6  -7    3.12    0.71
   5   6  -7    2.76    0.70
   5   6  -7    3.42    0.69
   4  -6  -7   37.60    2.16
  -4  -6   7   38.98    2.11
   4  -6  -7   37.16    2.02
  -4  -6   7   37.50    2.07
  -4  -6   7   35.25    2.25
  -4   6   7   39.65    2.00
   4   6  -7   32.29    2.19
  -4   6   7   37.16    2.12
   4   6  -7   39.27    2.27
  -4   6   7   36.42    1.99
  -3  -6   7   13.24    1.01
   3  -6  -7   13.76    0.95
   3  -6  -7   12.28    0.98
  -3  -6   7   12.61    1.10
  -3   6   7    9.43    0.90
  -3   6   7    9.99    0.90
  -3   6   7    8.93    0.88
   3   6  -7   10.11    1.10
   3   6  -7   11.45    0.99
  -2  -6   7    8.23    0.84
   2  -6  -7    7.59    0.75
   2  -6  -7    7.93    0.86
  -2   6   7    8.29    0.89
   2   6  -7    7.60    0.98
   2   6  -7    9.14    0.84
  -2   6   7    9.43    0.85
  -1   6   7    5.71    0.71
   1   6  -7    5.49    0.77
   1   6  -7    5.77    0.64
  -1   6   7    4.72    0.58
   0  -6  -7   57.01    3.34
   0  -6  -7   55.82    3.02
   0  -6   7   56.63    3.08
   0  -6  -7   59.20    3.14
   0   6   7   61.20    3.07
   0   6  -7   60.59    3.09
   0   6   7   56.97    3.16
   0   6  -7   62.27    3.28
   1  -6   7   11.66    0.97
  -1  -6  -7   10.01    1.17
  -1  -6  -7    9.70    0.97
  -1  -6  -7   10.42    1.09
   1  -6   7    9.62    0.80
   1   6   7    9.25    1.12
  -1   6  -7   10.37    1.03
   1   6   7    7.61    0.83
  -1   6  -7    8.05    0.81
  -2  -6  -7    6.83    0.77
   2  -6   7    5.84    0.80
  -2  -6  -7    5.80    0.88
   2  -6   7    7.13    0.89
  -2  -6  -7    7.75    0.94
   2   6   7    9.36    1.23
  -2   6  -7    8.92    0.80
  -2   6  -7    9.76    1.02
  -3  -6  -7   25.30    1.83
  -3  -6  -7   23.11    1.87
   3  -6   7   22.42    1.51
  -3  -6  -7   22.30    1.60
   3  -6   7   21.85    1.61
  -3   6  -7   24.61    1.57
   3   6   7   25.00    1.63
  -3   6  -7   24.94    1.79
   3   6   7   24.90    1.97
  -4  -6  -7    1.66    0.68
   4  -6   7    1.84    0.55
  -4  -6  -7    0.64    0.79
   4  -6   7    2.23    0.75
  -4  -6  -7    0.88    0.76
  -4   6  -7    0.94    0.55
   4   6   7    1.10    0.97
   4   6   7    1.26    0.77
  -4   6  -7    1.95    0.76
  -6  -7   7    6.87    1.19
   6  -7  -7    5.11    1.01
   6  -7  -7    4.42    0.91
  -6  -7   7    3.96    0.89
  -6  -7   7    4.53    0.76
   6   7  -7    4.00    1.03
   6   7  -7    4.78    0.91
   6   7  -7    4.15    0.98
  -5  -7   7   27.96    1.81
  -5  -7   7   32.58    2.20
   5  -7  -7   30.17    1.60
   5  -7  -7   29.27    1.59
  -5  -7   7   27.75    1.91
   5  -7  -7   29.08    1.93
   5   7  -7   26.42    2.09
   5   7  -7   28.29    1.99
   5   7  -7   29.00    2.05
   4  -7  -7    6.29    0.82
   4  -7  -7    6.15    0.76
   4  -7  -7    6.24    0.70
  -4  -7   7    5.78    0.74
  -4  -7   7    5.41    0.84
   4   7  -7    7.54    0.95
  -4   7   7    6.66    0.85
  -4   7   7    5.98    0.71
   4   7  -7    5.70    0.79
   3  -7  -7    4.17    0.60
  -3  -7   7    3.51    0.63
  -3  -7   7    3.24    0.58
   3  -7  -7    3.13    0.57
   3   7  -7    3.54    0.72
  -3   7   7    3.47    0.55
   3   7  -7    4.23    0.61
  -2  -7   7   70.93    3.92
   2  -7  -7   69.74    3.81
   2  -7  -7   71.58    3.84
   2  -7  -7   73.35    3.86
  -2   7   7   79.71    3.85
   2   7  -7   78.82    4.00
   2   7  -7   81.26    3.95
  -2   7   7   83.14    3.90
   1  -7  -7    8.22    0.94
  -1  -7   7   10.68    0.81
   1  -7  -7    9.89    0.96
   1  -7  -7    8.30    0.81
   1   7  -7    7.70    0.77
  -1   7   7    8.84    0.91
  -1   7   7    7.51    1.01
   1   7  -7    8.81    1.01
   1   7  -7    6.93    0.84
   0  -7  -7    3.47    0.70
   0  -7  -7    4.38    0.60
   0  -7  -7    3.87    0.66
   0  -7   7    4.52    0.57
   0   7   7    4.14    0.71
   0   7  -7    4.04    0.54
   0   7  -7    4.64    0.65
   0   7   7    3.90    0.60
   1  -7   7   35.64    1.90
  -1  -7  -7   35.57    1.99
  -1  -7  -7   33.69    2.22
  -1  -7  -7   36.63    2.11
   1   7   7   31.32    1.90
  -1   7  -7   30.63    1.89
   1   7   7   31.39    2.11
  -1   7  -7   29.82    1.99
  -2  -7  -7   21.09    1.67
  -2  -7  -7   19.73    1.51
   2  -7   7   20.56    1.46
  -2  -7  -7   20.23    1.77
   2  -7   7   23.03    1.52
  -2   7  -7   19.02    1.54
  -2   7  -7   22.42    1.41
   2   7   7   22.06    1.78
   2   7   7   21.86    1.46
  -3  -7  -7    1.16    0.73
  -3  -7  -7    1.21    0.73
   3  -7   7    2.00    0.62
   3  -7   7    1.68    0.62
  -3  -7  -7    0.57    0.63
   3   7   7    1.33    0.56
  -3   7  -7    1.38    0.53
   3   7   7    1.43    0.91
  -3   7  -7    1.44    0.63
  -5  -8   7    0.79    0.87
  -5  -8   7   -0.36    0.63
   5  -8  -7   -0.61    0.65
   5  -8  -7    0.27    0.57
   5   8  -7    0.42    0.72
   5   8  -7    0.15    0.89
   5   8  -7    0.41    0.61
   4  -8  -7   24.69    1.58
   4  -8  -7   24.30    1.38
  -4  -8   7   23.92    1.62
   4  -8  -7   22.78    1.66
  -4  -8   7   22.14    1.79
   4   8  -7   21.04    1.60
  -4   8   7   21.73    1.32
  -4   8   7   20.70    1.51
   4   8  -7   20.48    1.82
   4   8  -7   22.92    1.67
  -3  -8   7   22.87    1.73
   3  -8  -7   26.09    1.69
   3  -8  -7   25.66    1.55
  -3  -8   7   24.55    1.69
   3  -8  -7   25.40    1.67
   3   8  -7   24.73    1.86
  -3   8   7   25.23    1.62
   3   8  -7   26.05    1.69
   2  -8  -7    3.15    0.51
  -2  -8   7    2.58    0.60
  -2  -8   7    2.45    0.50
   2  -8  -7    3.23    0.62
   2  -8  -7    3.20    0.58
   2   8  -7    3.89    0.56
  -2   8   7    4.28    0.63
  -2   8   7    4.16    0.62
   2   8  -7    4.01    0.76
  -1  -8   7   22.66    1.47
   1  -8  -7   21.80    1.55
   1  -8  -7   23.08    1.48
   1  -8  -7   23.14    1.72
   1  -8  -7   20.46    1.55
   1   8  -7   23.27    1.68
  -1   8   7   23.27    1.64
   1   8  -7   24.70    1.48
  -1   8   7   25.67    1.57
   1   8  -7   22.38    1.50
   0  -8  -7   27.50    1.76
   0  -8  -7   26.24    1.66
   0  -8   7   25.86    1.58
   0  -8  -7   26.15    1.87
   0   8  -7   24.70    1.62
   0   8   7   24.58    1.67
   0   8   7   25.80    1.83
   0   8  -7   25.87    1.59
   0   8  -7   26.82    1.77
  -1  -8  -7    3.05    0.78
  -1  -8  -7    2.87    0.64
  -1  -8  -7    3.79    0.76
   1  -8   7    3.11    0.54
  -1   8  -7    3.50    0.56
   1   8   7    3.72    0.80
   1   8   7    3.41    0.51
  -1   8  -7    3.89    0.58
  -2  -8  -7    8.64    1.09
  -2  -8  -7    7.03    0.92
  -2  -8  -7    7.11    1.03
   2  -8   7    7.06    0.86
  -2   8  -7    8.89    0.98
  -2   8  -7    9.53    1.09
   2   8   7    9.15    1.05
   2   8   7    9.08    1.14
  -4  -9   7    6.73    1.05
   4  -9  -7    5.61    0.61
  -4  -9   7    5.68    0.88
   4  -9  -7    4.52    0.83
   4  -9  -7    6.35    0.85
   4   9  -7    4.96    0.78
   4   9  -7    5.00    0.75
   4   9  -7    5.14    1.05
   3  -9  -7    0.04    0.51
  -3  -9   7   -0.33    0.57
  -3  -9   7   -0.18    0.57
   3  -9  -7    0.63    0.59
   3  -9  -7   -0.37    0.49
  -3   9   7   -0.25    0.59
  -3   9   7    0.10    0.45
   3   9  -7   -0.08    0.74
   3   9  -7   -0.02    0.44
   3   9  -7    0.04    0.47
   2  -9  -7   33.99    1.90
   2  -9  -7   33.02    2.02
  -2  -9   7   32.09    1.88
  -2  -9   7   33.48    2.02
   2  -9  -7   33.37    1.88
  -2   9   7   27.90    1.88
  -2   9   7   28.35    1.93
   2   9  -7   29.54    1.86
   2   9  -7   28.70    1.86
   2   9  -7   26.96    2.10
  -1  -9   7   10.58    1.06
   1  -9  -7   11.30    1.04
  -1  -9   7   11.92    1.20
   1  -9  -7   11.87    1.26
   1  -9  -7   11.13    1.41
   1  -9  -7   10.62    1.18
  -1   9   7   13.85    1.23
  -1   9   7   12.67    1.34
   1   9  -7   14.22    1.02
   1   9  -7   11.46    1.39
   1   9  -7   12.25    1.02
   0  -9  -7    0.37    0.67
   0  -9  -7    0.55    0.62
   0  -9   7    0.53    0.44
   0  -9  -7    0.38    0.53
   0  -9  -7    0.42    0.46
   0   9  -7    0.04    0.38
   0   9  -7    0.28    0.40
   0   9   7    0.62    0.70
   0   9  -7   -0.17    0.66
   0   9   7    0.27    0.48
   1  -9   7   10.42    1.18
  -1  -9  -7   11.14    1.43
  -1  -9  -7   12.88    1.26
  -1  -9  -7   11.47    1.49
  -1   9  -7   10.11    1.07
  -1   9  -7    9.76    1.31
   1   9   7   10.38    1.22
  -1   9  -7   10.81    1.03
   1   9   7    9.44    1.07
  -2  -9  -7   18.41    1.92
   2  -9   7   18.24    1.58
  -2  -9  -7   20.29    1.85
  -2  -9  -7   19.46    1.65
  -2   9  -7   18.05    1.44
  -2   9  -7   17.22    1.50
  -2   9  -7   18.83    1.63
   2   9   7   18.81    2.09
   3 -10  -7    8.61    1.08
  -3 -10   7    8.59    1.04
   3 -10  -7    8.22    0.97
   3 -10  -7    8.56    1.06
  -3 -10   7    5.72    0.90
   3  10  -7    7.55    1.06
  -3  10   7   10.08    1.09
   3  10  -7    8.32    0.89
  -3  10   7    8.47    1.00
   3  10  -7   10.16    1.30
   3  10  -7   11.10    1.12
   2 -10  -7    1.47    0.73
  -2 -10   7    0.81    0.65
  -2 -10   7    0.75    0.56
   2 -10  -7    0.30    0.48
   2 -10  -7    0.99    0.78
   2 -10  -7    0.74    0.60
   2  10  -7    0.90    0.48
  -2  10   7    0.29    0.64
   2  10  -7    0.67    0.84
  -2  10   7    0.87    0.65
  -1 -10   7    6.16    0.74
  -1 -10   7    7.42    0.95
   1 -10  -7    7.69    0.95
   1 -10  -7    8.66    0.96
   1 -10  -7    7.01    1.02
   1 -10  -7    7.75    1.00
   1  10  -7    8.12    0.92
   1  10  -7    8.83    1.10
  -1  10   7    9.04    1.05
  -1  10   7    8.98    0.98
   0 -10   7   13.81    1.27
   0 -10  -7   14.76    1.70
   0 -10   7   12.99    1.28
   0 -10  -7   14.03    1.50
   0 -10  -7   11.74    1.40
   0 -10  -7   12.54    1.26
   0  10   7   11.75    1.34
   0  10  -7   13.09    1.59
   0  10  -7   13.47    1.19
   0  10   7   15.59    1.73
   7   0  -8    9.23    1.04
   7   0  -8    7.16    0.82
  -7   0   8    7.72    0.97
  -7   0   8    8.12    1.05
   7   0  -8    8.78    1.14
  -6   0   8   16.43    1.35
  -6   0   8   16.46    1.44
   6   0  -8   17.69    1.40
   6   0  -8   16.84    1.19
   5   0  -8   63.00    3.37
  -5   0   8   63.54    3.39
  -5   0   8   62.29    3.30
   5   0  -8   66.87    3.33
   4   0  -8    1.26    0.47
  -4   0   8    1.81    0.51
  -4   0   8    1.92    0.39
  -4   0   8    1.31    0.30
  -3   0   8   35.32    1.88
   3   0  -8   33.69    1.89
  -3   0   8   34.12    1.99
   3   0  -8   34.08    1.97
   2   0  -8   57.09    2.85
   2   0  -8   54.79    2.96
  -2   0   8   57.19    2.83
  -2   0   8   53.72    2.96
   1   0  -8    7.47    0.71
   1   0  -8    7.16    0.82
  -1   0   8    8.06    0.87
  -1   0   8    6.99    0.66
   0   0  -8   21.32    1.56
   0   0   8   25.82    1.42
   0   0   8   23.91    1.52
   0   0  -8   23.65    1.51
   0   0  -8   24.11    1.43
   1   0   8   92.54    4.61
   1   0   8   94.53    4.85
  -1   0  -8   99.14    4.64
  -1   0  -8   95.13    5.17
  -1   0  -8   97.41    4.86
   2   0   8    0.40    0.36
  -2   0  -8    0.28    0.38
   2   0   8    0.16    0.41
  -2   0  -8   -0.12    0.33
   3   0   8    8.16    0.83
  -3   0  -8    7.50    0.87
   3   0   8    8.99    0.97
  -3   0  -8    7.33    0.95
  -4   0  -8   18.61    1.34
  -4   0  -8   15.48    1.47
   4   0   8   19.57    1.54
   4   0   8   18.02    1.43
   7  -1  -8   14.20    1.38
  -7  -1   8   14.43    1.42
   7  -1  -8   14.39    1.33
  -7  -1   8   14.52    1.64
   7  -1  -8   11.11    1.20
   7   1  -8   10.05    1.13
  -7   1   8   13.47    1.45
  -7   1   8   13.42    1.33
   7   1  -8   12.97    1.39
   7   1  -8   13.20    1.51
  -6  -1   8    1.93    0.56
   6  -1  -8    1.78    0.56
  -6  -1   8    1.53    0.71
   6  -1  -8    1.59    0.44
   6   1  -8    1.19    0.61
   6   1  -8    1.13    0.42
  -6   1   8    1.06    0.60
  -6   1   8    1.38    0.56
  -5  -1   8   11.65    1.22
   5  -1  -8   12.36    1.09
  -5  -1   8   13.27    1.08
   5   1  -8   11.68    1.16
   5   1  -8   12.48    0.94
  -5   1   8   12.20    1.16
  -5   1   8   12.10    1.05
   4  -1  -8   31.48    1.97
  -4  -1   8   32.57    1.89
  -4  -1   8   32.46    2.02
   4  -1  -8   34.74    1.94
  -4   1   8   34.92    1.99
   4   1  -8   37.32    2.03
  -4   1   8   35.05    1.92
  -4   1   8   34.30    1.74
   3  -1  -8    1.84    0.47
  -3  -1   8    1.48    0.32
   3  -1  -8    2.33    0.39
  -3  -1   8    1.77    0.47
   3   1  -8    0.90    0.39
  -3   1   8    1.13    0.33
  -3   1   8    0.94    0.30
  -3   1   8    0.92    0.44
   2  -1  -8   27.31    1.59
  -2  -1   8   28.22    1.58
  -2  -1   8   28.60    1.72
   2  -1  -8   27.44    1.69
  -2   1   8   29.37    1.58
  -2   1   8   26.94    1.69
   2   1  -8   27.19    1.69
  -2   1   8   29.12    1.57
   1  -1  -8  106.33    5.25
   1  -1  -8  102.49    5.07
  -1  -1   8  101.74    5.24
  -1  -1   8  111.26    5.08
   1   1  -8  102.88    5.24
  -1   1   8  104.05    5.24
  -1   1   8  106.37    5.06
   0  -1   8  140.42    6.60
   0  -1  -8  141.46    6.37
   0  -1  -8  138.57    6.60
   0  -1  -8  139.06    7.02
   0  -1   8  137.58    6.35
   0   1  -8  120.43    6.96
   0   1   8  130.69    6.34
   0   1   8  128.09    6.58
   0   1  -8  125.56    6.56
   1  -1   8   68.59    3.36
  -1  -1  -8   65.28    3.38
   1  -1   8   64.24    3.18
  -1  -1  -8   70.36    3.63
  -1  -1  -8   67.94    3.21
   1   1   8   57.20    3.36
   1   1   8   60.44    3.17
  -1   1  -8   59.94    3.55
  -1   1  -8   59.21    3.32
   2  -1   8   19.75    1.41
   2  -1   8   21.18    1.30
  -2  -1  -8   22.06    1.35
  -2  -1  -8   21.80    1.49
  -2  -1  -8   21.37    1.54
  -2   1  -8   21.23    1.39
   2   1   8   21.94    1.38
   2   1   8   22.21    1.53
  -2   1  -8   22.00    1.56
   2   1   8   21.13    1.32
   3  -1   8   31.62    1.72
  -3  -1  -8   28.62    2.02
   3  -1   8   30.33    1.88
  -3  -1  -8   30.48    1.94
  -3   1  -8   31.56    2.07
   3   1   8   31.99    2.04
   3   1   8   30.95    1.75
   3   1   8   32.47    1.88
  -3   1  -8   32.82    1.91
  -4  -1  -8    1.07    0.57
  -4  -1  -8    0.69    0.49
   4  -1   8    1.01    0.54
   4   1   8    1.64    0.63
  -4   1  -8    0.36    0.58
   4   1   8    1.62    0.61
  -4   1  -8    0.36    0.47
  -7  -2   8    7.07    0.98
   7  -2  -8    7.84    0.91
   7  -2  -8    6.75    0.88
  -7  -2   8    8.22    1.14
   7   2  -8    6.71    0.96
  -7   2   8    7.32    0.92
  -7   2   8    6.87    0.93
   7   2  -8    6.38    0.78
   7   2  -8    7.54    1.04
   6  -2  -8   32.15    2.00
   6  -2  -8   31.01    1.91
  -6  -2   8   33.40    2.06
  -6  -2   8   29.69    2.16
   6   2  -8   34.71    1.95
  -6   2   8   33.50    1.98
  -6   2   8   33.23    2.00
   6   2  -8   34.93    2.17
   5  -2  -8   12.73    1.20
   5  -2  -8   14.13    1.18
  -5  -2   8   15.07    1.35
  -5  -2   8   15.10    0.89
  -5  -2   8   14.43    1.18
   5   2  -8   13.71    1.30
  -5   2   8   17.92    1.23
   5   2  -8   15.88    1.12
  -5   2   8   16.67    1.18
  -4  -2   8    1.02    0.50
  -4  -2   8    1.02    0.35
   4  -2  -8    0.63    0.39
   4  -2  -8    0.19    0.42
  -4   2   8    0.36    0.33
  -4   2   8    0.58    0.45
   4   2  -8    0.70    0.45
  -4   2   8    0.70    0.28
   3  -2  -8   53.65    2.86
  -3  -2   8   51.19    2.88
   3  -2  -8   52.94    2.78
  -3  -2   8   52.34    2.76
   3   2  -8   52.73    2.87
  -3   2   8   54.67    2.86
  -3   2   8   56.65    2.77
  -3   2   8   54.73    2.69
  -2  -2   8   27.88    1.60
  -2  -2   8   24.22    1.44
   2  -2  -8   24.69    1.46
   2  -2  -8   24.99    1.55
   2   2  -8   23.96    1.56
  -2   2   8   24.11    1.57
  -2   2   8   24.82    1.43
  -2   2   8   24.80    1.44
  -1  -2   8    1.25    0.33
   1  -2  -8    1.51    0.41
  -1  -2   8    1.40    0.43
   1  -2  -8    0.83    0.31
  -1   2   8    0.93    0.44
  -1   2   8    1.18    0.36
  -1   2   8    0.93    0.27
   1   2  -8    0.83    0.37
   0  -2  -8   53.29    2.88
   0  -2   8   48.61    2.95
   0  -2  -8   48.07    3.15
   0  -2   8   49.63    2.85
   0  -2  -8   49.50    2.99
   0   2  -8   67.70    3.06
   0   2   8   63.86    2.91
   0   2   8   63.86    2.96
   0   2  -8   65.53    3.25
  -1  -2  -8   15.30    1.08
   1  -2   8   16.32    1.05
  -1  -2  -8   16.13    1.22
   1  -2   8   15.84    1.08
  -1  -2  -8   15.63    1.20
   1   2   8   12.99    1.03
   1   2   8   14.57    1.24
  -1   2  -8   12.53    1.19
   1   2   8   12.97    1.03
  -1   2  -8   14.29    1.06
  -2  -2  -8   19.00    1.24
  -2  -2  -8   15.66    1.37
  -2  -2  -8   18.54    1.41
   2  -2   8   17.92    1.24
   2  -2   8   19.08    1.19
   2   2   8   18.16    1.23
   2   2   8   17.07    1.21
  -2   2  -8   18.35    1.25
   2   2   8   18.81    1.46
  -2   2  -8   19.09    1.48
  -3  -2  -8    8.36    1.00
   3  -2   8    8.43    0.90
  -3  -2  -8    9.11    0.89
   3  -2   8    8.63    0.83
  -3  -2  -8    8.48    0.96
   3   2   8    8.44    0.91
  -3   2  -8    9.89    0.89
   3   2   8    9.26    1.06
  -3   2  -8    9.58    1.08
   4  -2   8   19.30    1.48
  -4  -2  -8   19.70    1.62
  -4  -2  -8   19.63    1.58
   4  -2   8   21.83    1.24
  -4   2  -8   20.63    1.45
   4   2   8   21.03    1.76
   4   2   8   21.00    1.62
  -4   2  -8   19.67    1.79
   7  -3  -8    4.07    0.76
  -7  -3   8    4.77    0.89
  -7  -3   8    4.19    1.09
   7   3  -8    6.01    0.98
   7   3  -8    4.15    0.69
   7   3  -8    5.83    1.05
  -7   3   8    6.05    0.90
   6  -3  -8    5.36    0.74
  -6  -3   8    4.82    0.79
   6  -3  -8    4.17    0.75
   6  -3  -8    5.45    0.66
  -6  -3   8    5.60    0.93
  -6   3   8    4.16    0.66
   6   3  -8    4.64    0.83
  -6   3   8    5.08    0.74
   6   3  -8    5.11    0.67
   5  -3  -8   12.11    1.16
   5  -3  -8   13.10    1.14
  -5  -3   8   13.30    0.89
  -5  -3   8   11.86    1.30
  -5  -3   8   13.67    1.15
   5   3  -8   13.78    1.31
  -5   3   8   13.32    1.13
   5   3  -8   13.98    1.10
  -5   3   8   13.91    1.11
   4  -3  -8   70.59    3.86
  -4  -3   8   77.56    3.86
  -4  -3   8   70.73    4.00
   4  -3  -8   75.72    3.92
  -4   3   8   76.80    3.91
   4   3  -8   78.60    3.98
  -4   3   8   77.28    3.86
   4   3  -8   82.91    4.04
  -4   3   8   80.66    3.71
  -3  -3   8   17.78    1.17
  -3  -3   8   18.06    1.35
   3  -3  -8   18.09    1.26
   3  -3  -8   17.87    1.19
  -3   3   8   18.72    1.29
  -3   3   8   17.18    1.15
   3   3  -8   17.14    1.28
  -3   3   8   19.01    1.13
   2  -3  -8   19.88    1.33
   2  -3  -8   19.15    1.23
  -2  -3   8   19.21    1.36
  -2  -3   8   20.01    1.21
   2   3  -8   20.65    1.32
  -2   3   8   17.84    1.19
  -2   3   8   18.85    1.33
  -2   3   8   18.56    1.21
  -1  -3   8  140.39    7.28
   1  -3  -8  158.58    7.33
  -1  -3   8  155.58    7.54
   1  -3  -8  150.37    7.53
   1   3  -8  155.74    7.54
  -1   3   8  158.62    7.37
  -1   3   8  157.69    7.31
  -1   3   8  153.99    7.52
   0  -3   8    1.32    0.41
   0  -3  -8    1.29    0.43
   0  -3   8    1.41    0.39
   0   3   8    2.97    0.45
   0   3   8    2.69    0.46
   0   3  -8    2.68    0.45
   0   3  -8    4.27    0.71
   0   3   8    3.16    0.61
  -1  -3  -8    3.80    0.57
   1  -3   8    3.25    0.52
   1  -3   8    3.31    0.52
  -1  -3  -8    3.09    0.58
  -1  -3  -8    3.66    0.59
  -1   3  -8    5.30    0.77
   1   3   8    3.88    0.51
  -1   3  -8    3.92    0.52
   1   3   8    3.67    0.54
   1   3   8    3.43    0.67
  -2  -3  -8  134.38    6.00
   2  -3   8  126.01    6.19
  -2  -3  -8  126.16    6.66
   2  -3   8  127.75    5.93
  -2  -3  -8  112.01    6.24
  -2   3  -8  124.72    6.21
  -2   3  -8  123.24    6.63
   2   3   8  123.51    6.13
   2   3   8  123.34    6.29
  -3  -3  -8   10.26    0.99
  -3  -3  -8    8.26    1.04
  -3  -3  -8   10.30    1.17
   3  -3   8   10.34    0.93
   3  -3   8   10.54    0.88
   3   3   8    8.28    0.95
  -3   3  -8    8.12    0.86
  -3   3  -8    7.75    0.95
   3   3   8    7.74    1.03
   4  -3   8    0.65    0.56
   4  -3   8    0.81    0.43
  -4  -3  -8    1.00    0.63
  -4  -3  -8    1.58    0.66
  -4  -3  -8    1.15    0.54
  -4   3  -8    0.15    0.75
   4   3   8   -0.25    0.63
   4   3   8    0.84    0.80
  -4   3  -8    0.76    0.49
  -6  -4   8   38.94    2.55
  -6  -4   8   40.55    1.97
   6  -4  -8   37.29    2.15
  -6  -4   8   37.13    2.35
   6  -4  -8   39.79    2.27
   6  -4  -8   38.12    2.34
   6   4  -8   40.18    2.50
  -6   4   8   37.71    2.28
   6   4  -8   36.58    2.32
  -5  -4   8   12.09    0.93
  -5  -4   8   13.52    1.16
  -5  -4   8   10.79    1.30
   5  -4  -8   12.03    1.17
   5  -4  -8   13.02    1.13
   5   4  -8   11.46    1.14
   5   4  -8   13.55    1.27
  -5   4   8   11.11    1.02
  -5   4   8   11.94    0.79
  -5   4   8   12.07    1.13
   4  -4  -8   23.43    1.53
  -4  -4   8   23.28    1.46
   4  -4  -8   23.54    1.50
  -4  -4   8   20.06    1.64
  -4  -4   8   23.24    1.40
  -4   4   8   24.07    1.49
   4   4  -8   22.95    1.57
  -4   4   8   25.17    1.35
   4   4  -8   22.92    1.62
  -4   4   8   23.58    1.49
  -3  -4   8   16.73    1.38
   3  -4  -8   17.62    1.22
  -3  -4   8   18.10    1.19
   3  -4  -8   19.85    1.29
   3   4  -8   19.23    1.36
  -3   4   8   19.34    1.17
  -3   4   8   17.34    1.29
  -3   4   8   18.75    1.20
   2  -4  -8   33.13    1.88
  -2  -4   8   32.48    1.84
   2  -4  -8   36.04    1.98
  -2  -4   8   31.37    1.95
   2   4  -8   33.13    1.95
  -2   4   8   34.52    1.88
  -2   4   8   34.63    1.96
  -2   4   8   32.91    1.86
   1  -4  -8    5.34    0.66
  -1  -4   8    5.99    0.72
   1  -4  -8    5.66    0.70
  -1  -4   8    3.96    0.55
   1   4  -8    6.13    0.71
  -1   4   8    4.04    0.53
  -1   4   8    4.39    0.59
  -1   4   8    5.90    0.71
   0  -4  -8   37.47    2.10
   0  -4   8   36.67    2.08
   0  -4  -8   40.56    2.34
   0  -4  -8   38.37    2.23
   0  -4   8   37.03    2.13
   0   4   8   38.10    2.24
   0   4  -8   38.43    2.32
   0   4   8   37.78    2.11
   0   4   8   37.23    2.08
   0   4  -8   36.58    2.13
  -1  -4  -8   14.89    1.28
   1  -4   8   12.41    1.05
   1  -4   8   14.46    1.13
  -1  -4  -8   14.75    1.30
  -1  -4  -8   14.36    1.16
   1   4   8   17.28    1.40
   1   4   8   16.03    1.15
  -1   4  -8   16.32    1.37
  -1   4  -8   16.93    1.10
   1   4   8   16.49    1.13
  -2  -4  -8    0.51    0.55
   2  -4   8    1.14    0.40
   2  -4   8    0.30    0.42
  -2  -4  -8    0.59    0.47
  -2  -4  -8    0.66    0.48
  -2   4  -8    0.51    0.34
   2   4   8    0.22    0.39
   2   4   8    0.12    0.61
  -2   4  -8    0.18    0.48
  -3  -4  -8    4.04    0.71
  -3  -4  -8    4.35    0.67
  -3  -4  -8    3.37    0.73
   3  -4   8    4.55    0.59
   3  -4   8    5.33    0.62
   3   4   8    2.29    0.52
   3   4   8    4.17    0.93
  -3   4  -8    2.72    0.73
  -3   4  -8    3.04    0.55
  -4  -4  -8    7.01    1.03
  -4  -4  -8    9.02    0.93
   4  -4   8    8.32    0.87
   4  -4   8    8.84    1.16
  -4  -4  -8    7.13    1.04
   4   4   8    8.09    1.05
  -4   4  -8    8.45    1.17
  -4   4  -8    9.31    1.06
   4   4   8    9.46    1.26
   6  -5  -8    0.20    0.58
  -6  -5   8    0.62    0.71
  -6  -5   8    0.08    0.43
   6  -5  -8    0.00    0.47
   6  -5  -8    1.17    0.68
  -6  -5   8    0.80    0.88
   6   5  -8    0.29    0.66
  -6   5   8    0.36    0.46
   6   5  -8    0.27    0.68
   6   5  -8   -0.20    0.64
  -6   5   8    1.61    0.69
  -5  -5   8   19.35    1.67
   5  -5  -8   19.37    1.48
  -5  -5   8   18.92    1.26
   5  -5  -8   19.35    1.36
  -5  -5   8   18.28    1.41
   5   5  -8   16.81    1.50
   5   5  -8   16.72    1.51
  -5   5   8   17.38    1.44
  -4  -5   8   24.97    1.79
   4  -5  -8   23.61    1.63
  -4  -5   8   23.45    1.53
   4  -5  -8   25.18    1.58
  -4  -5   8   25.81    1.56
   4   5  -8   26.82    1.76
  -4   5   8   25.47    1.46
  -4   5   8   25.63    1.56
  -4   5   8   26.68    1.62
   4   5  -8   25.49    1.75
   3  -5  -8   16.97    1.27
   3  -5  -8   15.25    1.20
  -3  -5   8   17.71    1.18
  -3  -5   8   18.09    1.41
  -3   5   8   18.09    1.20
  -3   5   8   19.16    1.20
  -3   5   8   17.01    1.29
   3   5  -8   19.23    1.42
   3   5  -8   20.02    1.40
  -2  -5   8   25.78    1.67
   2  -5  -8   25.52    1.62
   2  -5  -8   22.92    1.53
  -2  -5   8   26.01    1.52
  -2   5   8   26.34    1.55
   2   5  -8   26.38    1.63
  -2   5   8   25.10    1.63
  -2   5   8   28.14    1.57
   1  -5  -8   10.12    0.85
  -1  -5   8    9.34    0.89
   1  -5  -8    9.91    1.01
  -1  -5   8   10.24    0.86
  -1   5   8    8.97    0.77
  -1   5   8    8.09    0.90
  -1   5   8    8.94    1.04
   1   5  -8    7.61    0.82
   1   5  -8    8.29    1.14
   0  -5  -8    7.63    1.02
   0  -5  -8    5.97    0.82
   0  -5  -8    7.65    0.88
   0  -5   8    7.07    0.75
   0  -5   8    7.21    0.87
   0   5   8    8.97    0.85
   0   5  -8    9.89    1.06
   0   5   8    8.33    0.85
   0   5   8    8.48    1.09
   0   5  -8    9.08    0.79
  -1  -5  -8   11.15    1.18
  -1  -5  -8    9.55    1.17
   1  -5   8   10.67    0.96
   1  -5   8   11.20    1.05
  -1  -5  -8   10.44    1.04
  -1   5  -8   11.15    1.16
  -1   5  -8   11.62    0.93
   1   5   8   12.43    1.29
   1   5   8   12.32    0.95
  -2  -5  -8   39.25    2.19
   2  -5   8   39.83    2.15
  -2  -5  -8   36.27    2.42
   2  -5   8   39.25    2.13
  -2  -5  -8   41.42    2.39
   2   5   8   36.09    2.41
  -2   5  -8   36.64    2.13
   2   5   8   34.07    2.15
  -2   5  -8   34.64    2.37
  -3  -5  -8   19.86    1.53
  -3  -5  -8   20.72    1.82
  -3  -5  -8   20.03    1.76
   3  -5   8   18.95    1.41
   3  -5   8   17.69    1.45
  -3   5  -8   21.70    1.77
   3   5   8   22.40    1.95
  -3   5  -8   22.40    1.45
   3   5   8   21.35    1.52
   6  -6  -8   11.08    1.04
   6  -6  -8   12.93    1.14
  -6  -6   8   11.65    1.12
  -6  -6   8   13.22    1.46
   6  -6  -8   12.23    1.48
  -6  -6   8   11.87    1.51
  -6   6   8   10.49    0.92
   6   6  -8   10.36    1.20
   6   6  -8   10.62    1.30
   6   6  -8    8.24    1.19
   5  -6  -8   18.06    1.31
  -5  -6   8   17.91    1.72
  -5  -6   8   18.14    1.46
   5  -6  -8   18.23    1.51
  -5  -6   8   19.09    1.37
  -5   6   8   17.43    1.22
   5   6  -8   18.23    1.66
  -5   6   8   17.72    1.47
   5   6  -8   15.81    1.59
  -4  -6   8    1.21    0.51
  -4  -6   8    1.10    0.40
   4  -6  -8    1.00    0.54
  -4  -6   8    1.41    0.68
  -4   6   8    1.02    0.42
   4   6  -8    0.75    0.65
   4   6  -8    1.02    0.59
  -4   6   8    0.69    0.45
  -3  -6   8   41.59    2.60
   3  -6  -8   44.50    2.47
  -3  -6   8   41.24    2.42
   3  -6  -8   41.26    2.46
  -3   6   8   48.76    2.44
  -3   6   8   43.23    2.47
   3   6  -8   47.52    2.63
   3   6  -8   49.91    2.63
  -3   6   8   48.39    2.46
  -2  -6   8   49.02    2.79
   2  -6  -8   49.65    2.75
   2  -6  -8   49.55    2.67
  -2  -6   8   50.66    2.66
  -2   6   8   51.69    2.75
  -2   6   8   50.29    2.69
  -2   6   8   51.65    2.68
   2   6  -8   49.62    2.75
  -1  -6   8    8.95    0.91
   1  -6  -8    8.02    0.99
   1  -6  -8    9.45    0.86
  -1  -6   8    8.71    0.86
   1   6  -8    8.68    0.84
   1   6  -8    7.90    1.09
  -1   6   8    9.79    0.93
  -1   6   8    8.49    1.09
   0  -6   8   21.67    1.40
   0  -6  -8   21.01    1.44
   0  -6   8   23.53    1.50
   0  -6  -8   22.70    1.75
   0  -6  -8   22.98    1.59
   0   6  -8   20.08    1.54
   0   6   8   21.20    1.66
   0   6  -8   19.26    1.36
   0   6   8   20.87    1.44
  -1  -6  -8   25.26    2.02
   1  -6   8   27.14    1.66
  -1  -6  -8   27.24    1.91
   1  -6   8   27.27    1.73
  -1  -6  -8   26.99    1.76
  -1   6  -8   29.87    1.71
   1   6   8   30.14    2.01
   1   6   8   28.90    1.74
  -1   6  -8   26.52    1.88
   2  -6   8   -0.31    0.53
  -2  -6  -8   -0.20    0.63
  -2  -6  -8   -0.20    0.52
  -2  -6  -8    0.28    0.71
   2  -6   8   -0.68    0.44
  -2   6  -8   -0.08    0.56
  -2   6  -8    0.03    0.37
   2   6   8   -0.47    0.49
   2   6   8    0.79    0.79
   3  -6   8   14.54    1.37
   3  -6   8   12.47    1.43
  -3  -6  -8   16.02    1.67
  -3  -6  -8   16.26    1.47
  -3  -6  -8   14.99    1.73
   3   6   8   18.20    1.95
  -3   6  -8   19.20    1.33
   3   6   8   16.38    1.42
  -3   6  -8   16.53    1.71
  -5  -7   8    4.82    0.77
   5  -7  -8    5.59    0.92
   5  -7  -8    5.33    0.68
  -5  -7   8    4.86    0.88
  -5  -7   8    4.21    1.01
   5   7  -8    5.49    0.85
   5   7  -8    5.22    1.01
  -5   7   8    6.18    0.80
   5   7  -8    7.55    1.04
   4  -7  -8   12.37    1.28
  -4  -7   8   15.17    1.51
  -4  -7   8   15.53    1.17
   4  -7  -8   15.61    1.19
  -4  -7   8   14.81    1.26
  -4   7   8   11.72    1.15
   4   7  -8   12.58    1.52
   4   7  -8   13.00    1.35
  -4   7   8   11.45    1.07
   3  -7  -8    8.07    0.89
  -3  -7   8    7.68    0.82
  -3  -7   8    5.51    0.64
   3  -7  -8    7.81    0.92
  -3  -7   8    6.06    0.86
  -3   7   8    5.35    0.72
   3   7  -8    5.10    0.85
   3   7  -8    6.23    0.80
  -3   7   8    4.89    0.71
   2  -7  -8   21.79    1.40
   2  -7  -8   23.36    1.51
  -2  -7   8   23.60    1.54
  -2   7   8   18.04    1.42
  -2   7   8   17.42    1.46
   2   7  -8   19.88    1.63
   2   7  -8   20.46    1.42
  -1  -7   8   20.95    1.49
  -1  -7   8   26.06    1.57
   1  -7  -8   22.36    1.63
   1  -7  -8   24.12    1.77
   1  -7  -8   21.25    1.48
  -1   7   8   24.21    1.58
   1   7  -8   24.34    1.51
   1   7  -8   22.00    1.60
  -1   7   8   24.02    1.70
   0  -7   8   14.22    1.24
   0  -7  -8   14.69    1.34
   0  -7   8   13.09    1.09
   0  -7  -8   13.71    1.46
   0  -7  -8   12.98    1.15
   0   7   8   13.40    1.43
   0   7  -8   12.27    1.04
   0   7   8   13.55    1.14
   0   7  -8   11.20    1.23
   1  -7   8    5.55    0.80
   1  -7   8    6.22    0.66
  -1  -7  -8    6.20    0.86
  -1  -7  -8    6.41    0.98
  -1  -7  -8    5.58    0.77
  -1   7  -8    5.24    0.78
   1   7   8    4.82    0.60
   1   7   8    5.01    0.93
  -1   7  -8    5.07    0.64
  -2  -7  -8   10.03    1.18
  -2  -7  -8    9.45    1.25
   2  -7   8    9.77    1.13
  -2  -7  -8   10.03    1.22
   2  -7   8   12.14    1.26
   2   7   8    8.11    0.88
  -2   7  -8   10.74    1.02
   2   7   8    9.74    1.24
  -2   7  -8    9.62    1.28
   4  -8  -8    0.28    0.56
   4  -8  -8    0.65    0.63
  -4  -8   8   -0.09    0.61
  -4  -8   8    0.43    0.76
  -4  -8   8    0.30    0.49
  -4   8   8   -0.07    0.49
  -4   8   8    0.35    0.62
   4   8  -8    0.75    0.63
   4   8  -8    0.75    0.86
  -3  -8   8   14.22    1.36
   3  -8  -8   13.97    1.18
  -3  -8   8   12.84    1.33
   3  -8  -8   14.79    1.27
   3   8  -8   13.47    1.29
  -3   8   8   13.72    1.24
   3   8  -8   11.87    1.58
   2  -8  -8    3.94    0.61
  -2  -8   8    4.69    0.65
   2  -8  -8    4.10    0.71
  -2  -8   8    3.96    0.76
   2   8  -8    6.43    0.92
   2   8  -8    5.91    0.72
  -2   8   8    5.30    0.75
   2   8  -8    5.51    0.80
  -2   8   8    6.31    0.82
   1  -8  -8   -0.08    0.55
  -1  -8   8   -0.65    0.45
   1  -8  -8   -0.25    0.64
   1  -8  -8    0.09    0.42
  -1   8   8    0.52    0.69
  -1   8   8    0.63    0.53
   1   8  -8    0.62    0.39
   1   8  -8    1.09    0.65
   1   8  -8    0.20    0.66
   0  -8   8    8.12    1.01
   0  -8  -8   10.15    1.19
   0  -8  -8   11.21    1.30
   0  -8  -8    9.69    1.14
   0   8   8   12.29    1.48
   0   8   8   12.16    1.19
   0   8  -8   11.56    1.18
   0   8  -8   11.20    0.99
  -1  -8  -8   14.54    1.59
  -1  -8  -8   16.62    1.49
   1  -8   8   15.43    1.30
   1  -8   8   15.80    1.49
  -1  -8  -8   15.23    1.75
   1   8   8   16.13    1.35
   1   8   8   17.72    1.86
  -1   8  -8   18.47    1.31
  -1   8  -8   17.73    1.44
   2  -8   8    0.51    0.72
  -2  -8  -8   -0.68    0.70
  -2  -8  -8    1.28    0.86
   2  -8   8   -0.16    0.67
  -2  -8  -8    0.19    0.89
  -2   8  -8    0.54    0.55
   2   8   8   -0.22    0.96
  -2   8  -8    0.49    0.68
   3  -9  -8    1.92    0.66
   3  -9  -8    2.11    0.76
  -3  -9   8    2.79    0.80
   3  -9  -8    2.74    0.69
  -3  -9   8    1.13    0.69
   3   9  -8    4.42    1.01
   3   9  -8    3.65    0.71
  -3   9   8    3.99    0.79
   2  -9  -8    2.06    0.51
  -2  -9   8    2.02    0.74
   2  -9  -8    3.06    0.72
  -2  -9   8    2.70    0.59
   2   9  -8    3.04    0.95
  -2   9   8    2.81    0.78
   2   9  -8    3.52    0.69
  -2   9   8    3.20    0.74
   2   9  -8    4.04    0.61
   1  -9  -8   41.07    2.39
   1  -9  -8   38.49    2.67
   1  -9  -8   40.11    2.27
  -1  -9   8   40.12    2.38
  -1  -9   8   37.46    2.28
  -1   9   8   37.47    2.47
   1   9  -8   34.66    2.28
   1   9  -8   39.68    2.23
   1   9  -8   35.79    2.52
  -1   9   8   39.02    2.38
   0  -9   8    8.70    1.04
   0  -9  -8    7.48    1.14
   0  -9  -8    8.97    1.06
   0  -9  -8    9.04    1.01
   0   9   8    6.66    0.92
   0   9  -8    7.35    0.81
   0   9  -8    7.01    1.06
   0   9  -8    7.72    1.03
   0   9   8    7.05    1.13
  -1  -9  -8    4.60    1.04
   1  -9   8    3.80    0.74
  -1  -9  -8    4.06    0.95
  -1  -9  -8    2.54    0.78
  -1   9  -8    2.62    0.89
   1   9   8    2.62    1.06
  -1   9  -8    1.24    0.59
  -1   9  -8    1.78    0.64
   7   0  -9    1.82    0.81
   7   0  -9    1.32    0.63
  -7   0   9    2.10    0.80
  -7   0   9    1.17    0.87
  -6   0   9    5.01    0.87
  -6   0   9    6.12    0.85
   6   0  -9    5.46    0.62
   6   0  -9    5.74    0.87
  -5   0   9   17.09    0.98
  -5   0   9   16.74    1.48
   5   0  -9   18.18    1.42
  -5   0   9   17.82    1.31
  -4   0   9    1.75    0.40
   4   0  -9    1.82    0.56
  -4   0   9    2.51    0.44
  -4   0   9    1.86    0.59
  -3   0   9   15.32    1.06
   3   0  -9   14.69    1.24
  -3   0   9   15.93    1.27
  -2   0   9   42.54    2.51
  -2   0   9   45.04    2.36
   2   0  -9   45.72    2.38
   2   0  -9   43.96    2.50
  -1   0   9    0.86    0.32
  -1   0   9    0.94    0.50
   1   0  -9    0.66    0.42
   1   0  -9    1.25    0.37
   0   0   9    2.77    0.50
   0   0  -9    1.87    0.48
   0   0   9    2.45    0.59
   0   0  -9    2.41    0.49
   0   0  -9    2.65    0.52
  -1   0  -9    2.47    0.53
   1   0   9    2.30    0.52
   1   0   9    2.77    0.64
  -1   0  -9    2.68    0.55
  -2   0  -9    3.13    0.60
   2   0   9    3.14    0.54
   2   0   9    2.86    0.64
  -2   0  -9    2.35    0.56
   3   0   9    0.59    0.63
  -3   0  -9   -0.36    0.54
  -3   0  -9   -0.01    0.49
   3   0   9   -0.21    0.49
   6  -1  -9   12.51    1.08
  -6  -1   9   12.13    1.29
   6  -1  -9   14.51    1.37
  -6  -1   9   12.89    1.51
   6   1  -9   12.22    1.40
  -6   1   9   13.15    1.43
  -6   1   9   11.55    1.25
   6   1  -9   12.56    1.09
  -5  -1   9    5.92    0.73
  -5  -1   9    5.42    0.58
  -5  -1   9    5.55    0.88
   5  -1  -9    6.39    0.81
  -5   1   9    6.82    0.89
   5   1  -9    6.08    0.80
   5   1  -9    5.55    0.65
  -5   1   9    6.65    0.84
  -4  -1   9   16.49    1.38
   4  -1  -9   15.47    1.28
   4  -1  -9   15.88    1.18
  -4  -1   9   17.70    1.13
  -4   1   9   14.41    0.99
   4   1  -9   14.57    1.28
  -4   1   9   14.03    1.07
  -4   1   9   14.12    1.29
  -3  -1   9   37.47    1.91
  -3  -1   9   35.58    2.08
   3  -1  -9   35.60    1.91
   3  -1  -9   35.89    2.04
  -3   1   9   30.64    1.99
   3   1  -9   28.01    1.99
  -3   1   9   33.81    1.87
  -3   1   9   30.28    1.81
  -2  -1   9    7.70    1.05
  -2  -1   9   10.44    0.81
   2  -1  -9    9.02    1.01
   2  -1  -9    8.76    0.80
  -2   1   9   11.43    0.80
  -2   1   9   10.46    1.06
  -2   1   9   10.55    0.89
   2   1  -9    9.93    1.03
  -1  -1   9   18.09    1.19
   1  -1  -9   19.07    1.22
   1  -1  -9   19.07    1.35
  -1  -1   9   17.85    1.35
  -1   1   9   17.48    1.39
  -1   1   9   18.62    1.19
   1   1  -9   16.74    1.31
  -1   1   9   18.15    1.24
   0  -1  -9  100.03    5.25
   0  -1  -9  102.96    5.58
   0  -1   9  100.05    5.24
   0  -1   9   96.32    5.02
   0  -1  -9  100.01    5.04
   0   1   9  107.91    5.05
   0   1   9  105.96    5.27
   0   1  -9  107.49    5.26
   0   1  -9  113.26    5.63
  -1  -1  -9   60.48    2.93
  -1  -1  -9   61.46    3.31
   1  -1   9   59.45    3.07
  -1  -1  -9   56.39    3.08
   1  -1   9   50.27    2.85
  -1   1  -9   55.80    3.05
   1   1   9   51.25    2.93
   1   1   9   54.70    3.12
  -1   1  -9   54.93    3.26
   1   1   9   55.34    2.90
  -2  -1  -9    5.75    0.78
   2  -1   9    6.81    0.82
  -2  -1  -9    5.55    0.76
   2  -1   9    5.42    0.73
  -2  -1  -9    7.70    0.90
   2   1   9    6.56    0.71
   2   1   9    7.07    0.82
  -2   1  -9    5.24    0.76
   2   1   9    6.96    0.94
  -2   1  -9    7.49    0.87
   3  -1   9   31.00    2.04
  -3  -1  -9   29.52    2.15
   3  -1   9   32.17    1.84
  -3  -1  -9   31.09    2.07
   3   1   9   33.96    2.22
  -3   1  -9   32.17    2.23
   3   1   9   31.15    1.97
   3   1   9   33.99    1.90
  -3   1  -9   33.02    2.01
   6  -2  -9    4.18    0.79
  -6  -2   9    3.64    0.75
  -6  -2   9    2.91    0.83
   6  -2  -9    3.37    0.61
  -6   2   9    2.65    0.67
   6   2  -9    1.98    0.50
  -6   2   9    1.91    0.71
   6   2  -9    2.85    0.81
  -5  -2   9   20.98    1.53
  -5  -2   9   21.86    1.29
   5  -2  -9   21.06    1.62
  -5  -2   9   20.83    1.77
   5  -2  -9   23.19    1.59
  -5   2   9   23.67    1.55
   5   2  -9   23.58    1.51
  -5   2   9   25.98    1.70
   5   2  -9   23.08    1.69
   4  -2  -9    5.78    0.79
   4  -2  -9    7.93    1.02
  -4  -2   9    7.11    0.79
  -4  -2   9    6.98    0.90
  -4   2   9    9.41    0.75
  -4   2   9    9.55    0.84
   4   2  -9    9.86    1.06
  -4   2   9    8.70    1.07
  -3  -2   9    6.46    0.86
   3  -2  -9    9.22    1.00
   3  -2  -9    6.68    0.77
  -3  -2   9    8.91    0.80
  -3   2   9    9.48    0.79
  -3   2   9   10.04    0.82
  -3   2   9    9.79    1.05
   3   2  -9   10.39    1.05
  -2  -2   9   14.44    0.98
   2  -2  -9   14.66    1.16
   2  -2  -9   13.61    1.00
  -2  -2   9   14.63    1.24
  -2   2   9   12.93    0.95
  -2   2   9   13.77    1.21
   2   2  -9   13.48    1.17
  -2   2   9   13.20    1.03
  -1  -2   9   35.05    1.93
   1  -2  -9   31.87    2.03
   1  -2  -9   31.27    1.91
  -1  -2   9   32.97    2.04
  -1   2   9   34.39    1.94
  -1   2   9   37.29    1.92
   1   2  -9   33.78    2.03
  -1   2   9   35.14    2.07
   0  -2  -9    3.66    0.56
   0  -2   9    4.36    0.59
   0  -2   9    5.05    0.67
   0  -2  -9    5.08    0.71
   0  -2  -9    5.27    0.73
   0   2   9    4.70    0.73
   0   2   9    4.36    0.61
   0   2  -9    5.40    0.74
   0   2   9    5.04    0.62
   0   2  -9    4.76    0.64
   1  -2   9   38.57    2.14
  -1  -2  -9   41.75    2.20
  -1  -2  -9   40.41    2.47
   1  -2   9   39.26    2.27
  -1  -2  -9   39.11    2.35
  -1   2  -9   39.33    2.25
   1   2   9   40.40    2.20
   1   2   9   36.01    2.38
   1   2   9   37.54    2.16
  -1   2  -9   38.91    2.47
  -2  -2  -9    9.18    1.07
   2  -2   9    9.81    0.98
   2  -2   9   10.29    0.96
  -2  -2  -9    9.27    1.00
  -2  -2  -9   10.59    1.18
  -2   2  -9    7.49    0.96
   2   2   9   10.57    1.05
   2   2   9   12.39    1.38
   2   2   9   11.62    0.98
  -2   2  -9    9.68    0.98
  -3  -2  -9    1.66    0.58
  -3  -2  -9    1.51    0.58
  -3  -2  -9    0.60    0.62
   3  -2   9    1.34    0.53
   3  -2   9    1.04    0.52
   3   2   9    1.31    0.79
   3   2   9    0.95    0.55
  -3   2  -9    0.82    0.66
  -3   2  -9    1.37    0.50
  -6  -3   9   12.56    1.70
   6  -3  -9   12.79    1.39
   6  -3  -9   13.20    1.24
   6  -3  -9   15.70    1.40
  -6  -3   9   15.61    1.45
   6   3  -9   13.77    1.59
  -6   3   9   13.05    1.34
   6   3  -9   12.36    1.23
  -6   3   9   12.95    1.37
  -5  -3   9    0.32    0.65
  -5  -3   9    0.66    0.51
   5  -3  -9    0.94    0.49
  -5  -3   9    1.10    0.41
   5  -3  -9    1.38    0.59
   5   3  -9    1.23    0.64
  -5   3   9    1.00    0.55
  -5   3   9    1.08    0.61
  -5   3   9    1.19    0.32
   5   3  -9    1.18    0.51
   4  -3  -9   40.96    2.33
   4  -3  -9   38.12    2.25
  -4  -3   9   40.33    2.24
  -4  -3   9   39.46    2.43
   4   3  -9   39.39    2.38
  -4   3   9   40.46    2.24
  -4   3   9   40.81    2.33
  -4   3   9   40.28    2.09
  -3  -3   9   52.60    3.13
   3  -3  -9   59.09    3.08
   3  -3  -9   57.17    2.99
  -3  -3   9   59.35    3.00
  -3   3   9   58.32    2.97
  -3   3   9   56.25    2.91
   3   3  -9   60.34    3.13
  -3   3   9   54.08    3.07
  -2  -3   9    8.13    0.75
   2  -3  -9    9.00    0.95
   2  -3  -9    6.39    0.74
  -2  -3   9    8.80    1.02
  -2   3   9    7.94    1.02
   2   3  -9    7.01    0.93
  -2   3   9    7.07    0.72
  -2   3   9    6.91    0.81
  -1  -3   9   25.23    1.55
  -1  -3   9   21.42    1.61
   1  -3  -9   23.59    1.66
   1  -3  -9   23.15    1.52
   1   3  -9   27.13    1.65
  -1   3   9   26.99    1.70
  -1   3   9   25.81    1.57
  -1   3   9   24.50    1.50
   0  -3  -9   50.52    2.74
   0  -3  -9   56.12    3.03
   0  -3  -9   55.20    2.90
   0  -3   9   50.74    2.83
   0  -3   9   51.95    2.73
   0   3   9   49.56    2.75
   0   3  -9   49.07    2.81
   0   3   9   48.79    2.70
   0   3  -9   49.69    3.02
   0   3   9   53.09    2.92
   1  -3   9    9.78    0.91
  -1  -3  -9   10.50    1.14
  -1   3  -9    5.61    0.82
   1   3   9    6.19    0.75
  -1   3  -9    6.98    0.78
   1   3   9    6.88    0.92
   1   3   9    6.31    0.77
  -2  -3  -9   -0.18    0.47
  -2  -3  -9    0.49    0.60
   2  -3   9    1.21    0.51
  -2  -3  -9    0.56    0.51
   2  -3   9    1.43    0.44
   2   3   9    0.00    0.70
   2   3   9   -0.21    0.46
  -2   3  -9    1.04    0.68
  -2   3  -9    0.89    0.41
  -3  -3  -9   19.13    1.45
  -3  -3  -9   20.47    1.70
   3  -3   9   17.82    1.42
   3  -3   9   19.46    1.36
  -3  -3  -9   15.69    1.60
  -3   3  -9   22.74    1.42
   3   3   9   18.39    1.48
   3   3   9   20.39    1.95
  -3   3  -9   19.36    1.82
   6  -4  -9    3.78    0.76
   6  -4  -9    3.80    0.77
  -6  -4   9    4.03    0.52
  -6  -4   9    3.36    0.84
  -6  -4   9    4.09    1.02
   6  -4  -9    3.15    0.68
   6   4  -9    2.98    0.70
  -6   4   9    2.26    0.74
   6   4  -9    2.70    0.93
  -5  -4   9   23.67    1.89
   5  -4  -9   23.48    1.64
   5  -4  -9   23.02    1.68
  -5  -4   9   24.57    1.46
  -5  -4   9   25.16    1.67
  -5   4   9   22.80    1.32
  -5   4   9   22.16    1.64
   5   4  -9   23.31    1.71
   5   4  -9   23.91    1.80
  -5   4   9   22.45    1.63
   4  -4  -9   29.91    1.93
   4  -4  -9   30.83    1.93
  -4  -4   9   30.23    2.14
  -4  -4   9   31.26    1.87
   4   4  -9   33.06    2.08
  -4   4   9   33.31    1.78
  -4   4   9   31.71    1.89
   4   4  -9   31.23    2.06
  -4   4   9   33.38    1.96
  -3  -4   9    5.08    0.78
  -3  -4   9    5.51    0.72
   3  -4  -9    4.99    0.69
   3  -4  -9    5.36    0.66
  -3   4   9    4.62    0.58
  -3   4   9    3.87    0.52
   3   4  -9    4.28    0.73
  -3   4   9    3.13    0.65
  -2  -4   9   27.19    1.87
   2  -4  -9   30.17    1.85
  -2  -4   9   29.29    1.70
   2  -4  -9   26.47    1.69
  -2   4   9   27.64    1.84
  -2   4   9   29.84    1.72
  -2   4   9   29.95    1.69
   2   4  -9   28.94    1.84
   1  -4  -9   12.38    1.21
  -1  -4   9   13.00    1.17
   1  -4  -9   12.96    1.09
  -1  -4   9   11.92    1.09
  -1   4   9   15.96    1.18
   1   4  -9   14.18    1.31
   1   4  -9   14.70    1.16
  -1   4   9   16.06    1.29
  -1   4   9   15.42    1.06
   0  -4   9    4.64    0.65
   0  -4  -9    5.59    0.72
   0  -4  -9    4.88    0.76
   0  -4   9    5.17    0.72
   0  -4  -9    5.35    0.74
   0   4   9    4.93    0.65
   0   4   9    4.48    0.64
   0   4   9    5.21    0.84
   0   4  -9    4.57    0.60
   0   4  -9    5.29    0.77
  -1  -4  -9   27.79    1.80
  -1  -4  -9   28.04    1.97
   1  -4   9   24.87    1.72
   1  -4   9   29.10    1.79
  -1  -4  -9   24.55    1.92
  -1   4  -9   27.84    1.98
   1   4   9   30.79    1.78
  -1   4  -9   30.51    1.78
   1   4   9   29.34    1.78
   1   4   9   32.12    2.09
  -2  -4  -9   48.62    3.08
   2  -4   9   53.45    2.91
  -2  -4  -9   50.41    3.22
   2  -4   9   53.28    2.81
  -2  -4  -9   46.99    2.83
   2   4   9   56.16    3.21
   2   4   9   54.80    2.91
  -2   4  -9   51.66    3.20
  -2   4  -9   59.05    2.93
  -3  -4  -9    0.51    0.64
   3  -4   9    1.27    0.60
   3  -4   9   -0.31    0.56
  -3  -4  -9    0.47    0.73
  -3  -4  -9    0.36    0.66
   3   4   9    0.92    0.94
  -3   4  -9    1.48    0.78
  -3   4  -9    0.32    0.47
   3   4   9   -0.06    0.62
  -6  -5   9   11.37    1.45
   6  -5  -9   11.51    1.47
   6  -5  -9   12.07    1.22
  -6  -5   9    9.07    1.17
   6  -5  -9    9.91    1.31
  -6  -5   9   10.95    1.08
  -6   5   9    9.09    1.12
   6   5  -9   10.70    1.34
  -6   5   9   10.40    1.16
   6   5  -9    9.27    1.15
  -5  -5   9    1.51    0.55
  -5  -5   9    0.97    0.81
  -5  -5   9    0.88    0.59
   5  -5  -9    1.33    0.64
   5  -5  -9    1.51    0.58
   5   5  -9    0.96    0.70
  -5   5   9    1.12    0.45
  -5   5   9    0.33    0.57
   5   5  -9   -0.14    0.65
  -5   5   9    0.38    0.54
  -4  -5   9   16.57    1.29
  -4  -5   9   16.65    1.24
  -4  -5   9   16.53    1.60
   4  -5  -9   14.52    1.30
   4  -5  -9   16.25    1.35
  -4   5   9   17.33    1.33
   4   5  -9   16.99    1.51
  -4   5   9   18.04    1.20
   4   5  -9   17.44    1.50
  -4   5   9   17.00    1.31
  -3  -5   9   53.60    2.84
   3  -5  -9   54.56    2.94
  -3  -5   9   58.01    3.10
   3  -5  -9   55.74    2.89
   3   5  -9   53.02    3.01
  -3   5   9   49.91    2.80
  -3   5   9   52.15    2.81
  -3   5   9   51.31    2.91
   2  -5  -9   23.65    1.48
  -2  -5   9   23.54    1.48
  -2  -5   9   23.81    1.65
   2  -5  -9   22.66    1.59
  -2   5   9   20.30    1.40
   2   5  -9   23.73    1.58
  -2   5   9   24.29    1.54
  -2   5   9   21.39    1.62
   1  -5  -9   17.43    1.26
   1  -5  -9   18.43    1.43
  -1  -5   9   18.28    1.30
  -1  -5   9   17.27    1.32
  -1   5   9   16.44    1.21
  -1   5   9   17.72    1.33
   1   5  -9   16.05    1.40
   1   5  -9   16.89    1.28
  -1   5   9   17.09    1.48
   0  -5   9   35.71    2.01
   0  -5  -9   38.76    2.30
   0  -5  -9   37.12    2.05
   0  -5   9   37.25    2.05
   0  -5  -9   33.81    2.17
   0   5  -9   32.09    1.98
   0   5  -9   29.40    2.14
   0   5   9   30.43    2.18
   0   5   9   31.61    2.02
   0   5   9   31.08    1.97
  -1  -5  -9   11.44    1.19
  -1  -5  -9   11.40    1.32
   1  -5   9   10.90    1.16
  -1  -5  -9   12.16    1.32
   1  -5   9   11.96    1.03
  -1   5  -9    9.73    0.94
   1   5   9   11.28    1.02
  -1   5  -9    9.40    1.34
   1   5   9    8.95    1.14
  -2  -5  -9   12.90    1.49
  -2  -5  -9   12.44    1.31
   2  -5   9   11.28    1.08
   2  -5   9   11.67    1.23
  -2  -5  -9   10.97    1.27
   2   5   9   13.17    1.16
  -2   5  -9   11.40    1.43
   2   5   9   14.06    1.71
  -2   5  -9   11.97    1.07
  -5  -6   9   27.69    1.97
   5  -6  -9   28.71    2.04
  -5  -6   9   27.99    2.29
  -5  -6   9   30.32    1.85
   5  -6  -9   27.35    1.87
   5   6  -9   28.24    2.20
  -5   6   9   29.17    1.99
   5   6  -9   26.44    2.15
  -5   6   9   28.94    1.70
  -4  -6   9    7.86    0.87
  -4  -6   9    7.69    0.82
  -4  -6   9    7.06    1.00
   4  -6  -9    9.64    1.03
   4  -6  -9    9.13    1.04
   4   6  -9    7.12    0.97
  -4   6   9    9.21    1.07
  -4   6   9    6.77    0.83
   4   6  -9    7.81    1.05
  -4   6   9    7.38    0.94
   3  -6  -9    2.98    0.65
  -3  -6   9    2.19    0.48
   3  -6  -9    3.11    0.56
  -3  -6   9    2.71    0.74
  -3   6   9    2.42    0.66
   3   6  -9    2.37    0.65
  -3   6   9    2.19    0.46
   3   6  -9    2.18    0.73
  -3   6   9    2.64    0.62
   2  -6  -9   41.01    2.31
   2  -6  -9   35.53    2.16
  -2  -6   9   38.11    2.17
  -2  -6   9   38.14    2.34
  -2   6   9   37.95    2.14
  -2   6   9   37.79    2.30
   2   6  -9   38.16    2.27
  -2   6   9   39.47    2.23
   1  -6  -9    6.12    0.92
  -1  -6   9    6.74    0.89
   1  -6  -9    6.03    0.76
  -1  -6   9    6.41    0.85
   1  -6  -9    6.54    0.88
   1   6  -9    6.87    0.84
  -1   6   9    7.20    0.94
   1   6  -9    7.60    0.84
  -1   6   9    7.81    0.86
   0  -6  -9    0.32    0.64
   0  -6   9    0.21    0.52
   0  -6   9    0.50    0.45
   0  -6  -9   -0.25    0.58
   0  -6  -9    0.00    0.51
   0   6  -9    0.31    0.39
   0   6   9    0.22    0.48
   0   6   9   -0.46    0.68
   0   6  -9   -0.66    0.63
   1  -6   9   31.49    1.95
  -1  -6  -9   29.25    2.26
   1  -6   9   28.37    1.83
  -1  -6  -9   30.77    2.11
  -1  -6  -9   30.30    1.95
   1   6   9   29.01    1.87
  -1   6  -9   28.07    1.79
   1   6   9   29.81    2.25
  -1   6  -9   26.15    2.09
  -2  -6  -9    3.52    0.79
   2  -6   9    2.48    0.62
  -2  -6  -9    3.28    1.00
  -2  -6  -9    3.21    0.90
   2  -6   9    3.82    0.82
  -2   6  -9    4.35    0.61
   2   6   9    3.89    1.09
  -2   6  -9    3.10    0.84
   2   6   9    3.79    0.66
  -4  -7   9    8.73    1.01
  -4  -7   9    8.07    0.93
   4  -7  -9    7.96    1.00
  -4  -7   9    8.38    1.12
   4   7  -9    6.90    0.99
  -4   7   9    6.66    0.82
   4   7  -9    6.88    1.09
  -3  -7   9   18.12    1.62
  -3  -7   9   16.86    1.29
   3  -7  -9   15.78    1.35
  -3  -7   9   18.81    1.47
   3  -7  -9   16.49    1.43
   3   7  -9   18.50    1.74
   3   7  -9   16.58    1.48
  -3   7   9   18.51    1.41
  -3   7   9   15.35    1.43
  -2  -7   9    2.68    0.68
   2  -7  -9    2.51    0.69
   2  -7  -9    2.73    0.50
  -2  -7   9    2.84    0.55
   2   7  -9    1.73    0.78
   2   7  -9    1.04    0.69
  -2   7   9    1.81    0.69
  -2   7   9    2.06    0.65
   2   7  -9    2.19    0.52
  -1  -7   9    8.02    1.00
   1  -7  -9    8.91    1.01
   1  -7  -9    7.37    1.05
   1  -7  -9    9.01    0.99
  -1  -7   9   10.17    1.12
  -1   7   9    6.22    0.88
   1   7  -9    6.39    0.89
  -1   7   9    7.83    1.05
   1   7  -9    7.34    0.94
   0  -7   9   22.47    1.52
   0  -7   9   24.86    1.70
   0  -7  -9   22.55    1.65
   0  -7  -9   23.51    1.83
   0  -7  -9   23.07    1.97
   0   7  -9   21.69    1.50
   0   7   9   20.54    1.63
   0   7   9   21.38    1.94
   0   7  -9   19.48    1.77
  -1  -7  -9   11.84    1.34
  -1  -7  -9   15.22    1.45
   1  -7   9   14.92    1.50
   1  -7   9   12.59    1.18
  -1  -7  -9   11.72    1.43
  -1   7  -9   13.53    1.18
   1   7   9   16.35    1.87
  -1   7  -9   12.97    1.52
   1   7   9   14.58    1.29
  -4  -8   9    7.41    1.21
  -4  -8   9    9.35    1.09
   4  -8  -9    9.24    1.14
   4  -8  -9   11.99    1.29
  -4   8   9    8.37    1.13
   4   8  -9    9.02    1.33
   4   8  -9    9.78    1.16
  -4   8   9    9.41    1.04
   3  -8  -9    0.74    0.66
  -3  -8   9    0.01    0.72
  -3  -8   9    0.37    0.68
   3  -8  -9    0.83    0.55
  -3  -8   9    1.07    0.59
  -3   8   9    0.40    0.67
   3   8  -9    0.97    0.92
   3   8  -9    0.93    0.62
  -3   8   9    0.73    0.64
  -2  -8   9   22.06    1.60
  -2  -8   9   22.57    1.68
   2  -8  -9   24.70    1.75
   2  -8  -9   21.29    1.52
   2   8  -9   20.32    1.72
  -2   8   9   21.99    1.69
   2   8  -9   21.35    1.58
  -2   8   9   20.85    1.73
   2   8  -9   20.70    1.98
   1  -8  -9   18.00    1.44
   1  -8  -9   17.74    1.67
   1  -8  -9   17.89    1.85
  -1  -8   9   20.02    1.46
  -1  -8   9   22.69    1.65
   1   8  -9   16.44    1.61
   1   8  -9   18.57    1.85
  -1   8   9   17.29    1.60
  -1   8   9   19.06    1.81
   1   8  -9   17.90    1.36
   0  -8  -9    1.74    0.83
   0  -8  -9    1.40    0.94
   0  -8   9    1.49    0.62
   0  -8   9    1.37    0.75
   0  -8  -9    1.74    0.70
   0   8  -9    2.08    0.54
   0   8   9    0.85    0.95
   0   8  -9    2.11    0.77
   0   8   9    2.30    0.71
  -6   0  10   -0.19    0.86
   6   0 -10   -0.06    0.51
   6   0 -10    0.16    0.74
  -6   0  10    0.85    0.65
  -5   0  10    6.26    0.80
  -5   0  10    4.94    0.66
   5   0 -10    6.06    0.90
  -5   0  10    5.39    0.94
  -4   0  10   23.82    1.46
  -4   0  10   25.83    1.82
   4   0 -10   22.50    1.76
  -4   0  10   27.04    1.56
  -3   0  10    1.27    0.60
   3   0 -10    1.02    0.53
  -3   0  10    1.36    0.37
   2   0 -10   10.23    1.12
  -2   0  10    9.33    0.84
  -2   0  10    8.84    1.21
   1   0 -10   39.87    2.38
  -1   0  10   40.45    2.44
  -1   0  10   40.71    2.25
   0   0 -10   29.28    1.91
   0   0  10   27.83    1.72
   0   0 -10   28.16    1.85
   0   0  10   26.71    1.91
  -1   0 -10    1.17    0.56
  -1   0 -10    0.37    0.46
   1   0  10    1.03    0.47
   1   0  10    1.67    0.66
  -2   0 -10   12.63    1.28
  -2   0 -10    9.53    1.28
   2   0  10   11.76    1.41
   2   0  10   12.11    1.18
  -6  -1  10   13.93    1.80
   6  -1 -10   14.06    1.26
  -6  -1  10   16.40    1.57
   6  -1 -10   14.77    1.62
  -6   1  10   16.21    1.50
   6   1 -10   15.14    1.29
   6   1 -10   17.47    1.68
  -6   1  10   18.26    1.76
  -5  -1  10   32.54    2.19
  -5  -1  10   30.92    1.90
   5  -1 -10   30.57    2.07
  -5  -1  10   29.09    1.64
  -5   1  10   29.64    2.14
  -5   1  10   30.30    1.63
  -5   1  10   28.26    1.89
   5   1 -10   32.51    2.12
  -4  -1  10    0.60    0.38
   4  -1 -10   -0.14    0.38
   4  -1 -10    1.05    0.59
  -4  -1  10   -0.01    0.61
  -4   1  10    0.13    0.38
  -4   1  10   -0.14    0.62
   4   1 -10   -0.34    0.51
  -4   1  10    0.35    0.39
  -3  -1  10   22.49    1.77
   3  -1 -10   21.35    1.50
   3  -1 -10   21.94    1.71
  -3  -1  10   21.77    1.48
  -3   1  10   29.08    1.56
  -3   1  10   27.99    1.54
   3   1 -10   25.98    1.76
  -3   1  10   25.41    1.79
  -2  -1  10   55.39    3.27
   2  -1 -10   59.73    3.26
   2  -1 -10   58.63    3.10
  -2  -1  10   61.29    3.08
  -2   1  10   59.50    3.29
  -2   1  10   59.28    3.10
  -2   1  10   61.31    3.08
   2   1 -10   60.29    3.28
   1  -1 -10    3.65    0.66
  -1  -1  10    3.90    0.62
   1  -1 -10    4.14    0.65
  -1  -1  10    3.70    0.73
   1   1 -10    4.47    0.74
  -1   1  10    4.40    0.63
  -1   1  10    4.50    0.60
  -1   1  10    4.26    0.74
   0  -1  10    9.68    1.21
   0  -1 -10    8.17    1.03
   0  -1 -10    8.75    1.02
   0  -1 -10    8.99    1.14
   0  -1  10   10.18    1.04
   0   1 -10   11.73    1.10
   0   1  10   12.00    1.28
   0   1  10   12.36    1.07
   0   1  10   10.46    0.99
   0   1 -10   11.74    1.16
   1  -1  10   15.40    1.20
   1  -1  10   17.29    1.42
  -1  -1 -10   17.15    1.40
  -1  -1 -10   14.13    1.24
  -1  -1 -10   14.64    1.28
   1   1  10   13.54    1.14
   1   1  10   13.93    1.47
   1   1  10   14.08    1.18
  -1   1 -10   11.76    1.32
  -1   1 -10   13.38    1.28
   2  -1  10    6.11    0.77
  -2  -1 -10    6.50    0.91
   2  -1  10    5.95    0.86
  -2  -1 -10    4.49    0.73
   2   1  10    6.56    1.00
  -2   1 -10    4.95    0.76
   2   1  10    5.80    0.71
   2   1  10    5.71    0.75
  -2   1 -10    5.39    0.86
  -6  -2  10    8.41    1.11
   6  -2 -10    8.30    1.09
   6  -2 -10    9.31    1.12
  -6  -2  10    6.93    1.20
   6   2 -10    9.41    1.14
   6   2 -10   10.47    1.10
  -6   2  10    9.46    1.07
  -6   2  10   11.81    1.52
  -5  -2  10   16.11    1.34
  -5  -2  10   12.83    1.67
   5  -2 -10   15.11    1.35
   5  -2 -10   15.78    1.49
  -5   2  10   14.81    1.01
   5   2 -10   15.66    1.33
  -5   2  10   15.59    1.30
  -5   2  10   15.70    1.57
   5   2 -10   14.66    1.49
   4  -2 -10   33.89    1.96
   4  -2 -10   34.19    2.10
  -4  -2  10   31.92    2.21
  -4  -2  10   32.53    1.89
  -4   2  10   30.04    1.86
   4   2 -10   32.24    2.13
  -4   2  10   31.50    2.11
  -4   2  10   30.71    1.79
  -3  -2  10    7.37    0.95
   3  -2 -10    7.56    0.79
   3  -2 -10    6.45    0.87
  -3   2  10    7.48    0.88
  -3   2  10    8.63    0.97
  -3   2  10    8.32    0.80
   3   2 -10    8.07    0.96
   2  -2 -10   25.31    1.73
  -2  -2  10   23.70    1.79
  -2  -2  10   27.54    1.57
   2  -2 -10   26.54    1.59
   2   2 -10   25.68    1.74
  -2   2  10   23.28    1.58
  -2   2  10   25.59    1.81
  -2   2  10   23.73    1.50
  -1  -2  10   43.62    2.66
   1  -2 -10   45.39    2.64
   1  -2 -10   42.77    2.47
  -1  -2  10   46.09    2.49
  -1   2  10   45.72    2.48
   1   2 -10   46.48    2.74
   1   2 -10   44.32    2.63
  -1   2  10   47.86    2.53
  -1   2  10   45.77    2.66
   0  -2 -10    4.44    0.65
   0  -2  10    4.92    0.78
   0  -2 -10    5.39    0.72
   0  -2 -10    6.86    0.86
   0  -2  10    6.26    0.73
   0   2  10    6.19    0.71
   0   2 -10    4.94    0.70
   0   2 -10    6.31    0.79
   0   2  10    4.88    0.68
   0   2  10    6.22    0.88
   1  -2  10    3.40    0.62
   1  -2  10    3.00    0.70
  -1  -2 -10    3.59    0.62
  -1  -2 -10    3.05    0.70
  -1  -2 -10    2.29    0.60
   1   2  10    2.30    0.62
  -1   2 -10    1.86    0.53
   1   2  10    3.53    0.82
   1   2  10    3.04    0.54
  -1   2 -10    2.18    0.72
  -2  -2 -10   29.31    2.08
  -2  -2 -10   26.08    2.00
   2  -2  10   29.02    1.78
  -2  -2 -10   25.74    1.82
   2  -2  10   28.00    1.88
   2   2  10   29.16    2.21
  -2   2 -10   25.21    2.16
  -2   2 -10   27.92    1.82
   2   2  10   29.63    1.85
   2   2  10   28.60    1.80
   6  -3 -10   18.14    1.67
   6  -3 -10   15.56    1.46
   6  -3 -10   15.85    1.62
  -6  -3  10   16.90    1.93
  -6  -3  10   16.51    1.64
  -6   3  10   12.91    1.57
   6   3 -10   13.28    1.78
   6   3 -10   14.70    1.46
  -6   3  10   16.05    1.63
  -5  -3  10    8.85    1.09
   5  -3 -10   10.16    1.29
   5  -3 -10    6.69    0.88
  -5  -3  10    7.82    0.96
  -5  -3  10    8.20    1.18
   5   3 -10    9.14    1.20
   5   3 -10    8.01    1.04
  -5   3  10    9.65    1.06
  -5   3  10    9.73    0.82
  -5   3  10    8.92    1.17
   4  -3 -10    4.52    0.68
  -4  -3  10    5.30    0.67
  -4  -3  10    4.91    0.93
   4  -3 -10    4.79    0.80
   4   3 -10    3.91    0.77
  -4   3  10    4.90    0.61
  -4   3  10    3.15    0.54
  -4   3  10    4.51    0.83
  -3  -3  10   22.29    1.77
  -3  -3  10   22.16    1.46
   3  -3 -10   24.08    1.66
   3  -3 -10   21.61    1.45
   3   3 -10   20.24    1.66
  -3   3  10   23.13    1.46
  -3   3  10   23.64    1.72
  -3   3  10   22.08    1.48
   2  -3 -10   14.94    1.35
   2  -3 -10   14.12    1.13
  -2  -3  10   15.83    1.19
  -2  -3  10   15.14    1.42
   2   3 -10   16.25    1.35
  -2   3  10   15.97    1.46
  -2   3  10   15.57    1.25
  -2   3  10   16.31    1.12
  -1  -3  10   25.13    1.81
   1  -3 -10   25.26    1.63
  -1  -3  10   24.21    1.63
   1  -3 -10   26.35    1.80
  -1   3  10   27.66    1.63
  -1   3  10   24.25    1.66
   1   3 -10   24.59    1.73
  -1   3  10   24.97    1.83
   1   3 -10   26.40    1.83
   0  -3 -10   12.33    1.17
   0  -3 -10   11.42    1.34
   0  -3  10   13.92    1.19
   0  -3  10   13.51    1.27
   0  -3 -10   12.43    1.22
   0   3  10   14.41    1.20
   0   3 -10   13.81    1.17
   0   3  10   12.63    1.19
   0   3 -10   13.20    1.35
   0   3  10   13.27    1.50
  -1  -3 -10   31.37    1.96
  -1  -3 -10   33.42    2.15
   1  -3  10   31.19    1.91
  -1  -3 -10   31.92    2.16
   1  -3  10   31.14    2.00
   1   3  10   31.11    1.97
   1   3  10   32.64    2.26
   1   3  10   29.31    1.91
  -1   3 -10   30.66    2.27
  -1   3 -10   30.13    1.94
  -2  -3 -10   11.61    1.47
  -2  -3 -10    9.17    1.06
   2  -3  10    8.46    1.12
  -2  -3 -10   10.47    1.22
   2  -3  10    9.69    1.18
  -2   3 -10    9.21    1.08
   2   3  10   10.08    1.12
   2   3  10   11.17    1.32
  -2   3 -10    8.10    1.16
  -5  -4  10    9.57    1.06
  -5  -4  10    8.69    1.22
   5  -4 -10   10.64    1.13
  -5  -4  10   10.22    1.07
   5  -4 -10   10.70    1.27
  -5   4  10    9.22    0.90
  -5   4  10    8.79    1.04
  -5   4  10    7.61    0.97
   5   4 -10   11.02    1.45
   5   4 -10    8.87    1.15
  -4  -4  10   27.84    1.78
   4  -4 -10   28.79    1.88
  -4  -4  10   30.07    2.21
   4  -4 -10   28.37    1.95
   4   4 -10   31.39    2.09
  -4   4  10   30.57    1.78
  -4   4  10   29.64    1.84
  -4   4  10   31.34    2.02
   3  -4 -10   18.28    1.29
  -3  -4  10   17.13    1.26
  -3  -4  10   19.90    1.69
   3  -4 -10   17.11    1.48
  -3   4  10   18.10    1.33
  -3   4  10   19.60    1.28
   3   4 -10   19.79    1.56
  -3   4  10   16.94    1.53
  -2  -4  10    5.79    0.91
  -2  -4  10    6.52    0.81
   2  -4 -10    6.43    0.86
   2  -4 -10    4.94    0.65
  -2   4  10    4.92    0.81
   2   4 -10    4.38    0.75
  -2   4  10    3.98    0.51
  -2   4  10    4.46    0.69
  -1  -4  10   34.24    2.16
   1  -4 -10   37.22    2.16
   1  -4 -10   36.73    2.28
   1  -4 -10   35.86    2.36
  -1  -4  10   37.28    2.29
   1   4 -10   36.38    2.34
  -1   4  10   37.59    2.19
  -1   4  10   37.96    2.12
  -1   4  10   36.18    2.34
   1   4 -10   36.73    2.25
   0  -4 -10    5.85    0.89
   0  -4 -10    5.83    0.83
   0  -4  10    5.76    0.78
   0  -4 -10    5.69    0.80
   0  -4  10    6.19    0.81
   0   4 -10    5.66    0.89
   0   4 -10    5.73    0.73
   0   4  10    7.40    0.86
   0   4  10    5.82    0.95
   0   4  10    6.08    0.78
  -1  -4 -10   11.77    1.30
   1  -4  10   13.85    1.21
  -1  -4 -10   12.83    1.42
  -1  -4 -10   10.72    1.48
   1  -4  10   13.84    1.31
   1   4  10   13.05    1.33
  -1   4 -10   14.94    1.14
   1   4  10   13.23    1.73
   1   4  10   14.03    1.23
  -1   4 -10   12.22    1.32
   2  -4  10   13.11    1.24
  -2  -4 -10   12.63    1.62
  -2  -4 -10   13.75    1.41
   2  -4  10   15.30    1.38
  -2  -4 -10   11.73    1.52
  -2   4 -10   11.60    1.38
  -2   4 -10   13.67    1.18
   2   4  10   11.66    1.27
   2   4  10   12.29    1.45
  -5  -5  10   13.96    1.27
   5  -5 -10   13.87    1.46
  -5  -5  10   13.89    1.84
  -5  -5  10   14.69    1.41
   5  -5 -10   13.06    1.40
  -5   5  10   12.51    1.09
   5   5 -10   11.69    1.60
  -5   5  10   11.99    1.26
   5   5 -10   12.46    1.39
  -5   5  10   12.45    1.44
  -4  -5  10    0.73    0.85
   4  -5 -10    0.80    0.64
   4  -5 -10    0.35    0.53
  -4  -5  10    0.53    0.52
   4   5 -10    0.46    0.73
  -4   5  10    0.43    0.55
  -4   5  10    0.33    0.65
  -4   5  10    0.30    0.50
   4   5 -10    0.13    0.67
   3  -5 -10   16.63    1.25
  -3  -5  10   16.04    1.69
  -3  -5  10   15.78    1.23
   3  -5 -10   18.17    1.47
  -3   5  10   15.02    1.48
  -3   5  10   14.68    1.21
  -3   5  10   16.12    1.31
   3   5 -10   15.79    1.46
   2  -5 -10   39.84    2.39
   2  -5 -10   38.29    2.22
  -2  -5  10   38.72    2.24
  -2  -5  10   37.34    2.43
  -2   5  10   40.93    2.30
  -2   5  10   39.26    2.40
   2   5 -10   36.31    2.34
  -2   5  10   36.98    2.16
   1  -5 -10    5.11    0.76
  -1  -5  10    4.10    0.76
   1  -5 -10    4.75    0.86
   1  -5 -10    3.96    0.73
  -1  -5  10    4.59    0.73
   1   5 -10    3.99    0.65
  -1   5  10    3.91    0.58
   1   5 -10    2.57    0.80
  -1   5  10    4.69    0.78
  -1   5  10    4.02    0.84
   0  -5 -10   12.22    1.40
   0  -5 -10   13.39    1.48
   0  -5  10   13.26    1.18
   0  -5 -10   12.96    1.29
   0  -5  10   12.83    1.32
   0   5  10   11.09    1.23
   0   5  10   12.63    1.62
   0   5 -10    9.00    1.33
   0   5 -10   11.14    1.09
   0   5  10    9.30    1.22
  -1  -5 -10   31.50    2.47
  -1  -5 -10   33.56    2.20
   1  -5  10   36.78    2.23
  -1  -5 -10   34.18    2.42
   1  -5  10   34.00    2.11
   1   5  10   36.28    2.60
   1   5  10   35.67    2.17
  -1   5 -10   32.34    2.45
  -1   5 -10   36.96    2.12
  -4  -6  10    9.03    1.14
   4  -6 -10    9.71    1.26
   4  -6 -10    9.42    1.20
  -4  -6  10   10.61    1.30
  -4  -6  10   10.41    1.29
   4   6 -10   10.23    1.19
   4   6 -10    9.07    1.21
  -4   6  10    9.50    1.21
  -4   6  10    7.89    1.01
  -4   6  10    9.23    1.15
  -3  -6  10    3.89    0.91
   3  -6 -10    5.08    0.84
  -3  -6  10    3.88    0.60
   3  -6 -10    4.39    0.62
   3   6 -10    6.61    0.86
   3   6 -10    5.02    0.98
  -3   6  10    5.59    0.88
  -3   6  10    5.71    0.81
  -3   6  10    5.29    0.65
   2  -6 -10    2.46    0.75
   2  -6 -10    1.99    0.49
  -2  -6  10    3.39    0.79
  -2  -6  10    2.36    0.59
  -2   6  10    2.49    0.79
  -2   6  10    2.94    0.51
   2   6 -10    1.12    0.59
  -2   6  10    2.28    0.67
   1  -6 -10   11.17    1.17
  -1  -6  10    9.93    1.23
   1  -6 -10   10.99    1.18
   1  -6 -10   10.75    1.47
  -1  -6  10   12.18    1.29
   1   6 -10    8.01    1.05
   1   6 -10    8.32    1.10
  -1   6  10   10.53    1.29
  -1   6  10    8.74    1.16
   0  -6  10    9.21    1.10
   0  -6 -10   10.24    1.26
   0  -6 -10    8.54    1.17
   0  -6 -10   10.44    1.21
   0  -6  10    8.96    1.09
   0   6 -10    9.39    1.15
   0   6  10   10.50    1.33
   0   6  10   10.61    1.29
  -1  -6 -10    1.76    0.99
   1  -6  10    2.29    0.66
  -1  -6 -10    2.60    0.78
   1  -6  10    2.51    0.83
  -1  -6 -10    3.37    0.93
  -1   6 -10    1.40    0.53
   1   6  10    1.59    1.03
   1   6  10    1.49    0.70
  -1   6 -10    0.93    0.84
   3  -7 -10   17.00    1.64
  -3  -7  10   18.43    1.38
  -3  -7  10   17.81    1.86
   3  -7 -10   15.49    1.35
   3   7 -10   15.62    1.88
   3   7 -10   19.20    1.61
  -3   7  10   17.33    1.65
  -3   7  10   16.47    1.54
  -2  -7  10   16.89    1.49
  -2  -7  10   19.67    1.67
   2  -7 -10   18.10    1.69
   2  -7 -10   18.04    1.38
  -2   7  10   16.19    1.58
   2   7 -10   13.65    1.67
   2   7 -10   16.28    1.47
  -2   7  10   15.82    1.65
   1  -7 -10    1.06    0.86
   1  -7 -10    1.58    0.63
  -1  -7  10    2.67    0.77
   1  -7 -10    2.28    0.87
  -1  -7  10    2.34    0.66
  -1   7  10    2.46    0.76
   1   7 -10    1.80    0.57
  -1   7  10    2.36    0.98
   1   7 -10    1.61    0.82
   0  -7  10    8.38    1.16
   0  -7 -10    7.69    1.25
   0  -7 -10    9.55    1.25
   0  -7  10    9.99    1.19
   0  -7 -10    9.57    1.16
   0   7  10    9.19    1.10
   0   7 -10   12.48    1.66
   0   7 -10   12.06    1.13
   0   7  10   12.81    1.43
  -5   0  11    0.03    0.59
   5   0 -11    0.07    0.79
  -5   0  11   -0.25    0.45
  -5   0  11    0.64    0.91
   4   0 -11   15.56    1.52
  -4   0  11   12.86    1.17
  -4   0  11   14.50    1.66
  -4   0  11   16.31    1.18
  -3   0  11   30.80    2.18
   3   0 -11   31.80    2.16
  -3   0  11   31.44    1.86
  -3   0  11   31.76    1.90
  -2   0  11    5.12    0.92
  -2   0  11    7.21    0.83
   2   0 -11    5.37    0.86
   1   0 -11   22.16    1.68
  -1   0  11   23.28    1.83
   1   0 -11   20.16    1.59
  -1   0  11   20.81    1.50
   0   0 -11   20.84    1.78
   0   0  11   24.83    1.92
   0   0 -11   24.50    1.80
   0   0  11   23.96    1.65
   1   0  11    8.68    1.15
  -1   0 -11    5.97    0.89
  -1   0 -11    9.57    1.09
   1   0  11    9.53    1.15
  -5  -1  11   14.83    1.37
  -5  -1  11   13.87    1.14
   5  -1 -11   14.40    1.64
  -5  -1  11   16.25    1.85
   5   1 -11   14.14    1.66
  -5   1  11   16.14    1.80
  -5   1  11   12.61    1.34
  -5   1  11   13.74    1.11
  -4  -1  11    8.76    1.12
   4  -1 -11   10.81    1.40
  -4  -1  11   10.22    0.97
  -4   1  11    8.17    1.10
   4   1 -11    8.29    1.09
  -4   1  11    7.38    0.93
  -4   1  11    7.62    0.96
   3  -1 -11    1.01    0.38
  -3  -1  11    0.78    0.40
  -3  -1  11    0.20    0.72
   3  -1 -11    1.03    0.70
   3   1 -11    1.07    0.64
  -3   1  11    1.05    0.77
  -3   1  11    0.96    0.44
  -3   1  11    0.36    0.50
   2  -1 -11   19.61    1.39
  -2  -1  11   20.82    1.76
   2  -1 -11   18.91    1.62
  -2  -1  11   19.16    1.39
  -2   1  11   20.50    1.36
   2   1 -11   20.63    1.66
  -2   1  11   20.50    1.73
  -2   1  11   17.94    1.44
  -1  -1  11   11.28    1.47
   1  -1 -11   11.46    1.31
  -1  -1  11   15.35    1.21
   1  -1 -11   10.30    1.16
   1  -1 -11   11.99    1.18
  -1   1  11   11.98    1.12
  -1   1  11   13.83    1.25
  -1   1  11   12.82    1.49
   1   1 -11   12.21    1.29
   1   1 -11   11.56    1.24
   0  -1 -11    0.62    0.66
   0  -1  11    0.24    0.68
   0  -1  11   -0.18    0.52
   0  -1 -11    0.73    0.57
   0  -1 -11    0.62    0.53
   0   1 -11    0.04    0.56
   0   1  11    0.67    0.77
   0   1  11    0.41    0.51
   0   1 -11    0.72    0.56
   0   1  11    0.53    0.53
   1  -1  11   12.50    1.31
   1  -1  11   17.04    1.62
  -1  -1 -11   14.70    1.55
  -1  -1 -11   12.90    1.37
  -1   1 -11    9.43    1.17
   1   1  11   13.52    1.68
   1   1  11   12.44    1.22
  -1   1 -11   14.97    1.42
   1   1  11   14.62    1.36
   5  -2 -11    2.05    0.63
  -5  -2  11    1.82    0.99
  -5  -2  11    1.66    0.61
   5  -2 -11    2.15    0.86
  -5   2  11    3.34    0.72
  -5   2  11    3.63    1.01
  -5   2  11    2.62    0.54
   5   2 -11    2.02    0.90
  -4  -2  11   18.79    1.34
   4  -2 -11   18.22    1.68
   4  -2 -11   19.69    1.39
  -4  -2  11   20.38    1.92
  -4   2  11   16.88    1.76
  -4   2  11   18.36    1.32
   4   2 -11   18.82    1.73
  -4   2  11   17.53    1.35
   3  -2 -11   21.28    1.47
   3  -2 -11   23.73    1.75
  -3  -2  11   20.82    1.84
  -3  -2  11   21.81    1.44
  -3   2  11   22.63    1.86
  -3   2  11   20.64    1.49
  -3   2  11   21.01    1.42
   3   2 -11   19.62    1.74
  -2  -2  11    6.57    0.81
   2  -2 -11    5.65    0.87
   2  -2 -11    6.85    0.89
  -2  -2  11    7.40    1.04
  -2   2  11    8.90    1.03
  -2   2  11    7.00    0.87
  -2   2  11    8.41    1.06
   2   2 -11    7.39    0.95
   1  -2 -11   16.42    1.33
   1  -2 -11   15.81    1.42
  -1  -2  11   16.93    1.33
  -1  -2  11   18.12    1.63
   1  -2 -11   16.66    1.53
   1   2 -11   13.90    1.49
  -1   2  11   17.13    1.66
   1   2 -11   15.41    1.45
  -1   2  11   15.54    1.29
  -1   2  11   13.69    1.37
   0  -2  11   23.53    1.92
   0  -2  11   23.05    1.70
   0  -2 -11   23.54    1.86
   0  -2 -11   24.21    1.79
   0  -2 -11   24.02    1.70
   0   2 -11   25.02    1.77
   0   2  11   25.08    2.04
   0   2  11   24.35    1.73
   0   2  11   25.73    1.75
   0   2 -11   23.57    1.84
   1  -2  11    5.88    0.84
  -1  -2 -11    5.90    0.98
   1  -2  11    5.27    0.96
  -1  -2 -11    4.15    0.76
  -1  -2 -11    6.15    0.88
  -1   2 -11    6.08    0.87
   1   2  11    3.66    0.69
   1   2  11    5.46    1.06
  -1   2 -11    2.13    0.86
   1   2  11    4.47    0.80
  -5  -3  11   15.41    1.45
   5  -3 -11   14.99    1.69
  -5  -3  11   17.08    2.06
   5  -3 -11   14.93    1.54
  -5   3  11   15.54    1.77
   5   3 -11   15.22    1.72
   5   3 -11   15.69    1.80
  -5   3  11   15.17    1.50
  -5   3  11   15.55    1.22
   4  -3 -11   15.84    1.23
   4  -3 -11   17.04    1.54
  -4  -3  11   16.77    1.85
  -4   3  11   14.16    1.63
  -4   3  11   12.22    1.22
   4   3 -11   13.19    1.63
  -4   3  11   13.33    1.23
  -3  -3  11    1.13    0.48
  -3  -3  11    0.82    0.78
   3  -3 -11    1.83    0.71
   3  -3 -11    0.62    0.44
  -3   3  11    0.66    0.77
  -3   3  11    1.29    0.48
  -3   3  11    0.97    0.57
   3   3 -11    0.45    0.67
   2  -3 -11   13.70    1.47
  -2  -3  11   13.98    1.20
  -2  -3  11   14.75    1.59
   2  -3 -11   12.57    1.15
  -2   3  11   13.94    1.53
  -2   3  11   12.76    1.26
   2   3 -11   12.87    1.45
  -2   3  11   12.01    1.09
   1  -3 -11   24.68    1.69
  -1  -3  11   22.39    1.71
  -1  -3  11   23.13    1.90
   1  -3 -11   23.97    1.79
   1  -3 -11   25.36    1.93
  -1   3  11   27.46    2.01
   1   3 -11   25.59    1.96
  -1   3  11   22.93    1.67
   1   3 -11   24.08    1.81
  -1   3  11   25.83    1.77
   0  -3  11    0.42    0.69
   0  -3  11    0.63    0.62
   0  -3 -11    0.83    0.57
   0  -3 -11   -0.26    0.71
   0  -3 -11    0.54    0.54
   0   3 -11   -1.35    0.58
   0   3  11    0.61    0.59
   0   3 -11   -0.46    0.52
   0   3  11   -0.10    0.82
   0   3  11   -0.50    0.63
   1  -3  11   19.86    1.56
   1  -3  11   17.22    1.60
  -1  -3 -11   19.88    1.84
  -1  -3 -11   17.81    1.54
  -1  -3 -11   17.15    1.60
   1   3  11   15.50    1.54
   1   3  11   14.83    1.50
  -1   3 -11   15.27    1.41
  -1   3 -11   12.97    1.83
   1   3  11   16.16    2.01
   4  -4 -11    6.13    0.86
   4  -4 -11    6.87    1.01
  -4  -4  11    7.39    1.21
  -4  -4  11    7.39    0.80
  -4   4  11    6.10    1.02
  -4   4  11    5.05    0.73
   4   4 -11    6.98    1.09
  -4   4  11    6.06    0.81
   3  -4 -11   25.05    1.62
   3  -4 -11   26.08    1.90
  -3  -4  11   24.72    2.09
  -3  -4  11   24.67    1.65
   3   4 -11   25.41    1.97
  -3   4  11   23.13    1.71
  -3   4  11   22.65    1.64
  -3   4  11   24.08    1.99
  -2  -4  11    1.16    0.60
  -2  -4  11    1.99    0.82
   2  -4 -11    2.59    0.79
   2  -4 -11    1.27    0.55
  -2   4  11    1.97    0.83
  -2   4  11    1.29    0.53
   2   4 -11    0.73    0.68
  -2   4  11    1.93    0.64
  -1  -4  11    4.36    0.89
   1  -4 -11    3.79    0.89
  -1  -4  11    2.30    0.66
   1  -4 -11    3.30    0.69
   1  -4 -11    2.80    0.67
   1   4 -11    3.22    0.74
   1   4 -11    2.38    0.70
  -1   4  11    3.53    0.65
  -1   4  11    2.25    0.89
  -1   4  11    2.74    0.75
   0  -4 -11   29.66    2.22
   0  -4 -11   30.46    2.16
   0  -4 -11   30.44    2.01
   0  -4  11   27.65    2.04
   0  -4  11   30.47    2.01
   0   4 -11   26.08    2.16
   0   4 -11   28.03    1.92
   0   4  11   26.31    1.96
   0   4  11   27.03    1.98
   0   4  11   26.79    2.24
   1  -4  11    8.59    1.10
  -1  -4 -11   11.07    1.44
  -1  -4 -11   11.86    1.38
   1  -4  11   10.41    1.12
  -1   4 -11   10.07    1.16
  -1   4 -11    8.42    1.26
   1   4  11   12.36    1.49
   1   4  11   10.19    1.16
  -4  -5  11   13.36    1.54
  -4  -5  11   14.25    1.39
   4  -5 -11   14.39    1.60
   4  -5 -11   12.84    1.28
  -4   5  11   13.98    1.40
  -4   5  11   11.68    1.28
   4   5 -11   12.91    1.46
   4   5 -11   14.05    1.71
  -4   5  11   11.92    1.63
  -3  -5  11    0.81    0.59
   3  -5 -11    1.15    0.55
   3  -5 -11    0.98    0.77
  -3  -5  11    0.16    0.92
   3   5 -11   -0.05    0.72
  -3   5  11   -0.51    0.80
  -3   5  11    0.33    0.63
  -3   5  11    0.65    0.57
   2  -5 -11    5.12    0.74
  -2  -5  11    6.07    0.88
   2  -5 -11    6.01    0.99
  -2  -5  11    5.57    1.06
  -2   5  11    7.37    0.82
   2   5 -11    7.10    1.03
  -2   5  11    7.67    0.97
  -2   5  11    8.57    1.10
  -1  -5  11   14.35    1.64
   1  -5 -11   13.98    1.57
  -1  -5  11   16.09    1.57
   1  -5 -11   16.34    1.71
   1  -5 -11   14.03    1.38
  -1   5  11   13.68    1.78
  -1   5  11   13.17    1.54
   1   5 -11   12.73    1.65
   1   5 -11   15.36    1.45
  -1   5  11   14.58    1.41
   0  -5 -11    1.84    0.89
   0  -5 -11    3.05    0.81
   0  -5  11    1.69    0.82
   0  -5  11    3.41    0.80
   0  -5 -11    2.97    0.84
   0   5  11    2.35    0.76
   0   5  11    1.91    1.09
   0   5 -11    0.71    0.87
   0   5 -11    1.98    0.61
   0   5  11    2.20    0.79
   3  -6 -11   23.17    1.55
  -3  -6  11   23.39    2.15
   3  -6 -11   18.98    1.88
   3   6 -11   19.76    1.90
  -3   6  11   18.58    1.93
  -3   6  11   19.42    1.73
   2  -6 -11    1.99    0.88
   2  -6 -11    1.87    0.58
  -2  -6  11    2.02    0.78
  -2  -6  11    1.55    0.92
   2   6 -11    2.48    0.79
  -2   6  11    3.08    0.63
  -2   6  11    2.66    1.01
  -2   6  11    2.74    0.78
   2   6 -11    2.24    0.90
   1  -6 -11    3.76    1.02
   1  -6 -11    4.47    1.06
   1  -6 -11    6.03    0.89
  -1  -6  11    4.59    0.93
  -1  -6  11    6.26    1.04
  -1   6  11    5.91    1.18
  -1   6  11    6.14    0.99
   1   6 -11    7.06    0.89
   1   6 -11    7.53    1.14
  -4   0  12   -0.08    0.55
  -4   0  12   -0.93    0.96
  -4   0  12   -0.17    0.59
   4   0 -12    0.89    0.85
  -3   0  12   11.96    1.34
  -3   0  12   11.08    1.06
   3   0 -12   11.02    1.30
  -3   0  12   10.61    1.25
  -2   0  12   48.88    2.79
  -2   0  12   44.52    2.69
  -2   0  12   49.56    3.09
   2   0 -12   49.95    2.96
  -1   0  12    2.10    0.95
   1   0 -12    0.81    0.59
  -1   0  12    2.16    0.77
   1   0 -12    2.71    0.76
  -1   0  12    0.98    0.67
   0   0  12    2.85    0.99
   0   0 -12    4.45    0.74
   0   0  12    3.31    0.80
   0   0  12    2.65    0.75
   0   0 -12    3.95    0.89
  -4  -1  12   19.80    1.51
  -4  -1  12   19.00    1.42
  -4  -1  12   17.35    2.06
   4  -1 -12   20.88    1.96
  -4   1  12   16.24    1.37
  -4   1  12   16.38    2.09
   4   1 -12   19.19    1.93
  -4   1  12   18.26    1.46
  -3  -1  12   15.60    1.24
  -3  -1  12   14.40    1.86
   3  -1 -12   15.65    1.66
  -3   1  12   13.17    1.21
  -3   1  12   15.48    1.89
   3   1 -12   14.97    1.74
  -3   1  12   14.95    1.39
  -2  -1  12   -0.05    0.84
   2  -1 -12    0.26    0.73
  -2  -1  12    0.93    0.58
  -2   1  12    0.36    0.58
   2   1 -12   -0.95    0.71
  -2   1  12   -0.22    0.85
  -2   1  12    0.04    0.65
  -1  -1  12   23.20    1.65
  -1  -1  12   24.37    2.04
   1  -1 -12   20.68    1.82
   1  -1 -12   15.69    1.58
  -1   1  12   18.29    1.59
   1   1 -12   15.14    1.63
  -1   1  12   17.44    1.67
   1   1 -12   20.19    1.77
  -1   1  12   21.07    2.02
   0  -1 -12    9.06    1.18
   0  -1  12    9.67    1.30
   0  -1 -12    7.16    0.90
   0  -1  12    9.07    1.06
   0   1  12    7.76    1.03
   0   1 -12    8.19    1.02
   0   1  12    9.00    1.26
   0   1  12    7.91    1.03
   0   1 -12    7.95    1.05
   4  -2 -12    1.82    0.56
  -4  -2  12    1.88    1.15
   4  -2 -12    1.48    0.84
  -4  -2  12    2.07    0.66
   4   2 -12    0.73    0.93
  -4   2  12    1.17    0.64
  -4   2  12    0.98    0.69
  -4   2  12    1.75    1.04
  -3  -2  12   12.87    1.52
   3  -2 -12   13.37    1.62
  -3  -2  12   11.77    1.20
   3  -2 -12   12.41    1.20
  -3   2  12   15.87    1.41
   3   2 -12   14.78    1.73
  -3   2  12   14.86    1.87
  -3   2  12   14.29    1.21
  -2  -2  12   17.54    1.46
   2  -2 -12   18.83    1.74
   2  -2 -12   16.30    1.43
  -2  -2  12   17.90    1.93
  -2   2  12   15.87    1.53
   2   2 -12   18.18    1.78
  -2   2  12   17.17    1.90
  -2   2  12   16.19    1.41
   1  -2 -12    7.54    1.02
   1  -2 -12   10.89    1.27
  -1  -2  12    8.53    1.04
  -1  -2  12   10.37    1.31
   1  -2 -12    7.08    0.99
   1   2 -12   10.64    1.37
   1   2 -12    8.86    1.13
  -1   2  12   10.14    1.32
  -1   2  12   11.49    1.33
  -1   2  12   11.57    1.34
   0  -2  12   11.88    1.37
   0  -2  12   12.31    1.49
   0  -2 -12   11.72    1.41
   0  -2 -12   12.34    1.62
   0   2  12   11.68    1.46
   0   2 -12    8.49    1.20
   0   2  12   10.55    1.43
   0   2  12   10.34    1.18
   0   2 -12   11.36    1.44
  -3  -3  12    8.04    0.87
  -3  -3  12    8.44    1.30
   3  -3 -12    7.95    1.03
   3  -3 -12    8.81    1.16
   3   3 -12    8.83    1.18
  -3   3  12    7.35    0.98
  -3   3  12    7.74    1.25
  -3   3  12    5.89    0.73
  -2  -3  12    1.70    0.69
  -2  -3  12    3.39    1.07
   2  -3 -12    2.59    0.63
   2  -3 -12    2.71    0.90
  -2   3  12    2.49    0.66
  -2   3  12    2.96    1.00
  -2   3  12    2.10    0.77
   2   3 -12    2.46    0.87
   1  -3 -12   15.10    1.69
   1  -3 -12    9.12    1.34
  -1  -3  12   14.01    1.49
  -1  -3  12   13.97    1.84
   1  -3 -12   13.82    1.41
  -1   3  12   11.27    1.44
  -1   3  12   11.50    1.49
  -1   3  12   12.47    1.45
   1   3 -12   11.80    1.38
   1   3 -12   11.12    1.28
  -2  -4  12   11.48    1.45
  -2  -4  12   10.15    1.44
   2  -4 -12   11.31    1.34
   2  -4 -12   10.98    1.30
   2   4 -12   11.87    1.59
   2   4 -12   13.39    1.64
  -2   4  12   12.44    1.36
  -2   4  12   13.01    1.45
  -2   4  12   15.06    1.56
   0   0   0    0.00    0.00
;
_shelx_hkl_checksum              12300
loop_
_space_group_symop_operation_xyz
'x, y, z'
'-x, y+1/2, -z'
loop_
_atom_site_label
_atom_site_type_symbol
_atom_site_fract_x
_atom_site_fract_y
_atom_site_fract_z
_atom_site_U_iso_or_equiv
_atom_site_adp_type
_atom_site_occupancy
_atom_site_site_symmetry_order
_atom_site_calc_flag
_atom_site_refinement_flags_posn
_atom_site_refinement_flags_adp
Zn1 Zn -0.15654(5) 0.74612(5) 0.63734(3) 0.02498(14) Uani 1 1 d . .
O1 O 0.0316(4) 0.8680(3) 0.7684(3) 0.0325(6) Uani 1 1 d . .
O2 O 0.2285(5) 0.9139(3) 0.6270(3) 0.0340(6) Uani 1 1 d . .
O3 O 0.7970(5) 1.2072(4) 0.6998(3) 0.0511(10) Uani 1 1 d . .
O4 O -0.2082(5) 0.6386(3) 0.7889(3) 0.0363(7) Uani 1 1 d . .
O7 O -0.4176(6) 0.8334(4) 0.5139(4) 0.0485(8) Uani 1 1 d D .
N2 N 0.8665(5) 1.1856(3) 0.9302(3) 0.0279(6) Uani 1 1 d . .
H2 H 0.9652 1.1993 1.0059 0.042 Uiso 1 1 calc R U
O5 O -0.5390(5) 0.5813(3) 0.6683(3) 0.0375(7) Uani 1 1 d . .
O6 O 0.0062(6) 0.6368(4) 0.5361(4) 0.0498(8) Uani 1 1 d D .
C1 C 0.1944(6) 0.9193(3) 0.7403(4) 0.0239(7) Uani 1 1 d . .
C2 C 0.3511(6) 0.9926(4) 0.8563(4) 0.0241(7) Uani 1 1 d . .
C3 C 0.5379(6) 1.0500(4) 0.8347(4) 0.0265(7) Uani 1 1 d . .
H3 H 0.5673 1.0422 0.7506 0.032 Uiso 1 1 calc R U
C4 C 0.6790(6) 1.1192(4) 0.9422(4) 0.0249(7) Uani 1 1 d . .
C8 C 0.9121(6) 1.2307(5) 0.8162(4) 0.0312(8) Uani 1 1 d . .
C9 C 1.1120(8) 1.3138(5) 0.8398(5) 0.0430(10) Uani 1 1 d . .
H9A H 1.2052 1.2779 0.7895 0.064 Uiso 1 1 calc R U
H9B H 1.1874 1.3147 0.9357 0.064 Uiso 1 1 calc R U
H9C H 1.0716 1.4019 0.8092 0.064 Uiso 1 1 calc R U
C5 C 0.6365(6) 1.1265(4) 1.0684(4) 0.0256(7) Uani 1 1 d . .
H5 H 0.7352 1.1685 1.1409 0.031 Uiso 1 1 calc R U
C6 C 0.4488(6) 1.0720(4) 1.0881(4) 0.0242(7) Uani 1 1 d . .
C7 C 0.3057(5) 1.0040(4) 0.9815(4) 0.0236(7) Uani 1 1 d . .
H7 H 0.1804 0.9664 0.9941 0.028 Uiso 1 1 calc R U
C10 C -0.3986(6) 0.5967(4) 0.7778(4) 0.0252(7) Uani 1 1 d . .
H7A H -0.453(7) 0.780(4) 0.439(4) 0.038 Uiso 1 1 d D U
H7B H -0.520(7) 0.867(5) 0.551(5) 0.038 Uiso 1 1 d D U
H6B H -0.076(7) 0.567(4) 0.496(5) 0.038 Uiso 1 1 d D U
H6A H 0.144(5) 0.616(5) 0.590(5) 0.038 Uiso 1 1 d D U
loop_
_atom_site_aniso_label
_atom_site_aniso_U_11
_atom_site_aniso_U_22
_atom_site_aniso_U_33
_atom_site_aniso_U_23
_atom_site_aniso_U_13
_atom_site_aniso_U_12
Zn1 0.02209(19) 0.0331(2) 0.01891(19) -0.00068(19) 0.00440(13) -0.0031(2)
O1 0.0283(13) 0.0392(15) 0.0287(14) -0.0110(12) 0.0056(11) -0.0117(12)
O2 0.0365(15) 0.0409(16) 0.0234(14) -0.0071(11) 0.0062(11) -0.0031(12)
O3 0.0449(17) 0.077(3) 0.0305(15) 0.0091(15) 0.0090(13) -0.0132(16)
O4 0.0282(14) 0.0540(19) 0.0273(14) 0.0121(13) 0.0086(11) -0.0043(13)
O7 0.0379(17) 0.063(2) 0.0422(18) 0.0042(16) 0.0073(15) 0.0034(16)
N2 0.0218(15) 0.0378(16) 0.0234(15) -0.0021(13) 0.0049(11) -0.0049(13)
O5 0.0312(14) 0.0558(19) 0.0231(14) 0.0002(13) 0.0035(11) -0.0017(13)
O6 0.0430(19) 0.059(2) 0.047(2) -0.0151(17) 0.0118(15) -0.0057(17)
C1 0.0238(17) 0.0208(16) 0.0238(17) -0.0016(13) 0.0011(14) 0.0039(13)
C2 0.0221(16) 0.0253(16) 0.0234(17) -0.0032(13) 0.0038(14) 0.0004(13)
C3 0.0267(17) 0.0309(18) 0.0220(17) -0.0033(14) 0.0070(14) -0.0011(15)
C4 0.0214(16) 0.0257(17) 0.0269(18) 0.0020(13) 0.0056(14) 0.0011(13)
C8 0.0287(15) 0.036(2) 0.0287(16) 0.0019(18) 0.0069(13) -0.0024(18)
C9 0.039(2) 0.041(2) 0.052(3) 0.006(2) 0.017(2) -0.007(2)
C5 0.0239(17) 0.0279(18) 0.0228(17) -0.0056(14) 0.0028(13) -0.0006(14)
C6 0.0221(17) 0.0283(17) 0.0211(17) -0.0018(14) 0.0043(13) 0.0028(14)
C7 0.0226(16) 0.0232(16) 0.0252(17) -0.0022(13) 0.0071(14) -0.0017(13)
C10 0.0261(18) 0.0248(17) 0.0241(18) 0.0041(13) 0.0063(14) 0.0037(14)
loop_
_atom_type_symbol
_atom_type_description
_atom_type_scat_dispersion_real
_atom_type_scat_dispersion_imag
_atom_type_scat_source
C C 0.0033 0.0016 'International Tables Vol C Tables 4.2.6.8 and 6.1.1.4'
H H 0.0000 0.0000 'International Tables Vol C Tables 4.2.6.8 and 6.1.1.4'
N N 0.0061 0.0033 'International Tables Vol C Tables 4.2.6.8 and 6.1.1.4'
O O 0.0106 0.0060 'International Tables Vol C Tables 4.2.6.8 and 6.1.1.4'
Zn Zn 0.2839 1.4301 'International Tables Vol C Tables 4.2.6.8 and 6.1.1.4'
loop_
_geom_angle_atom_site_label_1
_geom_angle_atom_site_label_2
_geom_angle_atom_site_label_3
_geom_angle
_geom_angle_site_symmetry_3
O1 Zn1 O4 91.37(13) .
O1 Zn1 O6 113.01(13) .
O4 Zn1 O6 108.55(16) .
O1 Zn1 O7 113.17(15) .
O4 Zn1 O7 116.06(14) .
O6 Zn1 O7 112.91(16) .
C1 O1 Zn1 119.5(2) .
C10 O4 Zn1 118.6(2) .
Zn1 O7 H7A 103(3) .
Zn1 O7 H7B 119(3) .
H7A O7 H7B 122(5) .
C8 N2 C4 129.0(3) .
C8 N2 H2 115.5 .
C4 N2 H2 115.5 .
Zn1 O6 H6B 110(3) .
Zn1 O6 H6A 112(3) .
H6B O6 H6A 115(5) .
O2 C1 O1 124.4(3) .
O2 C1 C2 119.9(3) .
O1 C1 C2 115.7(3) .
C7 C2 C3 121.0(3) .
C7 C2 C1 119.5(3) .
C3 C2 C1 119.4(3) .
C4 C3 C2 118.7(3) .
C4 C3 H3 120.7 .
C2 C3 H3 120.7 .
C5 C4 C3 120.0(3) .
C5 C4 N2 116.5(3) .
C3 C4 N2 123.5(3) .
O3 C8 N2 122.9(4) .
O3 C8 C9 121.3(4) .
N2 C8 C9 115.8(3) .
C8 C9 H9A 109.5 .
C8 C9 H9B 109.5 .
H9A C9 H9B 109.5 .
C8 C9 H9C 109.5 .
H9A C9 H9C 109.5 .
H9B C9 H9C 109.5 .
C4 C5 C6 121.0(3) .
C4 C5 H5 119.5 .
C6 C5 H5 119.5 .
C5 C6 C7 119.6(3) .
C5 C6 C10 118.5(3) 2_557
C7 C6 C10 121.8(3) 2_557
C2 C7 C6 119.6(3) .
C2 C7 H7 120.2 .
C6 C7 H7 120.2 .
O5 C10 O4 124.5(4) .
O5 C10 C6 120.7(3) 2_547
O4 C10 C6 114.8(3) 2_547
loop_
_geom_bond_atom_site_label_1
_geom_bond_atom_site_label_2
_geom_bond_distance
_geom_bond_site_symmetry_2
Zn1 O1 1.966(3) .
Zn1 O4 1.992(3) .
Zn1 O6 1.996(4) .
Zn1 O7 1.997(4) .
O1 C1 1.268(5) .
O2 C1 1.233(5) .
O3 C8 1.231(5) .
O4 C10 1.267(5) .
O7 H7A 0.91(3) .
O7 H7B 0.91(3) .
N2 C8 1.353(5) .
N2 C4 1.413(5) .
N2 H2 0.8600 .
O5 C10 1.230(5) .
O6 H6B 0.91(3) .
O6 H6A 0.92(2) .
C1 C2 1.514(5) .
C2 C7 1.388(5) .
C2 C3 1.403(5) .
C3 C4 1.397(5) .
C3 H3 0.9300 .
C4 C5 1.387(5) .
C8 C9 1.496(6) .
C9 H9A 0.9600 .
C9 H9B 0.9600 .
C9 H9C 0.9600 .
C5 C6 1.389(5) .
C5 H5 0.9300 .
C6 C7 1.392(5) .
C6 C10 1.509(5) 2_557
C7 H7 0.9300 .
C10 C6 1.509(5) 2_547
loop_
_geom_hbond_atom_site_label_D
_geom_hbond_atom_site_label_H
_geom_hbond_atom_site_label_A
_geom_hbond_distance_DH
_geom_hbond_distance_HA
_geom_hbond_distance_DA
_geom_hbond_angle_DHA
_geom_hbond_site_symmetry_A
N2 H2 O4 0.86 2.31 3.113(4) 155.0 2_657
C3 H3 O3 0.93 2.38 2.909(5) 115.9 .
C5 H5 O1 0.93 2.54 3.366(5) 148.9 2_657
O7 H7A O3 0.91(3) 2.38(4) 3.054(5) 131(4) 2_546
O7 H7B O2 0.91(3) 2.03(3) 2.932(5) 171(5) 1_455
O6 H6B O2 0.91(3) 2.07(3) 2.959(5) 168(5) 2_546
O6 H6A O5 0.92(2) 2.00(2) 2.903(5) 167(5) 1_655
N2 H2 O4 0.86 2.31 3.113(4) 155.0 2_657
C3 H3 O3 0.93 2.38 2.909(5) 115.9 .
C5 H5 O1 0.93 2.54 3.366(5) 148.9 2_657
loop_
_geom_torsion_atom_site_label_1
_geom_torsion_atom_site_label_2
_geom_torsion_atom_site_label_3
_geom_torsion_atom_site_label_4
_geom_torsion
_geom_torsion_site_symmetry_1
_geom_torsion_site_symmetry_4
Zn1 O1 C1 O2 11.1(5) . .
Zn1 O1 C1 C2 -169.8(2) . .
O2 C1 C2 C7 176.7(3) . .
O1 C1 C2 C7 -2.4(5) . .
O2 C1 C2 C3 -2.1(5) . .
O1 C1 C2 C3 178.7(3) . .
C7 C2 C3 C4 0.2(6) . .
C1 C2 C3 C4 179.0(3) . .
C2 C3 C4 C5 2.0(6) . .
C2 C3 C4 N2 -177.2(3) . .
C8 N2 C4 C5 -157.0(4) . .
C8 N2 C4 C3 22.2(6) . .
C4 N2 C8 O3 -7.4(7) . .
C4 N2 C8 C9 171.8(4) . .
C3 C4 C5 C6 -3.5(6) . .
N2 C4 C5 C6 175.7(3) . .
C4 C5 C6 C7 2.9(6) . .
C4 C5 C6 C10 -172.9(3) . 2_557
C3 C2 C7 C6 -0.8(5) . .
C1 C2 C7 C6 -179.6(3) . .
C5 C6 C7 C2 -0.7(5) . .
C10 C6 C7 C2 175.0(3) 2_557 .
Zn1 O4 C10 O5 23.4(5) . .
Zn1 O4 C10 C6 -153.8(3) . 2_547
