#------------------------------------------------------------------------------
#$Date: 2016-04-04 14:24:23 +0300 (Mon, 04 Apr 2016) $
#$Revision: 181425 $
#$URL: svn://www.crystallography.net/cod/cif/4/51/38/4513824.cif $
#------------------------------------------------------------------------------
#
# This file is available in the Crystallography Open Database (COD),
# http://www.crystallography.net/
#
# All data on this site have been placed in the public domain by the
# contributors.
#
data_4513824
loop_
_publ_author_name
'Lu, Zhiyao'
'Demianets, Ivan'
'Hamze, Rasha'
'Terrile, Nicholas J.'
'Williams, Travis J.'
_publ_section_title
;
 A Prolific Catalyst for Selective Conversion of Neat Glycerol to Lactic
 Acid
;
_journal_issue                   3
_journal_name_full               'ACS Catalysis'
_journal_page_first              2014
_journal_paper_doi               10.1021/acscatal.5b02732
_journal_volume                  6
_journal_year                    2016
_chemical_formula_sum            'C2 H5 Na3 O8'
_chemical_formula_weight         226.03
_space_group_crystal_system      monoclinic
_space_group_IT_number           15
_space_group_name_Hall           '-C 2yc'
_space_group_name_H-M_alt        'C 1 2/c 1'
_symmetry_space_group_name_Hall  '-C 2yc'
_symmetry_space_group_name_H-M   'C 1 2/c 1'
_atom_sites_solution_hydrogens   difmap
_cell_angle_alpha                90
_cell_angle_beta                 106.491(4)
_cell_angle_gamma                90
_cell_formula_units_Z            4
_cell_length_a                   20.3758(9)
_cell_length_b                   3.4577(2)
_cell_length_c                   10.3049(4)
_cell_measurement_reflns_used    2025
_cell_measurement_temperature    100.(2)
_cell_measurement_theta_max      68.2763
_cell_measurement_theta_min      4.5263
_cell_volume                     696.15(6)
_computing_cell_refinement       'APEX2 v2014.11-0 (Bruker AXS, 2014)'
_computing_data_collection
'Bruker Instrument Service v2012.12.0.3 (Bruker AXS, 2012'
_computing_data_reduction        'SAINT V8.34A (Bruker AXS, 2013)'
_computing_structure_refinement  'SHELXTL XL 2014/7 (Bruker AXS, 2014)'
_computing_structure_solution    'SHELXTL XT 2014/4 (Bruker AXS, 2014)'
_diffrn_ambient_temperature      100.(2)
_diffrn_detector_area_resol_mean 8.3333
_diffrn_measured_fraction_theta_full 0.989
_diffrn_measured_fraction_theta_max 0.989
_diffrn_measurement_device_type  'Bruker APEX II CCD'
_diffrn_measurement_method       'omega- and phi-scans'
_diffrn_radiation_monochromator  'multi-layer optics'
_diffrn_radiation_type           'CuK\a '
_diffrn_radiation_wavelength     1.54178
_diffrn_reflns_av_R_equivalents  0.0341
_diffrn_reflns_av_unetI/netI     0.0339
_diffrn_reflns_limit_h_max       23
_diffrn_reflns_limit_h_min       -24
_diffrn_reflns_limit_k_max       3
_diffrn_reflns_limit_k_min       -4
_diffrn_reflns_limit_l_max       12
_diffrn_reflns_limit_l_min       -12
_diffrn_reflns_number            2833
_diffrn_reflns_theta_full        68.27
_diffrn_reflns_theta_max         68.27
_diffrn_reflns_theta_min         4.53
_diffrn_source                   'IuS microsource'
_exptl_absorpt_coefficient_mu    3.468
_exptl_absorpt_correction_type   multi-scan
_exptl_absorpt_process_details   'SADABS 2014/5 (Bruker AXS)'
_exptl_crystal_colour            colorless
_exptl_crystal_density_diffrn    2.157
_exptl_crystal_density_method    'not measured'
_exptl_crystal_F_000             456
_refine_diff_density_max         0.272
_refine_diff_density_min         -0.284
_refine_ls_extinction_method     none
_refine_ls_goodness_of_fit_ref   1.168
_refine_ls_hydrogen_treatment    refall
_refine_ls_matrix_type           full
_refine_ls_number_parameters     69
_refine_ls_number_reflns         631
_refine_ls_number_restraints     0
_refine_ls_restrained_S_all      1.168
_refine_ls_R_factor_all          0.0292
_refine_ls_R_factor_gt           0.0272
_refine_ls_shift/su_max          0.000
_refine_ls_shift/su_mean         0.000
_refine_ls_structure_factor_coef Fsqd
_refine_ls_weighting_details
'w=1/[\s^2^(Fo^2^)+(0.0413P)^2^+0.7402P] where P=(Fo^2^+2Fc^2^)/3'
_refine_ls_weighting_scheme      calc
_refine_ls_wR_factor_gt          0.0801
_refine_ls_wR_factor_ref         0.0817
_reflns_number_gt                580
_reflns_number_total             631
_reflns_threshold_expression     'I > 2\s(I)'
_cod_data_source_file            cs5b02732_si_004.cif
_cod_data_source_block           I
_cod_depositor_comments
'Adding full bibliography for 4513822--4513824.cif.'
_cod_database_code               4513824
_shelx_res_file
;
TITL final_a.res in C2/c
CELL  1.54178  20.3758   3.4577  10.3049   90.000  106.491   90.000
ZERR    4.000   0.0009   0.0002   0.0004    0.000    0.004    0.000
LATT 7
SYMM -X, Y, 1/2-Z
SFAC C  H  O  Na
UNIT 8 20 32 12
LIST 4
L.S. 10
ACTA
BOND $H
CONF
FMAP 2
PLAN 20
TEMP -173.180
WGHT    0.041300    0.740200
FVAR       0.53720
C1    1    0.593064    0.734102    0.603294    11.00000    0.01430    0.00826 =
         0.00884   -0.00161    0.00366   -0.00239
O1    3    0.651319    0.598932    0.601307    11.00000    0.01337    0.01570 =
         0.00874   -0.00084    0.00510    0.00028
O2    3    0.572653    0.746061    0.708517    11.00000    0.01492    0.01405 =
         0.00737   -0.00022    0.00653   -0.00011
O3    3    0.554141    0.871281    0.487224    11.00000    0.01513    0.01670 =
         0.00739    0.00186    0.00392    0.00093
H3    2    0.500000    1.000000    0.500000    10.50000    0.16528
O4    3    0.712055   -0.337951    0.354450    11.00000    0.01460    0.01779 =
         0.01047   -0.00244    0.00611   -0.00408
H1    2    0.749909   -0.274506    0.355341    11.00000    0.03683
H2    2    0.693215   -0.395318    0.268549    11.00000    0.04230
NA1   4    0.650961    0.159961    0.425798    11.00000    0.01775    0.01392 =
         0.00960   -0.00070    0.00630   -0.00173
NA2   4    0.500000    0.253146    0.750000    10.50000    0.01505    0.01277 =
         0.00915    0.00000    0.00515    0.00000
HKLF 4

REM  final_a.res in C2/c
REM R1 =  0.0272 for     580 Fo > 4sig(Fo)  and  0.0292 for all     631 data
REM     69 parameters refined using      0 restraints

END

WGHT      0.0413      0.7402

REM Highest difference peak  0.272,  deepest hole -0.284,  1-sigma level  0.068
Q1    1   0.5160  0.7661  0.6814  11.00000  0.05    0.27
Q2    1   0.6482  0.6539  0.5048  11.00000  0.05    0.26
Q3    1   0.6639 -0.3443  0.3947  11.00000  0.05    0.25
Q4    1   0.5766  1.2307  0.6279  11.00000  0.05    0.23
Q5    1   0.5916  0.9009  0.7032  11.00000  0.05    0.22
Q6    1   0.6678  0.5124  0.6543  11.00000  0.05    0.19
Q7    1   0.7079 -0.8226  0.2801  11.00000  0.05    0.18
Q8    1   0.4383  0.2527  0.8018  11.00000  0.05    0.18
Q9    1   0.7094  0.1683  0.4556  11.00000  0.05    0.18
Q10   1   0.6011  0.6436  0.3946  11.00000  0.05    0.17
Q11   1   0.4970  0.5789  0.5645  11.00000  0.05    0.16
Q12   1   0.5632  0.4024  0.4227  11.00000  0.05    0.16
Q13   1   0.7221 -0.5610  0.3801  11.00000  0.05    0.15
Q14   1   0.6561  0.7362  0.6116  11.00000  0.05    0.15
Q15   1   0.5374  0.5793  0.6404  11.00000  0.05    0.14
Q16   1   0.6440  1.1195  0.6315  11.00000  0.05    0.14
Q17   1   0.7812 -0.6894  0.3588  11.00000  0.05    0.14
Q18   1   0.4304  0.2378  0.7267  11.00000  0.05    0.13
Q19   1   0.7278  0.1564  0.3583  11.00000  0.05    0.13
Q20   1   0.7879 -0.4574  0.4016  11.00000  0.05    0.13
;
_shelx_res_checksum              37463
_shelx_hkl_file
;
  -2   0   0  357.46   18.80
   2   0   0  321.07   18.80
  -4   0   0  768.92   41.90
  -6   0   0  221.18   12.50
  -8   0   0  334.37   18.20
  -8   0   0  315.17   18.30
 -10   0   0  945.31   52.09
 -10   0   0  950.30   52.19
 -12   0   0  594.44   34.00
 -12   0   0  625.74   34.20
 -14   0   0 3923.61  213.58
 -16   0   0  366.06   20.10
 -16   0   0  307.07   18.80
  18   0   0   81.19    5.90
 -18   0   0   72.49    5.90
 -18   0   0   78.99    6.30
 -18   0   0   88.69    6.10
 -18   0   0   83.19    6.00
 -18   0   0   81.69    7.00
 -20   0   0  959.40   52.49
 -20   0   0 1033.00   52.49
  20   0   0  995.20   52.39
 -20   0   0  911.11   52.29
 -20   0   0  871.81   52.59
 -22   0   0   11.20    2.00
 -22   0   0   11.70    2.20
  22   0   0   14.10    2.30
 -22   0   0   15.70    2.20
 -22   0   0   15.20    2.40
  -1  -1   0  117.89    6.80
  -3  -1   0  540.15   29.70
  -5  -1   0  175.68   10.10
   5  -1   0  172.98   10.10
  -5   1   0  172.18   10.10
  -7  -1   0    2.90    1.70
  -7  -1   0    0.90    1.30
   7  -1   0    2.90    1.40
  -7   1   0    0.90    1.30
   9  -1   0  432.16   24.00
  -9  -1   0  443.56   24.30
  -9  -1   0  421.76   24.20
  -9   1   0  422.66   24.10
 -11  -1   0   42.80    4.20
  11  -1   0   40.10    3.50
 -11  -1   0   36.60    4.20
 -11   1   0   41.50    4.00
 -13  -1   0    5.90    2.40
 -13  -1   0    2.20    2.20
 -13   1   0    0.70    2.20
 -15  -1   0   -1.50    2.20
 -15  -1   0    0.30    1.60
 -15   1   0    3.40    2.90
 -17  -1   0   60.39    6.10
 -17  -1   0   62.49    4.70
 -17  -1   0   61.39    4.70
 -17  -1   0   64.59    5.10
 -17   1   0   49.30    6.60
 -17   1   0   69.59    5.70
 -17   1   0   56.49    5.20
 -17   1   0   62.99    4.90
 -17   1   0   64.39    5.40
 -19  -1   0    2.40    1.60
 -19  -1   0    4.20    2.00
 -19  -1   0    1.10    1.70
 -19   1   0    2.60    1.90
  19   1   0    1.80    2.20
 -19   1   0    4.10    2.00
 -19   1   0    0.40    2.50
 -19   1   0    5.90    2.30
 -21  -1   0   34.20    3.40
 -21  -1   0   32.60    3.40
  21   1   0   37.10    3.40
 -21   1   0   35.70    3.80
 -21   1   0   37.70    3.60
 -21   1   0   43.00    3.80
   0  -2   0 2910.81  172.38
   0  -2   0 3451.45  173.58
   0   2   0 3175.58  172.48
   2  -2   0  381.76   22.60
  -2  -2   0  391.86   23.50
   2  -2   0  436.06   23.70
  -2   2   0  395.16   22.70
   4  -2   0    2.60    2.60
   4  -2   0    3.80    2.00
  -4  -2   0    1.00    2.50
  -4   2   0    1.30    1.80
   6  -2   0   44.90    4.20
  -6  -2   0   42.40    4.80
   8  -2   0   -0.40    2.00
  -8  -2   0    3.30    2.20
 -10  -2   0  164.88   11.20
  10  -2   0  183.78   10.90
  12  -2   0  354.26   19.40
 -12  -2   0  351.36   20.50
 -12   2   0  314.67   20.00
 -12   2   0  348.67   19.40
 -12   2   0  309.57   18.80
  12   2   0  348.97   20.10
 -12   2   0  302.87   19.40
 -14  -2   0  514.35   27.30
 -14  -2   0  441.36   25.90
  14  -2   0  430.16   26.70
 -14   2   0  475.25   26.60
  14   2   0  494.35   27.10
 -14   2   0  455.05   26.40
 -14   2   0  457.05   26.20
 -14   2   0  448.06   26.70
 -14   2   0  516.75   26.70
 -16  -2   0   -0.30    1.30
 -16  -2   0   -0.40    2.70
 -16   2   0    0.80    2.30
 -16   2   0   -1.00    2.40
  16   2   0   -0.80    2.70
 -16   2   0   -0.80    2.00
 -16   2   0    0.10    2.50
 -16   2   0   -1.70    2.50
  18  -2   0    6.60    2.10
 -18   2   0    3.20    2.20
 -18   2   0   -0.10    1.90
 -18   2   0    1.10    1.70
  18   2   0   -2.10    2.40
 -18   2   0    2.60    2.10
  20  -2   0   36.50    3.00
 -20   2   0   34.80    3.20
 -20   2   0   38.60    3.40
 -20   2   0   36.20    3.30
 -20   2   0   30.60    2.90
   1  -3   0   85.79    5.70
  -1  -3   0   72.49    7.90
  -1  -3   0   86.09    5.60
   1  -3   0   72.79    7.80
  -1   3   0   89.99    5.80
   3  -3   0   15.00    2.40
  -3  -3   0   20.20    2.10
   3  -3   0   16.90    4.70
  -3  -3   0   18.20    4.50
  -3   3   0   19.60    2.40
   5  -3   0   48.20    4.60
  -5  -3   0   32.50    5.40
   5  -3   0   36.00    4.00
  -5  -3   0   37.50    3.40
  -5   3   0   43.50    4.20
  -5   3   0   42.20    4.10
  -7  -3   0  262.37   15.40
   7  -3   0  272.47   15.80
  -7   3   0  276.97   16.00
  -7   3   0  286.77   15.90
   9  -3   0  415.96   24.20
  -9  -3   0  438.26   23.90
  -9   3   0  433.76   24.40
   9   3   0  436.16   24.80
  -9   3   0  427.76   24.30
 -11  -3   0   78.89    5.60
 -11   3   0   88.19    6.20
 -11   3   0   90.99    5.90
  11   3   0   85.69    6.70
 -11   3   0   90.49    6.20
  13   3   0   43.70    4.70
 -13   3   0   49.50    4.30
 -13   3   0   51.79    4.10
 -13   3   0   53.39    4.40
  15  -3   0    1.20    1.60
 -15   3   0    1.80    1.50
  15   3   0    1.10    2.00
 -15   3   0   -0.50    1.60
 -15   3   0    1.10    1.80
   0  -4   0   14.30    1.60
   2  -4   0  198.48   11.40
  -2  -4   0  203.78   11.30
   4  -4   0   48.00    3.40
  -4  -4   0   48.10    3.20
   6  -4   0  111.09    6.50
 -24   0   1    0.90    1.30
 -24   0   1   -0.10    1.40
 -24   0   1    0.20    1.80
 -22   0   1   -2.10    1.70
 -22   0   1    2.00    2.20
  22   0  -1   -0.40    1.80
 -22   0   1    0.00    1.80
 -22   0   1   -2.50    1.70
  20   0  -1    2.80    2.20
 -20   0   1   -0.60    1.90
 -20   0   1   -0.10    2.40
 -20   0   1    2.40    2.20
 -20   0   1   -1.60    1.80
 -18   0   1    0.40    1.90
 -18   0   1    0.10    2.00
 -18   0   1    1.60    2.30
 -18   0   1   -1.70    1.90
 -18   0   1    2.60    2.50
 -16   0   1    2.10    2.70
 -16   0   1    1.60    1.50
 -14   0   1   -1.60    2.10
 -12   0   1   -0.60    1.70
 -12   0   1   -0.40    1.80
 -10   0   1    0.20    1.50
 -10   0   1    0.00    1.50
  -8   0   1   -1.80    1.10
  -8   0   1   -0.50    1.20
  -6   0   1    0.80    1.10
  -4   0   1   -0.60    0.70
   0   0   1   -0.10    0.80
   0   0  -1    0.00    0.90
   2   0   1  -10.60    1.30
  -2   0  -1  -10.10    1.50
  -4   0  -1   -0.40    1.10
  -6   0  -1   -0.20    1.90
  -6   0  -1   -2.20    1.30
  -8   0  -1    0.40    1.60
  -8   0  -1   -1.30    1.50
 -10   0  -1   -0.40    1.80
 -10   0  -1   -2.00    1.80
 -12   0  -1   -0.90    2.10
 -14   0  -1    1.70    1.60
 -14   0  -1   -3.40    2.40
 -16   0  -1   -1.60    1.80
 -16   0  -1    0.00    2.60
 -16   0  -1   -0.70    2.50
  16   0   1    1.40    2.00
 -16   0  -1    0.40    1.80
 -18   0  -1    1.90    2.30
  18   0   1    1.00    1.90
 -18   0  -1    0.20    1.90
 -18   0  -1    0.10    2.40
  20   0   1   -1.90    1.80
 -20   0  -1    3.80    2.10
 -20   0  -1   -1.20    2.10
 -20   0  -1    0.90    1.80
  22   0   1   -1.00    1.40
 -22   0  -1   -1.70    1.60
 -22   0  -1    0.60    1.60
 -23   1   1  277.97   14.80
 -23   1   1  276.37   14.90
 -23   1   1  236.28   14.80
 -21  -1   1   -0.90    1.60
 -21  -1   1   -0.80    1.60
 -21  -1   1    0.70    1.50
 -21   1   1    0.50    1.90
 -21   1   1    2.30    2.30
  21   1  -1    2.50    1.80
 -21   1   1    1.00    2.00
 -19  -1   1  251.87   15.10
 -19  -1   1  235.68   15.30
 -19  -1   1  270.87   15.10
 -19  -1   1  263.67   15.30
 -19   1   1  276.47   15.50
 -19   1   1  295.67   15.80
 -19   1   1  259.57   15.30
 -17  -1   1  160.28    9.30
 -17  -1   1  139.29   10.40
 -17  -1   1  146.29    9.60
 -17  -1   1  139.59    9.30
 -17  -1   1  159.98    9.50
 -17   1   1  162.08    9.50
 -17   1   1  186.78   10.20
 -17   1   1  146.09    9.70
 -17   1   1  150.68    9.80
 -15  -1   1    2.50    2.40
 -15  -1   1    7.90    1.80
 -13  -1   1  476.85   25.40
 -13   1   1  407.06   25.30
  11  -1  -1  151.98    9.20
 -11  -1   1  175.18    9.80
 -11  -1   1  163.68    9.70
 -11   1   1  125.69    9.30
  -9  -1   1  252.57   15.20
  -9  -1   1  260.57   15.30
   9  -1  -1  269.17   15.10
  -9   1   1  272.97   15.10
  -7  -1   1   36.60    3.20
  -7  -1   1   28.50    3.20
   7  -1  -1   32.20    3.00
  -7  -1   1   31.50    3.10
  -7   1   1   33.80    3.10
   5  -1  -1 9630.84  534.05
  -5  -1   1 9999.00  534.15
  -5   1   1 9981.20  534.15
  -3  -1   1 2020.10  109.59
  -1  -1   1    1.50    0.90
  -1  -1  -1 1577.44   85.69
  -3  -1  -1   39.10    3.00
   3  -1   1   35.60    2.80
  -5  -1  -1  115.59    7.00
   5  -1   1  114.09    6.80
  -5   1  -1  108.99    7.00
  -7  -1  -1   91.99    5.80
   7  -1   1   79.59    5.20
  -7  -1  -1   76.69    5.40
  -7   1  -1   80.39    5.60
  -9  -1  -1 3844.42  205.88
   9  -1   1 3934.21  205.58
  -9  -1  -1 3610.04  205.68
  -9   1  -1 3768.12  205.78
 -11  -1  -1    4.60    2.10
  11  -1   1    4.90    2.00
 -11  -1  -1    4.10    2.40
 -11   1  -1    5.60    2.20
 -13  -1  -1   50.09    4.90
 -13  -1  -1   50.19    5.20
  13  -1   1   49.70    4.40
 -13  -1  -1   44.30    3.90
 -13   1  -1   45.30    5.20
 -13   1  -1   47.70    4.10
 -15  -1  -1  216.28   12.60
  15  -1   1  202.98   12.60
 -15  -1  -1  214.48   12.70
 -15  -1  -1  217.28   13.70
 -15   1  -1  212.28   12.60
 -15   1  -1  226.88   13.20
 -15   1  -1  240.28   14.30
 -15   1  -1  216.78   12.80
 -15   1  -1  198.18   13.00
 -15   1  -1  235.08   13.80
  17  -1   1  273.97   15.80
 -17  -1  -1  273.37   15.70
 -17  -1  -1  271.37   15.90
 -17   1  -1  269.67   15.90
 -17   1  -1  266.97   16.10
 -17   1  -1  276.47   16.30
 -17   1  -1  287.17   15.90
 -17   1  -1  279.17   15.80
  17   1   1  273.77   15.80
 -19  -1  -1   70.99    5.40
 -19  -1  -1   73.59    5.30
  19  -1   1   73.69    5.30
 -19   1  -1   76.29    5.70
 -19   1  -1   73.99    5.80
  19   1   1   73.29    5.30
 -19   1  -1   78.09    5.30
 -19   1  -1   78.89    5.20
 -21  -1  -1    8.80    1.70
 -21  -1  -1    9.00    1.70
 -21   1  -1   10.50    1.90
  21   1   1    8.20    1.70
 -21   1  -1    6.90    2.00
 -21   1  -1    7.30    1.60
  20  -2  -1    6.50    1.70
 -20  -2   1    5.20    1.30
 -20   2   1    5.20    1.90
  20   2  -1    6.70    2.40
 -20   2   1    7.90    1.70
 -20   2   1   12.40    2.00
 -20   2   1    6.30    1.90
 -18  -2   1  271.47   16.60
 -18  -2   1  271.17   15.70
  18  -2  -1  274.17   16.10
 -18   2   1  253.07   16.10
 -18   2   1  285.47   15.90
  18   2  -1  272.57   16.50
 -18   2   1  293.67   16.10
 -18   2   1  313.17   16.40
 -16  -2   1  144.29    8.50
 -16  -2   1  137.19    9.90
 -16   2   1  145.59    9.40
 -16   2   1  139.89    8.90
 -16   2   1  144.39    9.60
 -16   2   1  144.89   10.00
 -16   2   1  156.58    9.50
  16   2  -1  135.09    9.70
 -14  -2   1  871.71   48.70
  14  -2  -1  837.82   49.30
 -14  -2   1  923.21   49.70
 -14   2   1 1010.80   51.29
 -14   2   1  865.61   49.30
  14   2  -1  899.01   49.50
 -14   2   1  842.32   49.10
 -14   2   1  893.51   48.90
 -14   2   1  906.11   49.20
  12  -2  -1  412.76   22.60
 -12   2   1  369.86   22.10
 -12   2   1  400.16   22.50
  10  -2  -1   98.79    6.60
 -10  -2   1   81.99    6.80
   8  -2  -1  203.58   11.80
  -8  -2   1  182.58   11.90
  -8  -2   1  185.88   12.30
  -8   2   1  197.18   11.80
  -6  -2   1  404.26   24.90
   6  -2  -1  437.06   24.30
  -6   2   1  443.46   24.40
   4  -2  -1 1270.87   71.29
  -4  -2   1 1354.96   71.29
   4  -2  -1 1289.27   70.49
  -4   2   1 1227.18   70.49
   2  -2  -1  265.67   16.10
  -2  -2   1  267.97   15.90
   2  -2  -1  249.78   15.10
  -2   2   1  254.87   15.20
   0  -2   1  115.89    8.30
   0  -2  -1  154.08    9.90
   0  -2  -1  129.39    8.60
   0  -2   1  154.28    9.70
   0   2   1  146.59    8.70
  -2  -2  -1 1806.72   96.39
   2  -2   1 1689.63   95.29
   2  -2   1 1751.62   96.19
   4  -2   1 2340.87  123.09
   4  -2   1 2200.58  122.29
  -4  -2  -1 2198.48  123.19
  -6  -2  -1  569.34   35.10
   6  -2   1  663.63   34.40
   8  -2   1  223.58   12.80
  -8  -2  -1  201.78   13.00
  10  -2   1    0.40    2.10
 -10  -2  -1   -1.60    2.60
 -10   2  -1    2.30    3.40
 -12  -2  -1   53.89    4.20
  12  -2   1   46.50    4.60
 -12  -2  -1   50.99    5.90
 -12   2  -1   47.90    4.40
  12   2   1   51.29    5.80
 -12   2  -1   49.70    5.00
 -12   2  -1   52.19    5.30
 -12   2  -1   47.40    5.00
 -14  -2  -1  191.98   11.50
  14  -2   1  194.68   12.10
 -14   2  -1  218.98   12.30
  14   2   1  192.68   12.70
 -14   2  -1  191.48   12.00
 -14   2  -1  190.38   12.40
 -14   2  -1  211.98   12.30
 -14   2  -1  193.28   11.80
 -16  -2  -1  395.56   22.80
  16  -2   1  410.66   23.20
 -16   2  -1  442.56   23.00
 -16   2  -1  390.46   23.10
 -16   2  -1  414.66   23.30
  16   2   1  408.06   23.60
 -16   2  -1  394.76   23.40
 -16   2  -1  423.56   23.10
 -18  -2  -1  318.97   18.20
  18  -2   1  327.57   18.50
 -18   2  -1  329.37   18.60
 -18   2  -1  347.57   18.30
 -18   2  -1  307.17   18.50
 -18   2  -1  323.77   18.40
  18   2   1  332.97   18.80
 -20   2  -1    0.60    1.30
 -15  -3   1   30.10    2.30
 -15   3   1   33.00    3.50
  15   3  -1   25.20    3.20
 -15   3   1   17.30    2.60
 -15   3   1   30.20    3.30
 -15   3   1   26.20    2.80
 -13  -3   1  171.68    9.60
 -13  -3   1  167.68   10.80
 -13   3   1  168.08    9.90
 -13   3   1  178.38   10.10
  13   3  -1  161.78   10.60
 -13   3   1  149.09   10.30
 -13   3   1  165.58   10.20
 -11  -3   1   18.80    1.90
 -11  -3   1   15.10    3.30
 -11   3   1   16.90    2.60
  11   3  -1   14.30    3.30
 -11   3   1    9.20    2.50
 -11   3   1   12.80    2.20
 -11   3   1   18.60    3.00
  -9  -3   1    5.00    1.50
  -9   3   1    7.70    2.30
  -9   3   1   12.10    2.70
  -9   3   1    7.00    2.10
  -9   3   1    7.20    2.30
  -7  -3   1  232.08   13.10
  -7  -3   1  192.08   16.30
   7  -3  -1  229.18   13.50
  -7   3   1  232.68   13.70
  -7   3   1  238.68   13.70
  -7   3   1  238.38   13.50
   5  -3  -1  350.96   19.80
   5  -3  -1  378.06   20.40
  -5  -3   1  333.37   19.50
  -5  -3   1  291.37   21.30
  -5   3   1  354.86   19.90
  -5   3   1  361.46   19.90
  -5   3   1  368.76   19.80
   3  -3  -1    8.90    2.10
  -3  -3   1   11.40    4.20
  -3  -3   1   11.20    1.80
   3  -3  -1   12.20    4.30
  -3   3   1   12.20    2.10
  -1  -3   1    2.80    3.90
  -1  -3   1    3.30    1.70
   1  -3  -1    5.60    1.70
   1  -3  -1    5.40    4.10
  -1   3   1    5.10    1.80
   1  -3   1    9.20    1.90
   1  -3   1    5.60    3.90
  -1  -3  -1   -0.20    3.90
  -1  -3  -1    7.70    1.70
  -1   3  -1   10.30    2.10
   3  -3   1    7.90    4.00
  -3  -3  -1    2.40    3.70
   3  -3   1    0.10    1.70
  -3  -3  -1   -1.70    1.30
  -3   3  -1    0.40    1.90
   5  -3   1  214.68   13.20
  -5  -3  -1  183.28   14.20
   5  -3   1  224.18   12.60
  -5   3  -1  223.28   12.90
  -5   3  -1  218.18   12.60
   7  -3   1 1071.09   56.09
  -7   3  -1 1009.90   56.29
  -7   3  -1  989.40   56.09
   9  -3   1  235.68   13.20
  -9   3  -1  230.98   13.50
  -9   3  -1  219.28   13.20
   9   3   1  214.78   13.70
  11  -3   1   25.60    2.60
  11   3   1   23.50    3.40
 -11   3  -1   19.30    2.60
 -11   3  -1   16.40    2.80
 -11   3  -1   14.20    2.50
  13  -3   1   34.70    3.40
 -13   3  -1   32.90    3.70
 -13   3  -1   30.70    3.50
 -13   3  -1   34.40    3.30
  13   3   1   32.20    3.90
  15  -3   1   -0.30    1.20
 -15   3  -1   -0.50    1.40
 -15   3  -1    1.10    1.40
  15   3   1   -1.50    1.80
 -15   3  -1    2.10    1.50
   6  -4  -1   29.50    2.50
  -6  -4   1   32.80    2.40
  -4  -4   1   30.10    2.50
   4  -4  -1   31.20    2.60
   2  -4  -1    4.20    1.10
  -2  -4   1    1.90    1.10
   0  -4   1   73.29    4.30
   0  -4  -1   59.49    4.20
   2  -4   1  162.98    9.30
   4  -4   1    9.20    1.40
 -24   0   2  182.58   11.60
 -24   0   2  206.88   11.50
 -24   0   2  217.68   11.50
 -22   0   2   -0.90    1.70
  22   0  -2    0.00    2.00
 -22   0   2    2.00    2.20
 -22   0   2   -0.30    1.80
 -22   0   2    2.20    1.70
 -20   0   2   34.90    3.80
 -20   0   2   36.30    4.00
 -20   0   2   26.70    3.60
 -20   0   2   32.40    4.10
 -18   0   2  122.69    8.90
 -18   0   2  117.39    7.90
 -18   0   2  120.49    7.80
 -18   0   2  113.19    7.70
 -18   0   2  134.19    8.30
 -16   0   2  560.14   31.90
 -16   0   2  595.14   32.90
 -14   0   2    8.20    2.40
 -12   0   2   47.70    4.10
 -12   0   2   49.80    4.40
 -10   0   2 7221.48  392.26
 -10   0   2 7260.07  392.16
  -8   0   2  165.18    9.40
  -8   0   2  151.38    9.50
  -6   0   2  232.38   13.20
  -4   0   2   61.69    4.00
  -2   0   2    0.70    0.60
   0   0   2  146.89    8.30
   0   0  -2  146.69    8.30
  -2   0  -2  393.26   21.90
  -4   0  -2 6906.41  373.76
  -6   0  -2 1169.08   64.19
  -6   0  -2 1210.98   64.19
   6   0   2 1144.79   63.89
  -8   0  -2   22.40    2.90
  -8   0  -2   19.30    3.00
 -10   0  -2  725.13   39.90
 -10   0  -2  708.33   39.80
 -12   0  -2  720.83   40.40
  14   0   2  351.96   19.70
 -14   0  -2  326.97   19.70
 -14   0  -2  371.56   20.80
 -16   0  -2  230.58   12.90
 -16   0  -2  199.28   12.70
  16   0   2  222.28   12.70
 -16   0  -2  212.68   13.90
 -18   0  -2   96.09    6.50
 -18   0  -2   84.59    6.20
  18   0   2   84.19    6.10
  20   0   2  598.54   33.30
 -20   0  -2  615.34   33.40
 -20   0  -2  597.04   33.40
 -22   0  -2    2.40    1.40
 -23  -1   2   23.40    2.70
 -23   1   2   29.70    3.00
 -23   1   2   21.80    2.60
 -23   1   2   31.40    3.00
 -21  -1   2   42.80    4.10
 -21  -1   2   47.80    3.70
 -21  -1   2   38.80    4.00
 -21   1   2   38.20    4.10
 -21   1   2   44.00    4.00
 -21   1   2   37.40    4.30
 -19  -1   2  347.27   18.60
 -19  -1   2  301.47   18.60
 -19  -1   2  330.47   18.30
 -19   1   2  324.77   18.60
 -19   1   2  298.07   18.50
 -19   1   2  336.67   18.90
 -17  -1   2   39.40    3.40
 -17  -1   2   35.00    4.80
 -17  -1   2   35.70    3.80
 -17  -1   2   29.80    3.60
 -17   1   2   35.00    4.10
 -17   1   2   41.10    4.80
 -17   1   2   22.50    3.30
 -15  -1   2   47.60    5.00
 -15  -1   2   54.89    5.60
 -15  -1   2   51.19    4.30
 -13  -1   2   -1.10    1.90
 -13  -1   2   -2.80    2.10
  11  -1  -2  299.17   17.00
 -11  -1   2  306.57   17.40
 -11  -1   2  299.67   17.40
 -11   1   2  279.17   17.00
  -9  -1   2 1495.55   81.49
  -9  -1   2 1469.75   81.49
   9  -1  -2 1488.85   81.29
  -9   1   2 1504.75   81.29
  -7  -1   2  363.56   22.60
  -7  -1   2  427.76   22.80
  -7  -1   2  412.56   22.60
  -7   1   2  407.36   22.60
  -5  -1   2 1548.35   84.09
  -5  -1   2 1627.44   84.39
  -5  -1   2 1459.35   84.09
  -5   1   2 1539.45   84.09
  -3  -1   2  533.65   29.60
  -3  -1   2  548.85   29.90
  -3   1   2  529.15   29.70
  -1  -1   2   27.40    2.20
   1  -1  -2   23.50    2.20
   1  -1   2 1399.46   78.59
  -1  -1  -2 1407.46   79.19
   1  -1   2 1472.85   78.49
  -1  -1  -2 1498.45   78.69
  -1   1  -2 1313.47   78.49
   1   1   2 1592.24   79.59
  -3  -1  -2  577.24   30.60
  -3  -1  -2  538.35   30.90
   3  -1   2  557.34   30.40
  -3   1  -2  550.14   30.50
   3   1   2  539.15   31.00
   5  -1   2  826.92   45.60
  -5  -1  -2  831.22   45.90
  -5   1  -2  842.72   45.80
  -7  -1  -2    6.20    2.30
   7  -1   2    4.40    1.60
  -7   1  -2    5.80    1.90
  -9  -1  -2   89.99    6.60
   9  -1   2   96.29    6.10
  -9   1  -2   87.39    6.40
 -11  -1  -2 1080.69   61.69
  11  -1   2 1094.59   61.19
 -11  -1  -2 1204.18   63.79
 -11   1  -2 1100.39   61.59
 -13  -1  -2   12.20    2.10
  13  -1   2   10.40    2.30
 -13   1  -2   10.90    2.20
  13   1   2    9.20    1.90
 -13   1  -2   10.30    2.90
 -15  -1  -2  150.58    9.50
 -15  -1  -2  154.28    9.30
  15  -1   2  154.08    9.40
  15   1   2  147.69    9.30
 -15   1  -2  149.19    9.90
 -15   1  -2  164.98    9.60
 -15   1  -2  159.58   10.50
 -15   1  -2  141.69    9.80
 -17  -1  -2    6.10    2.00
  17  -1   2    3.10    2.10
 -17  -1  -2    1.10    1.60
 -17   1  -2    4.90    2.60
 -17   1  -2    4.10    1.90
 -17   1  -2    3.30    2.30
  17   1   2    6.90    2.00
 -19  -1  -2    3.00    1.60
 -19  -1  -2    3.40    1.70
  19  -1   2    4.20    1.90
 -19   1  -2    4.10    2.20
 -19   1  -2    2.70    1.60
 -19   1  -2    5.80    2.00
  19   1   2    1.60    1.70
  21  -1   2   99.79    6.10
 -21  -1  -2  114.09    6.20
 -21   1  -2  100.09    6.20
 -21   1  -2   89.09    6.10
 -21   1  -2   95.19    6.00
 -20  -2   2    9.60    1.50
  20   2  -2   10.40    2.50
 -20   2   2   10.10    1.80
 -20   2   2   11.60    2.10
 -20   2   2   14.40    2.10
 -18  -2   2    6.00    1.50
 -18  -2   2    2.80    2.70
 -18   2   2    4.90    2.30
 -18   2   2    2.40    1.80
 -18   2   2    9.20    2.40
  18   2  -2    6.70    2.80
 -16  -2   2  283.17   16.20
 -16  -2   2  284.97   17.30
 -16   2   2  281.57   16.40
  16   2  -2  281.77   17.10
 -16   2   2  283.47   16.90
 -16   2   2  309.17   16.90
 -14  -2   2  167.08   10.00
  14  -2  -2  180.08   10.90
 -14  -2   2  184.08   11.50
  14   2  -2  176.58   11.30
 -14   2   2  142.79   10.70
 -14   2   2  179.08   10.80
 -14   2   2  174.68   11.00
 -14   2   2  172.88   10.40
  12  -2  -2    4.90    2.50
 -12   2   2    1.90    2.50
 -12   2   2    5.90    2.00
  10  -2  -2  653.33   37.10
 -10  -2   2  657.33   37.50
 -10   2   2  678.63   37.30
  -8  -2   2  351.76   21.60
   8  -2  -2  392.16   21.50
  -8  -2   2  355.16   22.00
  -8   2   2  395.06   21.60
  -6  -2   2    1.30    2.40
   6  -2  -2    5.60    2.30
   6  -2  -2    3.40    3.00
  -6   2   2    3.60    2.10
  -4  -2   2  112.39    8.20
   4  -2  -2  112.49    7.60
   4  -2  -2  112.39    8.50
  -4   2   2  114.29    7.70
   2  -2  -2  518.95   29.70
   2  -2  -2  555.94   30.80
  -2  -2   2  529.35   30.40
  -2   2   2  515.75   29.80
   0  -2  -2  454.25   25.70
   0  -2   2  372.46   24.30
   0  -2   2  478.25   25.50
   0   2   2  454.95   24.70
   2  -2   2  362.76   21.10
   2  -2   2  391.06   22.00
  -2  -2  -2  370.76   22.30
  -4  -2  -2 1695.93   97.59
   4  -2   2 1845.12   96.69
  -6  -2  -2    2.40    2.70
   6  -2   2   -0.20    1.80
  -8  -2  -2  207.28   13.80
   8  -2   2  242.58   13.60
  10  -2   2    1.00    2.10
 -10  -2  -2    7.20    2.20
 -10   2  -2    3.00    2.30
 -10   2  -2    3.50    1.80
  12  -2   2  363.26   23.20
  12  -2   2  425.36   23.20
 -12  -2  -2  419.16   22.80
 -12   2  -2  385.36   22.80
  12   2   2  419.56   23.70
 -12   2  -2  420.96   23.30
 -12   2  -2  438.46   23.20
 -12   2  -2  373.36   22.90
 -14  -2  -2  257.97   14.50
  14  -2   2  260.47   15.00
 -14   2  -2  235.28   14.70
  14   2   2  261.57   15.50
 -14   2  -2  241.08   15.00
 -14   2  -2  249.18   14.70
 -14   2  -2  267.97   15.10
  16  -2   2  108.19    7.00
 -16  -2  -2  106.29    6.70
  16   2   2  106.39    7.50
 -16   2  -2  117.69    6.90
 -16   2  -2  100.39    7.20
 -16   2  -2  106.19    7.20
 -16   2  -2  104.79    6.90
 -18  -2  -2  130.99    7.60
  18  -2   2  129.99    7.80
 -18   2  -2  129.19    7.70
  18   2   2  129.29    8.00
 -18   2  -2  122.49    7.90
  17  -3  -2   -0.40    1.30
 -17   3   2   -2.10    1.30
  17   3  -2   -4.30    1.70
 -17   3   2    0.20    1.30
 -15  -3   2    5.10    2.30
 -15  -3   2    4.80    1.20
 -15   3   2    4.90    1.60
 -15   3   2    4.80    2.00
  15   3  -2    8.90    2.60
 -15   3   2    7.10    2.00
 -15   3   2    8.80    1.90
 -13  -3   2    3.90    2.70
 -13  -3   2    0.50    1.20
  13   3  -2    3.20    2.70
 -13   3   2    2.10    2.30
 -13   3   2    3.20    2.30
 -13   3   2    1.70    1.90
 -13   3   2    4.00    1.80
 -11  -3   2   72.79    6.30
 -11  -3   2   73.19    4.80
 -11   3   2   72.79    6.00
 -11   3   2   78.39    5.70
  11   3  -2   64.89    6.10
 -11   3   2   73.29    5.20
 -11   3   2   70.99    5.60
   9  -3  -2  482.75   27.90
  -9  -3   2  507.05   27.60
  -9   3   2  480.55   28.00
  -9   3   2  501.75   27.90
  -9   3   2  522.55   28.20
  -9   3   2  502.55   27.80
   7  -3  -2    5.90    2.00
  -7  -3   2    6.50    1.50
  -7   3   2    2.80    1.90
  -7   3   2    6.40    2.30
  -7   3   2    4.60    2.30
  -7   3   2    5.70    1.90
   5  -3  -2  281.87   20.30
  -5  -3   2  324.67   18.20
   5  -3  -2  317.07   18.40
   5  -3  -2  365.26   19.30
  -5  -3   2  283.67   20.10
  -5   3   2  341.67   18.70
  -5   3   2  336.27   18.40
  -5   3   2  343.17   18.70
  -3  -3   2  336.97   22.70
  -3  -3   2  387.26   20.60
   3  -3  -2  350.46   22.80
  -3   3   2  380.66   20.90
  -1  -3   2   37.20    3.50
   1  -3  -2   42.80    6.60
  -1  -3   2   36.50    5.80
  -1   3   2   35.70    3.90
  -1  -3  -2  310.67   20.60
   1  -3   2  316.87   20.30
   1  -3   2  330.87   18.30
   1   3   2  323.87   18.40
  -1   3  -2  327.47   18.40
   3  -3   2   52.39    4.50
  -3  -3  -2   56.19    4.90
  -3  -3  -2   51.19    6.50
   3   3   2   61.69    4.50
  -3   3  -2   51.09    4.50
  -5  -3  -2  204.68   11.60
   5  -3   2  196.78   11.50
  -5   3  -2  186.38   11.50
  -5   3  -2  184.98   11.90
   5   3   2  196.18   11.50
  -7  -3  -2   24.40    2.60
   7  -3   2   23.50    2.50
   7   3   2   16.90    3.40
  -7   3  -2   23.10    2.60
  -7   3  -2   20.20    3.10
   9  -3   2   14.60    2.70
   9  -3   2   14.20    2.10
  -9  -3  -2   11.20    2.00
  -9   3  -2    8.20    2.00
   9   3   2   14.20    3.10
  -9   3  -2    6.80    2.60
  11  -3   2  557.54   31.20
 -11  -3  -2  564.04   31.10
  11  -3   2  568.94   31.40
 -11   3  -2  577.24   31.30
 -11   3  -2  583.74   31.60
  11   3   2  543.25   31.70
 -13  -3  -2   79.39    5.00
  13  -3   2   81.09    5.10
  13  -3   2   79.99    5.20
  13   3   2   79.99    5.80
 -13   3  -2   81.69    5.40
 -13   3  -2   81.29    5.60
  -6  -4   2    0.90    0.90
  -4  -4   2    4.70    1.10
  -2  -4   2    0.70    1.10
   0  -4   2  417.56   23.00
   2  -4   2  441.76   24.20
   4  -4   2   23.10    2.10
 -24   0   3    0.10    1.40
 -24   0   3   -0.20    1.60
 -22   0   3   -0.30    1.80
 -22   0   3   -1.20    2.10
 -22   0   3    0.40    1.60
 -20   0   3    1.00    1.80
 -20   0   3   -0.40    2.00
 -20   0   3    2.80    2.60
 -18   0   3   -0.40    1.80
 -18   0   3   -3.30    2.30
 -18   0   3   -0.80    2.30
 -18   0   3    1.70    1.70
 -16   0   3    1.90    1.60
 -16   0   3    0.50    2.50
 -14   0   3   -0.30    2.10
 -12   0   3   -0.30    1.70
 -12   0   3   -0.60    1.70
 -10   0   3   -1.00    1.40
 -10   0   3   -1.40    1.60
  -8   0   3   -2.10    1.20
  -8   0   3   -0.50    1.40
  -6   0   3   -1.50    1.20
  -4   0   3   -7.80    1.00
   2   0  -3   -2.80    1.10
  -2   0   3   -2.30    0.90
   0   0  -3   -1.00    1.20
  -2   0  -3   -1.60    1.30
   4   0   3    1.00    1.00
  -4   0  -3    0.50    1.50
  -4   0  -3    2.80    1.60
   6   0   3   -1.20    1.10
  -6   0  -3   -0.10    1.50
  -6   0  -3   -1.90    1.70
  -8   0  -3    0.50    1.70
  -8   0  -3    0.20    1.80
   8   0   3    0.30    1.30
 -10   0  -3   -0.80    1.80
 -10   0  -3    0.70    2.10
 -12   0  -3   -2.90    2.30
  12   0   3    0.50    1.50
 -12   0  -3   -0.40    1.60
  14   0   3   -1.10    1.60
 -14   0  -3    1.20    1.60
 -14   0  -3    1.90    2.40
 -14   0  -3    3.20    2.00
 -14   0  -3    0.80    1.70
 -16   0  -3    3.40    1.90
 -16   0  -3    1.60    2.30
 -16   0  -3   -1.60    1.60
  16   0   3    0.60    1.90
  18   0   3   -0.20    1.80
 -18   0  -3   -3.30    1.80
 -18   0  -3   -1.70    1.80
  20   0   3   -0.90    1.40
 -20   0  -3    0.90    1.50
 -23  -1   3  165.58    9.00
 -23  -1   3  158.28    9.10
 -23  -1   3  130.29    9.10
 -23   1   3  166.68    9.30
  23   1  -3  153.08    9.20
 -23   1   3  168.58    9.20
 -23   1   3  150.88    9.20
 -21  -1   3  513.05   31.50
 -21  -1   3  618.94   31.50
 -21  -1   3  587.14   31.30
 -21   1   3  563.04   31.50
 -21   1   3  537.25   31.60
 -21   1   3  579.74   31.40
 -19  -1   3  336.77   19.80
 -19  -1   3  358.86   20.10
 -19  -1   3  340.17   20.20
 -19   1   3  361.46   20.10
 -19   1   3  376.56   20.40
 -19   1   3  348.17   20.20
 -17  -1   3  123.19    9.20
 -17  -1   3  126.59    7.90
 -17  -1   3  117.89    7.30
 -17  -1   3  121.09    7.90
 -17   1   3  109.99    7.90
 -17   1   3  110.19    7.70
 -17   1   3  122.39    8.30
 -15  -1   3  442.96   25.50
 -15  -1   3  391.16   23.20
 -15  -1   3  416.06   24.40
 -13  -1   3  871.51   49.90
 -13  -1   3  919.51   50.19
 -11  -1   3   59.59    5.10
  11  -1  -3   59.49    4.90
 -11  -1   3   67.49    5.40
 -11   1   3   62.19    5.10
  -9  -1   3  167.18    9.80
  -9  -1   3  146.89    9.70
  -9  -1   3  166.28    9.90
  -9   1   3  149.79    9.60
  -7  -1   3 3355.46  178.48
   7  -1  -3 3082.89  178.78
  -7  -1   3 3451.55  178.68
  -7  -1   3 3206.38  178.58
  -7   1   3 3332.37  178.48
  -7   1   3 3289.37  178.98
  -5  -1   3   62.99    4.70
  -5  -1   3   59.49    4.40
  -5  -1   3   59.09    4.50
   5  -1  -3   62.99    5.20
  -5   1   3   64.89    4.70
  -5   1   3   64.99    5.40
  -3  -1   3 1001.50   55.19
   3  -1  -3 1001.10   54.99
  -3  -1   3 1053.79   55.39
  -3  -1   3 1001.20   55.09
  -3   1   3 1021.20   55.19
   3   1  -3  960.10   55.19
  -3   1   3 1012.30   55.69
  -1  -1   3 3869.31  216.08
   1  -1  -3 4015.60  216.78
   1  -1  -3 4052.49  216.18
  -1  -1   3 4020.80  216.38
  -1  -1   3 4128.09  216.18
  -1  -1   3 4092.39  216.58
   1   1  -3 3817.72  216.28
  -1   1   3 3899.81  216.78
  -1   1   3 4005.00  216.28
  -1  -1  -3    3.10    2.20
   1  -1   3    0.70    1.40
   1  -1   3    1.80    1.20
  -1  -1  -3   -1.00    1.40
   1  -1   3   -0.80    1.10
  -1   1  -3    0.30    1.20
  -1   1  -3    0.40    1.60
   1   1   3    2.90    1.80
   1   1   3    1.20    1.80
   3  -1   3  380.26   20.50
   3  -1   3  341.17   20.70
  -3  -1  -3  385.46   21.20
  -3  -1  -3  365.76   20.70
   3   1   3  332.77   21.00
   3   1   3  386.96   20.70
  -3   1  -3  376.16   20.70
   5  -1   3  193.48   11.00
  -5  -1  -3  191.78   11.40
  -5   1  -3  182.18   11.30
  -7  -1  -3 4031.10  222.18
   7  -1   3 4147.39  221.88
  -7   1  -3 4090.99  222.18
   9  -1   3  255.17   14.80
  -9  -1  -3  252.87   15.30
  -9   1  -3  252.87   15.20
 -11  -1  -3   29.20    4.20
  11  -1   3   33.10    3.70
  11  -1   3   36.90    3.60
 -11   1  -3   34.00    4.50
  13  -1   3  617.04   33.90
 -13  -1  -3  600.44   33.80
 -13   1  -3  617.74   34.80
 -13   1  -3  573.34   34.20
 -13   1  -3  641.34   33.80
 -15  -1  -3  586.54   30.90
 -15  -1  -3  457.85   30.90
  15  -1   3  566.44   30.90
  15   1   3  571.94   31.10
 -15   1  -3  561.64   31.20
 -15   1  -3  590.24   30.90
 -17  -1  -3  136.79    9.50
 -17  -1  -3  168.48    9.60
  17  -1   3  166.08    9.50
 -17   1  -3  171.28    9.50
  17   1   3  161.28    9.70
 -17   1  -3  143.79    9.80
 -17   1  -3  158.28    9.90
  19  -1   3  229.58   13.80
  19  -1   3  252.47   13.70
 -19  -1  -3  269.37   13.80
  19   1   3  207.88   14.20
 -19   1  -3  255.97   13.70
 -19   1  -3  254.77   14.30
 -19   1  -3  214.38   13.80
 -20  -2   3   38.80    4.00
 -20  -2   3   43.70    3.20
 -20   2   3   44.50    4.00
 -20   2   3   36.60    3.30
  20   2  -3   37.70    3.90
 -20   2   3   44.70    3.80
 -18  -2   3   20.70    3.30
 -18  -2   3   26.50    2.70
  18   2  -3   19.90    3.30
 -18   2   3   28.10    3.10
 -18   2   3   28.00    3.10
 -18   2   3   24.50    2.80
 -16  -2   3   38.60    3.70
 -16  -2   3   39.20    5.00
 -16  -2   3   46.10    3.40
 -16   2   3   42.20    3.90
  16   2  -3   31.70    4.20
 -16   2   3   39.20    4.70
 -16   2   3   40.90    4.50
  14  -2  -3  293.87   18.50
 -14  -2   3  316.77   18.70
 -14  -2   3  322.17   17.50
 -14   2   3  308.97   18.20
 -14   2   3  299.47   18.00
 -14   2   3  317.67   18.10
 -14   2   3  317.07   17.80
  12  -2  -3  123.99    8.10
 -12   2   3  118.59    8.30
 -12   2   3  104.59    7.80
 -12   2   3  102.39    7.60
 -12   2   3  111.19    7.30
 -10  -2   3   69.19    6.00
  10  -2  -3   77.09    6.00
 -10   2   3   71.89    6.10
  -8  -2   3   73.69    6.40
   8  -2  -3   79.89    6.10
  -8   2   3   76.19    6.20
   6  -2  -3  221.58   13.40
  -6  -2   3  229.28   14.00
   6  -2  -3  220.68   14.40
  -6   2   3  209.28   13.40
   4  -2  -3  104.09    8.20
  -4  -2   3   94.59    7.40
  -4   2   3   96.19    7.00
  -2  -2   3  835.92   44.50
   2  -2  -3  772.32   44.90
  -2   2   3  757.52   43.90
   0  -2  -3   88.49    7.40
   0  -2   3   87.59    6.60
   0  -2   3   76.39    5.50
   0   2   3   75.89    6.20
   2  -2   3   20.20    2.70
  -2  -2  -3   26.10    4.40
   2  -2   3   31.30    4.10
  -4  -2  -3    3.20    3.20
   4  -2   3   -3.30    1.80
   6  -2   3  801.32   44.50
   8  -2   3    3.70    2.40
  -8   2  -3    5.00    2.20
  10  -2   3    0.80    2.20
  10  -2   3    3.50    2.20
 -10  -2  -3    1.70    1.90
 -10   2  -3    2.70    2.50
 -10   2  -3    2.80    1.90
  10   2   3    9.90    3.10
 -10   2  -3    2.50    2.40
  12  -2   3   71.29    5.80
 -12  -2  -3   72.99    5.30
 -12   2  -3   73.89    5.50
 -12   2  -3   76.69    6.00
  12   2   3   78.99    6.60
 -12   2  -3   72.89    6.20
  14  -2   3   -1.30    1.90
 -14  -2  -3    3.20    1.70
 -14   2  -3    2.30    2.40
 -14   2  -3    2.40    1.90
  14   2   3    1.30    2.60
 -14   2  -3    1.10    2.40
 -16  -2  -3   56.19    4.00
  16  -2   3   55.29    4.20
 -16   2  -3   54.69    4.20
  16   2   3   48.70    4.60
 -16   2  -3   52.99    4.40
 -16   2  -3   51.49    4.40
 -18  -2  -3   45.00    3.20
  18  -2   3   40.10    3.10
 -18   2  -3   41.20    3.30
 -18   2  -3   41.80    3.20
 -17   3   3  123.69    7.60
  15  -3  -3   10.10    1.80
 -15  -3   3    6.30    2.30
 -15  -3   3    9.60    1.40
 -15   3   3    9.00    2.00
  15   3  -3    9.90    2.60
 -15   3   3   10.10    2.10
 -15   3   3    4.10    1.70
 -15   3   3    6.10    1.60
 -13  -3   3   59.89    3.90
  13  -3  -3   53.39    4.50
 -13  -3   3   50.19    5.20
  13   3  -3   48.70    5.10
 -13   3   3   55.99    4.20
 -13   3   3   61.49    5.00
 -13   3   3   54.79    4.40
 -13   3   3   52.49    4.50
 -11  -3   3   70.99    4.60
  11  -3  -3   64.49    5.40
 -11  -3   3   60.19    5.90
 -11   3   3   68.59    5.30
 -11   3   3   62.09    4.90
 -11   3   3   76.39    5.70
 -11   3   3   67.79    5.10
  11   3  -3   66.69    5.90
  -9  -3   3  125.19    7.50
  -9   3   3  124.09    8.30
  -9   3   3  120.29    7.80
  -9   3   3  129.69    8.20
  -7  -3   3    1.30    1.40
  -7   3   3    1.20    1.70
  -7   3   3    3.10    2.00
  -7   3   3    1.70    2.10
  -5  -3   3  368.16   18.60
   5  -3  -3  257.67   21.90
  -5  -3   3  268.97   20.60
  -5   3   3  361.86   19.10
  -5   3   3  339.37   19.00
  -5   3   3  345.77   18.70
  -3  -3   3  672.93   41.80
  -3  -3   3  769.02   39.80
   3  -3  -3  690.73   42.30
  -3   3   3  749.23   40.10
  -1  -3   3   30.20    5.20
   1  -3  -3   39.30    6.60
  -1  -3   3   37.70    3.30
  -1   3   3   32.40    3.80
  -1  -3  -3   -2.90    2.10
   1  -3   3    0.80    3.50
   1  -3   3    1.50    1.50
  -1  -3  -3   -2.60    4.20
  -1   3  -3   -2.30    1.70
   1   3   3    0.80    1.70
   3  -3   3   11.00    2.00
   3  -3   3    8.50    2.20
  -3  -3  -3   14.10    2.50
   3   3   3    9.30    2.00
  -3   3  -3   11.30    2.10
  -5  -3  -3   49.90    4.50
   5  -3   3   50.59    4.30
   5  -3   3   52.09    4.10
   5   3   3   55.09    4.30
  -5   3  -3   48.70    4.30
  -5   3  -3   47.60    5.00
   7  -3   3   -1.00    1.50
   7  -3   3   -0.20    1.70
  -7  -3  -3    2.30    1.70
  -7   3  -3    1.70    2.40
  -7   3  -3   -0.40    1.70
   7   3   3   -1.00    2.20
  -9  -3  -3  570.74   31.10
   9  -3   3  568.04   31.30
   9  -3   3  530.25   31.00
   9   3   3  565.74   31.60
  -9   3  -3  556.54   31.10
  -9   3  -3  588.84   31.60
 -11  -3  -3  266.27   14.50
  11  -3   3  247.28   14.60
  11  -3   3  253.57   14.40
 -11   3  -3  252.27   14.90
 -11   3  -3  253.57   14.50
  11   3   3  262.27   15.00
 -13  -3  -3    3.50    1.10
  13  -3   3    2.70    1.20
 -13   3  -3    0.30    1.50
  13   3   3    0.80    1.80
  -4  -4   3   50.69    3.30
  -2  -4   3   51.09    3.40
   0  -4   3  119.49    6.90
 -24   0   4  233.88   13.80
 -24   0   4  253.87   13.70
 -22   0   4    1.90    2.10
 -22   0   4    3.50    1.70
 -22   0   4   -0.10    1.70
 -20   0   4   48.10    4.30
 -20   0   4   45.90    4.70
 -20   0   4   46.00    4.10
 -18   0   4  192.78   11.20
 -18   0   4  188.08   10.90
 -18   0   4  188.58   12.30
 -18   0   4  160.28   10.60
 -16   0   4 1451.25   83.09
 -16   0   4 1600.04   84.19
 -14   0   4   50.69    5.10
 -12   0   4 1460.35   80.09
 -12   0   4 1463.85   80.29
 -10   0   4  611.24   35.70
 -10   0   4  670.73   35.70
  -8   0   4 1746.03   94.39
  -8   0   4 1698.43   94.49
  -8   0   4 1750.72   94.69
  -6   0   4   32.80    2.80
  -6   0   4   36.10    3.40
  -6   0   4   32.90    2.90
  -6   0   4   33.80    3.00
  -4   0   4  284.57   16.60
  -4   0   4  291.47   16.50
   4   0  -4  290.67   16.60
  -4   0   4  282.97   16.40
   4   0  -4  296.67   16.50
  -4   0   4  304.37   16.90
  -2   0   4 1762.12   93.59
  -2   0   4 1786.72   93.89
  -2   0   4 1713.63   93.59
   2   0  -4 1735.53   93.49
  -2   0   4 1688.03   93.39
   2   0  -4 1628.84   93.49
   0   0   4   90.89    5.70
   0   0  -4   99.39    6.00
   0   0   4   96.49    6.20
   0   0  -4   88.59    6.00
   2   0   4 7628.14  421.36
  -2   0  -4 7440.36  421.26
   2   0   4 7720.63  421.06
  -2   0  -4 8327.57  421.36
  -4   0  -4 2375.06  131.69
  -4   0  -4 2484.65  131.79
   4   0   4 2403.26  131.49
  -6   0  -4  168.48   10.40
   6   0   4  169.18   10.10
  -6   0  -4  172.78   10.50
  -8   0  -4  162.38   10.80
   8   0   4  178.28   10.60
  -8   0  -4  193.38   11.10
 -10   0  -4  142.39    9.10
  10   0   4  128.29    8.30
 -10   0  -4  126.89    8.40
  12   0   4  244.28   14.20
 -12   0  -4  251.47   15.20
 -12   0  -4  235.58   14.10
 -12   0  -4  248.58   14.30
 -14   0  -4    3.70    1.90
 -14   0  -4    3.50    2.50
 -14   0  -4   -0.20    1.70
  14   0   4   -0.70    1.90
 -16   0  -4 1404.66   80.69
 -16   0  -4 1496.25   80.59
  16   0   4 1535.25   80.69
  18   0   4  239.88   13.40
 -18   0  -4  241.98   13.40
 -18   0  -4  216.98   13.20
 -23  -1   4    1.60    1.30
 -23  -1   4    4.50    1.60
 -23  -1   4   -0.90    1.40
 -23   1   4    2.10    1.40
 -23   1   4    3.50    1.50
 -23   1   4    3.70    1.50
 -21  -1   4   86.69    5.50
 -21  -1   4   78.39    5.80
 -21  -1   4   89.89    5.80
 -21   1   4   84.29    6.00
 -21   1   4   79.69    5.70
 -21   1   4   76.99    5.80
 -19  -1   4  356.46   20.80
 -19  -1   4  393.96   20.80
 -19  -1   4  359.66   20.40
 -19   1   4  342.87   20.80
 -19   1   4  384.96   21.00
 -19   1   4  351.96   20.60
 -17  -1   4   48.50    4.40
 -17  -1   4   43.00    5.40
 -17  -1   4   47.50    5.80
 -17  -1   4   50.79    4.40
 -17  -1   4   48.60    3.70
 -17   1   4   46.00    4.20
 -17   1   4   40.10    4.60
 -15  -1   4  170.18   11.50
 -15  -1   4  160.18   10.00
 -13  -1   4  157.18   11.10
 -13  -1   4  178.68   11.40
 -13  -1   4  163.48   10.80
 -11  -1   4    0.60    1.90
 -11  -1   4   -0.90    2.10
  11  -1  -4    1.20    2.20
 -11   1   4   -0.20    2.40
  -9  -1   4  535.55   29.00
  -9  -1   4  509.45   28.80
  -9  -1   4  490.95   28.90
  -9   1   4  506.65   28.70
  -7  -1   4  428.26   24.50
  -7  -1   4  429.56   24.30
  -7  -1   4  414.76   24.40
  -7   1   4  448.26   25.10
  -7   1   4  431.36   24.30
  -5  -1   4  687.53   36.50
  -5  -1   4  632.54   36.30
  -5  -1   4  636.24   36.20
   5   1  -4  641.14   36.30
  -5   1   4  644.84   36.30
  -5   1   4  672.73   37.10
  -3  -1   4  198.28   12.00
   3  -1  -4  201.48   11.80
  -3  -1   4  202.98   11.50
  -3  -1   4  205.78   11.80
  -3  -1   4  206.58   12.10
  -3   1   4  199.28   12.70
   3   1  -4  192.88   12.00
  -3   1   4  206.08   12.00
  -1  -1   4   50.39    3.70
  -1  -1   4   49.50    3.50
   1  -1  -4   45.90    4.00
  -1  -1   4   49.50    4.00
   1   1  -4   45.00    4.30
   1   1  -4   48.10    3.70
  -1   1   4   42.60    4.60
  -1   1   4   49.10    4.20
   1  -1   4 2233.78  121.29
  -1  -1  -4 2353.26  122.19
   1  -1   4 2175.28  121.69
  -1  -1  -4 2294.17  121.59
  -1   1  -4 2206.08  121.69
   1   1   4 2334.47  121.69
   1   1   4 2182.38  122.19
  -1   1  -4 2090.89  121.39
  -3  -1  -4    1.20    2.60
   3  -1   4   -0.10    1.20
  -3  -1  -4    1.60    2.00
  -3   1  -4    2.00    2.00
   3   1   4    1.20    2.00
   3   1   4   -1.00    1.80
   5  -1   4  144.89    8.40
  -5  -1  -4  123.49    8.80
  -5   1  -4  146.29    9.10
  -7  -1  -4    0.00    2.10
   7  -1   4    2.60    1.40
  -7   1  -4   -2.80    2.20
   9  -1   4   26.20    2.90
  -9  -1  -4   27.40    4.00
   9  -1   4   27.50    3.30
  -9   1  -4   25.40    3.70
  11  -1   4  399.76   22.90
  11  -1   4  400.76   23.20
 -11   1  -4  396.86   23.30
 -11   1  -4  413.46   22.90
 -11   1  -4  426.16   23.90
  13  -1   4   16.70    2.40
  13  -1   4   17.40    3.10
 -13  -1  -4   16.00    2.30
 -13   1  -4    9.50    2.20
 -13   1  -4   14.50    3.10
 -13   1  -4   15.90    3.20
 -15  -1  -4  159.38    9.40
  15  -1   4  151.18    9.60
  15  -1   4  158.68    9.50
 -15   1  -4  161.48    9.40
 -15   1  -4  138.19    9.60
 -17  -1  -4   51.79    4.00
  17  -1   4   44.90    3.80
  17  -1   4   54.69    4.10
 -17   1  -4   40.40    3.90
 -17   1  -4   49.70    3.90
 -19  -1  -4    8.70    1.50
 -19   1  -4    7.00    1.50
 -20  -2   4    6.20    1.30
 -20  -2   4    2.10    2.10
 -20  -2   4    6.30    1.50
  20   2  -4    5.80    2.40
 -20   2   4    5.70    2.10
 -20   2   4    7.30    1.90
 -20   2   4    5.20    1.60
 -18  -2   4   14.80    1.70
 -18  -2   4    8.30    2.30
 -18  -2   4   12.50    2.20
 -18  -2   4   14.30    2.80
 -18   2   4    9.40    2.00
 -18   2   4   14.70    2.50
 -18   2   4   12.10    2.20
  18   2  -4   14.30    3.00
 -16  -2   4   58.89    5.70
 -16  -2   4   48.90    5.10
 -16  -2   4   63.89    4.20
 -16  -2   4   57.49    4.60
 -16   2   4   63.69    4.70
 -16   2   4   63.39    5.00
 -16   2   4   59.99    5.40
 -14  -2   4   79.59    5.30
  14  -2  -4   60.99    7.50
 -14  -2   4   72.79    6.50
 -14  -2   4   77.99    5.10
 -14   2   4   74.89    6.10
 -14   2   4   64.09    7.20
 -14   2   4   77.19    5.50
 -14   2   4   81.69    5.90
 -12  -2   4  833.52   44.60
 -12  -2   4  837.82   45.40
  12  -2  -4  846.32   45.40
 -12  -2   4  781.92   44.40
 -12   2   4  832.12   45.50
 -12   2   4  791.12   44.80
 -12   2   4  793.42   44.60
 -12   2   4  785.12   44.90
  10  -2  -4  110.79    7.40
 -10  -2   4   96.09    7.40
 -10  -2   4  102.69    7.80
 -10   2   4   69.79    7.90
 -10   2   4  101.69    7.50
   8  -2  -4   22.70    5.20
  -8  -2   4   31.30    4.30
   8  -2  -4   32.90    3.90
  -8   2   4   28.10    3.90
   6  -2  -4  290.77   18.60
  -6  -2   4  289.67   17.90
  -6   2   4  296.67   17.50
   4  -2  -4   61.59    6.90
  -4  -2   4   67.79    5.90
  -4   2   4   60.59    5.80
  -2  -2   4   10.40    2.90
   2  -2  -4    9.30    3.80
  -2   2   4   15.00    3.30
   0  -2   4   37.90    4.40
   0  -2  -4   47.80    6.30
   0  -2   4   42.90    4.90
   0   2   4   37.10    4.70
   2  -2   4 1043.20   56.69
  -2  -2  -4 1018.10   58.09
   2  -2   4 1026.50   57.39
   4  -2   4  208.38   12.10
  -4  -2  -4  188.28   13.40
   6  -2   4   94.09    6.60
  -6   2  -4   78.19    6.70
   8  -2   4  236.98   14.40
  -8  -2  -4  238.68   14.00
   8  -2   4  252.87   14.20
  -8   2  -4  234.08   14.30
   8   2   4  246.68   14.70
  -8   2  -4  225.48   14.50
  10  -2   4   66.19    5.30
 -10  -2  -4   58.69    5.00
 -10   2  -4   68.09    6.00
 -10   2  -4   72.89    5.30
  10   2   4   65.89    6.10
 -10   2  -4   60.79    5.50
  12  -2   4   27.30    3.20
 -12  -2  -4   18.60    2.40
 -12   2  -4   16.60    2.60
 -12   2  -4   23.80    3.30
  12   2   4   24.50    3.70
 -12   2  -4   24.90    3.50
 -14  -2  -4  128.99    7.90
  14  -2   4  132.89    8.10
 -14   2  -4  129.39    8.30
  14   2   4  132.69    8.40
 -14   2  -4  127.89    8.00
 -14   2  -4  122.39    8.40
  16  -2   4  310.27   17.90
 -16  -2  -4  362.86   17.90
 -16   2  -4  307.87   18.00
 -16   2  -4  303.97   17.80
  16   2   4  322.87   18.10
 -16   2  -4  306.97   18.00
 -15  -3   4  103.29    7.70
 -15  -3   4  124.59    6.90
 -15   3   4  112.59    7.20
  15   3  -4  113.49    7.70
 -15   3   4  124.89    7.00
 -15   3   4  123.79    7.40
 -13  -3   4    9.90    1.50
 -13  -3   4    6.60    2.50
  13   3  -4   10.70    3.00
 -13   3   4   11.70    1.90
 -13   3   4   10.70    2.20
 -13   3   4    9.30    2.30
 -11  -3   4   17.20    4.50
 -11  -3   4   21.00    2.00
 -11   3   4   20.20    2.80
  11   3  -4   11.70    5.00
 -11   3   4   19.90    2.40
 -11   3   4   22.40    3.10
  -9  -3   4   61.79    4.40
  -9   3   4   63.29    4.70
  -9   3   4   60.29    5.20
  -9   3   4   64.39    5.20
  -7  -3   4  434.86   23.30
  -7   3   4  396.66   23.60
  -7   3   4  423.76   23.70
  -7   3   4  419.46   23.40
  -5  -3   4  263.87   15.20
  -5  -3   4  270.07   15.30
  -5   3   4  267.27   15.30
  -5   3   4  279.97   15.70
  -5   3   4  261.97   15.50
  -3  -3   4   13.80    1.80
  -3  -3   4   12.10    2.00
  -3   3   4   13.30    2.30
  -3   3   4   15.10    2.00
  -3   3   4   13.00    4.10
  -1  -3   4  140.59    8.60
  -1  -3   4  147.79    8.80
  -1   3   4  146.19    9.00
   1  -3   4  528.45   31.40
   1  -3   4  612.34   31.70
  -1  -3  -4  580.84   31.80
   1   3   4  563.64   31.60
  -3  -3  -4   10.00    2.20
   3  -3   4   11.90    1.80
   3  -3   4   10.20    2.20
  -3   3  -4   12.70    2.10
   3   3   4   12.90    2.00
   5  -3   4   66.19    4.70
   5  -3   4   79.09    5.10
  -5  -3  -4   74.69    5.20
   5   3   4   73.59    5.00
  -5   3  -4   53.69    5.60
  -5   3  -4   65.29    5.00
   7  -3   4   37.90    3.60
  -7  -3  -4   44.50    3.70
   7   3   4   42.40    4.10
  -7   3  -4   37.50    4.40
   9  -3   4   89.79    5.80
  -9  -3  -4   93.59    5.70
   9   3   4   82.49    6.20
  -9   3  -4   89.19    6.30
  11  -3   4  118.79    7.40
 -11  -3  -4  134.69    7.40
  11   3   4  125.99    7.80
 -11   3  -4  119.59    7.80
 -24   0   5    1.50    1.20
 -24   0   5    2.00    1.50
 -22   0   5   -0.90    1.40
 -22   0   5    0.20    1.90
 -22   0   5    0.90    1.50
 -20   0   5   -0.40    1.60
 -20   0   5    0.70    2.20
 -20   0   5   -2.10    1.80
 -18   0   5   -4.50    2.10
 -18   0   5    1.80    1.50
 -18   0   5    0.10    2.00
 -18   0   5   -0.60    2.60
 -16   0   5   -2.10    1.60
 -16   0   5   -1.80    2.60
 -14   0   5   -2.00    2.40
 -14   0   5    0.30    1.40
 -12   0   5    0.20    2.10
 -12   0   5    2.80    1.90
 -10   0   5    0.80    1.70
 -10   0   5   -1.30    1.80
 -10   0   5   -0.60    1.70
  -8   0   5    0.20    1.40
  -8   0   5   -2.00    1.70
  -8   0   5   -0.50    1.50
  -6   0   5    1.50    2.00
   6   0  -5    0.30    1.50
   6   0  -5    1.00    1.40
  -6   0   5   -1.50    1.30
  -6   0   5    0.50    1.40
  -6   0   5   -0.70    1.30
  -4   0   5    0.70    1.20
  -4   0   5    1.30    1.40
  -4   0   5    0.60    1.60
  -4   0   5    1.00    1.40
   4   0  -5    1.50    1.50
   4   0  -5    1.50    1.30
   2   0  -5   -2.10    1.60
   2   0  -5   -2.00    1.40
  -2   0   5   -3.10    1.20
  -2   0   5   -2.60    1.50
  -2   0   5   -2.70    1.50
   0   0  -5    0.80    1.80
   0   0  -5   -0.60    1.40
   0   0   5    0.10    1.30
   0   0   5   -0.80    1.50
  -2   0  -5   -0.10    1.70
  -2   0  -5   -0.20    2.10
   2   0   5    0.80    1.20
   2   0   5   -0.70    1.50
  -4   0  -5    0.30    2.00
   4   0   5   -0.20    1.30
  -4   0  -5    0.10    1.80
  -6   0  -5    2.60    2.00
   6   0   5   -0.20    1.40
  -6   0  -5   -0.90    1.90
   8   0   5   -0.10    1.60
  -8   0  -5   -3.90    1.60
  -8   0  -5   -3.10    2.00
  10   0   5   -1.80    1.50
 -10   0  -5   -0.60    2.30
 -12   0  -5    1.30    2.40
 -12   0  -5    1.10    1.80
  12   0   5   -2.60    1.60
 -14   0  -5    0.60    1.80
  14   0   5   -0.70    1.90
  16   0   5    2.00    1.70
 -16   0  -5    0.90    1.70
 -18   0  -5    0.20    1.40
 -23  -1   5   21.10    2.50
 -23  -1   5   25.50    2.50
 -23   1   5   26.20    2.40
 -21  -1   5  326.77   18.30
 -21  -1   5  333.57   18.10
 -21  -1   5  330.97   18.30
 -21   1   5  302.57   18.10
 -19  -1   5   62.49    4.80
 -19  -1   5   65.79    5.10
 -19  -1   5   59.09    4.40
 -19   1   5   59.39    4.80
 -17  -1   5 1175.78   62.89
 -17  -1   5 1130.29   63.39
 -17  -1   5 1130.09   64.09
 -17  -1   5 1105.29   62.59
 -17  -1   5 1193.28   62.99
 -15  -1   5   15.30    3.30
 -15  -1   5   13.50    2.20
 -15  -1   5   13.50    2.40
 -13  -1   5  620.34   35.40
 -13  -1   5  666.23   36.50
 -13  -1   5  630.34   36.10
 -11  -1   5    8.60    2.60
 -11  -1   5    7.00    2.50
 -11   1   5   10.50    3.00
  -9  -1   5  166.48   10.00
  -9  -1   5  161.68    9.80
  -9  -1   5  140.99    9.90
  -9   1   5  155.88    9.90
  -9   1   5  140.29   10.60
  -7  -1   5  902.11   50.59
  -7  -1   5  911.41   50.69
  -7  -1   5  922.71   50.89
  -7   1   5  916.11   51.59
  -7   1   5  892.41   50.49
   7   1  -5  935.01   50.69
  -5  -1   5  296.97   17.40
   5  -1  -5  294.27   17.90
  -5  -1   5  319.47   17.90
  -5  -1   5  300.77   17.70
   5   1  -5  308.97   17.60
  -5   1   5  298.97   18.60
  -5   1   5  292.27   17.50
  -3  -1   5 3985.90  219.28
   3  -1  -5 3946.51  219.28
  -3  -1   5 4121.29  218.98
  -3  -1   5 4040.90  219.68
   3   1  -5 4127.09  219.28
  -3   1   5 4070.99  219.38
  -3   1   5 3738.43  220.18
   3   1  -5 4269.07  219.58
  -1  -1   5  148.89    8.80
  -1  -1   5  139.99    9.00
  -1  -1   5  145.99    9.40
   1  -1  -5  146.69    9.30
  -1   1   5  150.68   10.10
   1   1  -5  149.59    9.60
  -1   1   5  141.99    9.20
   1   1  -5  145.89    9.10
  -1  -1  -5   37.30    4.90
   1  -1   5   35.10    3.20
   1  -1   5   39.00    3.90
  -1  -1  -5   35.90    3.90
  -1   1  -5   36.50    4.40
   1   1   5   37.20    4.50
  -1   1  -5   45.60    4.70
   1   1   5   38.60    4.10
   3  -1   5  420.46   23.20
  -3  -1  -5  392.16   24.20
  -3  -1  -5  413.16   23.60
   3   1   5  401.96   24.20
  -3   1  -5  412.46   23.70
   3   1   5  427.06   23.60
  -5  -1  -5   75.99    6.10
   5  -1   5   81.39    5.60
  -5   1  -5   81.99    6.60
  -7  -1  -5   15.00    3.00
   7  -1   5   15.60    2.40
   7  -1   5   17.70    2.30
  -7   1  -5   28.00    3.60
  -9  -1  -5   28.80    3.20
   9  -1   5   22.00    3.00
   9  -1   5   37.80    3.70
  -9   1  -5   29.00    3.80
   9   1   5   24.80    2.90
  -9   1  -5   40.70    5.10
  -9   1  -5   29.70    3.10
 -11  -1  -5 1034.10   55.19
  11  -1   5 1053.29   55.49
  11  -1   5  955.50   55.99
  11  -1   5  903.91   55.79
 -11  -1  -5  977.30   55.29
 -11   1  -5  964.90   55.39
 -11   1  -5 1164.58   57.29
 -11   1  -5 1001.60   56.39
 -11   1  -5 1072.39   55.89
 -13  -1  -5  102.89    6.70
  13  -1   5  108.39    7.00
 -13  -1  -5  105.79    6.60
 -13   1  -5   98.59    7.40
 -13   1  -5   96.79    6.80
  15  -1   5   27.20    3.30
 -15  -1  -5   25.10    2.90
 -15   1  -5   24.80    2.70
 -17  -1  -5  100.09    6.30
  17  -1   5  110.99    6.40
 -17   1  -5   99.09    6.40
 -20  -2   5    0.90    1.10
 -20  -2   5    1.70    1.80
 -20  -2   5    0.10    1.30
 -20   2   5   -1.20    1.50
  20   2  -5   -0.70    2.10
 -18  -2   5  116.59    6.60
 -18  -2   5  102.09    7.50
 -18  -2   5  104.79    6.80
 -18  -2   5  106.09    6.80
 -18   2   5  111.69    6.80
  18   2  -5  119.79    7.60
 -18   2   5  107.89    7.20
 -16  -2   5   54.69    4.60
 -16  -2   5   63.59    4.40
 -16  -2   5   55.29    4.00
 -16  -2   5   61.09    5.60
 -16   2   5   55.89    4.40
 -16   2   5   51.49    5.10
 -14  -2   5   22.30    2.60
 -14  -2   5   25.50    2.70
 -14  -2   5   19.50    2.60
 -14  -2   5   14.10    3.30
 -14   2   5   24.80    2.80
 -14   2   5   23.10    3.10
 -14   2   5   24.80    3.30
 -12  -2   5 1522.25   83.29
 -12  -2   5 1584.14   83.99
  12  -2  -5 1527.45   83.99
 -12  -2   5 1588.34   84.59
 -12  -2   5 1522.85   82.99
 -12  -2   5 1456.05   83.19
  12   2  -5 1632.84   84.59
 -12   2   5 1523.75   84.09
 -12   2   5 1500.55   83.39
 -12   2   5 1524.35   83.19
 -12   2   5 1419.36   83.39
 -10  -2   5  142.79   10.10
 -10  -2   5  129.59    9.80
  10  -2  -5  139.19    9.40
 -10  -2   5  136.39    9.50
 -10   2   5  136.99    8.50
 -10   2   5  118.19    8.90
 -10   2   5  129.69    8.70
  10   2  -5  151.68    9.90
 -10   2   5  138.39    9.50
  -8  -2   5  218.78   13.80
   8  -2  -5  220.28   14.80
  -8  -2   5  208.18   13.40
  -8   2   5  188.98   13.40
   8   2  -5  209.78   13.40
  -8   2   5  209.98   13.40
  -6  -2   5  451.75   25.50
   6  -2  -5  430.96   26.40
  -6   2   5  419.16   26.70
   6   2  -5  422.66   25.00
  -6   2   5  418.56   25.00
  -4  -2   5  217.88   13.80
   4  -2  -5  217.28   15.10
   4   2  -5  212.78   13.60
  -4   2   5  214.88   13.60
  -4   2   5  199.58   15.10
   2  -2  -5 1045.40   56.89
  -2  -2   5 1021.70   55.79
  -2   2   5 1014.80   55.49
   2   2  -5  947.41   55.39
  -2   2   5  947.31   56.99
   0  -2   5   -0.20    2.40
   0  -2  -5   -0.10    3.90
   0   2   5   -3.40    2.60
   0   2  -5   -2.40    2.50
  -2  -2  -5  978.70   55.99
   2  -2   5  996.50   54.19
  -2   2  -5  966.70   54.89
   4  -2   5  424.16   22.50
   4   2   5  400.76   21.90
  -4   2  -5  395.06   22.70
  -4   2  -5  321.47   24.00
   6  -2   5  110.99    7.70
   6  -2   5  112.09    7.50
  -6  -2  -5  104.69    7.50
   6   2   5   92.99    7.80
   6   2   5  123.19    8.10
   6   2   5  119.99    7.40
  -6   2  -5  106.89    8.20
  -6   2  -5  117.09    7.60
  -8  -2  -5  755.72   40.80
   8  -2   5  747.13   41.00
   8   2   5  713.23   41.30
  -8   2  -5  731.03   41.30
  -8   2  -5  741.53   41.10
  10  -2   5  169.38   10.70
 -10  -2  -5  170.28   10.40
 -10   2  -5  179.78   10.90
  10   2   5  169.98   11.20
 -10   2  -5  183.98   11.30
 -12  -2  -5   48.90    3.90
  12  -2   5   45.20    4.10
 -12   2  -5   50.29    4.50
  12   2   5   46.40    4.70
 -12   2  -5   49.99    4.90
 -12   2  -5   45.30    4.00
  14  -2   5   12.70    2.00
 -14  -2  -5   16.30    1.90
  14   2   5   19.20    2.60
 -14   2  -5   12.20    2.40
 -14   2  -5   14.60    1.90
 -15  -3   5  141.69    7.50
 -15  -3   5  112.89    8.10
 -15   3   5  132.59    7.60
  15   3  -5  125.79    8.20
 -15   3   5  135.09    7.90
 -15   3   5  130.99    7.80
 -13  -3   5    2.60    2.00
 -13  -3   5    1.50    1.10
 -13   3   5    3.60    1.50
 -13   3   5    2.00    2.00
  13   3  -5    3.10    2.50
 -13   3   5    3.30    1.80
 -11  -3   5    5.60    1.50
 -11  -3   5    6.50    1.40
 -11   3   5    6.10    2.20
 -11   3   5    7.50    2.10
 -11   3   5    8.30    1.80
  -9  -3   5  174.28    9.80
  -9  -3   5  147.49    9.80
  -9   3   5  175.18   10.30
  -9   3   5  174.18   10.00
  -9   3   5  178.88   10.40
  -7  -3   5  195.18   11.20
  -7  -3   5  190.48   11.30
  -7   3   5  203.98   11.70
  -7   3   5  197.88   11.70
  -7   3   5  189.58   11.40
  -5  -3   5   10.80    1.80
  -5  -3   5    7.10    1.50
  -5   3   5   11.20    2.20
  -5   3   5    5.80    2.10
  -5   3   5    8.50    1.80
  -3  -3   5   22.40    2.40
  -3  -3   5   16.80    1.90
  -3   3   5   17.10    2.60
  -3   3   5   18.50    2.20
  -3   3   5   23.80    2.60
  -1  -3   5   77.89    5.40
   1  -3  -5   83.79    6.00
  -1   3   5   84.69    5.70
  -1   3   5   75.19    5.20
  -1  -3  -5    4.20    1.90
   1  -3   5    2.90    1.70
   1   3   5    2.20    1.60
  -3  -3  -5   30.90    3.30
   3  -3   5   25.40    2.90
   3   3   5   28.20    3.10
  -5  -3  -5  192.28   10.50
   5  -3   5  185.28   10.50
   5   3   5  169.38   10.80
  -5   3  -5  147.19   12.60
  -7  -3  -5   41.30    3.30
   7  -3   5   37.20    3.10
  -7   3  -5   31.40    3.90
   7   3   5   38.70    3.70
  -9  -3  -5   31.20    2.60
   9  -3   5   26.90    2.40
  -9   3  -5   15.20    2.40
   9   3   5   28.50    3.10
 -22   0   6  459.55   25.20
 -22   0   6  454.55   25.40
 -20   0   6  250.27   12.60
 -20   0   6  164.38   12.30
 -20   0   6  221.98   12.30
 -18   0   6  698.33   38.70
 -18   0   6  701.33   38.70
 -16   0   6  757.42   41.10
 -16   0   6  764.02   42.20
 -16   0   6  713.93   41.20
 -14   0   6  959.20   54.09
 -14   0   6  976.90   53.19
  12   0  -6 1496.05   83.19
 -12   0   6 1498.55   83.19
 -12   0   6 1549.54   83.49
 -10   0   6   66.29    5.70
  10   0  -6   70.29    5.60
 -10   0   6   67.79    5.60
  10   0  -6   70.19    5.20
 -10   0   6   69.89    5.30
   8   0  -6 5193.58  277.87
  -8   0   6 4976.60  277.87
  -8   0   6 5239.08  278.27
  -8   0   6 5220.48  277.87
   8   0  -6 4967.50  277.87
   6   0  -6  597.34   32.10
   6   0  -6  551.24   32.00
  -6   0   6  571.54   32.00
  -6   0   6  567.34   32.00
  -6   0   6  601.14   32.60
  -6   0   6  541.25   31.70
   4   0  -6 1815.62   98.09
  -4   0   6 1790.22   97.89
  -4   0   6 1837.22   98.49
   4   0  -6 1698.83   97.99
  -4   0   6 1829.62   97.99
  -2   0   6  220.78   12.30
  -2   0   6  212.68   12.90
   2   0  -6  214.38   12.50
   2   0  -6  183.58   12.40
   0   0  -6 1031.40   58.99
   0   0  -6 1103.79   59.09
   0   0   6 1079.59   58.79
   0   0   6 1072.09   59.39
   2   0   6   79.99    5.50
  -2   0  -6   85.69    6.30
   2   0   6   79.19    7.10
  -2   0  -6   78.09    6.00
  -4   0  -6  479.35   27.20
   4   0   6  457.65   26.80
  -4   0  -6  493.75   27.30
   6   0   6 3043.20  153.28
  -6   0  -6 2844.42  153.48
   6   0   6 2568.14  152.68
  -8   0  -6   29.50    3.80
   8   0   6   32.20    3.80
   8   0   6   21.00    2.50
   8   0   6   20.30    3.30
  -8   0  -6   28.50    2.80
  -8   0  -6   21.60    3.60
 -10   0  -6   49.50    4.10
 -10   0  -6   41.80    5.20
  10   0   6   44.60    4.10
  12   0   6  858.71   49.00
 -12   0  -6  927.51   49.00
 -14   0  -6   58.09    4.50
  14   0   6   55.59    4.60
  16   0   6   28.60    2.90
 -16   0  -6   25.00    2.70
 -23  -1   6   -2.20    1.20
 -23  -1   6   -1.10    1.00
 -21  -1   6   13.00    2.20
 -21  -1   6   16.00    1.80
 -21  -1   6   13.60    2.20
 -19  -1   6    3.30    2.50
 -19  -1   6    5.70    2.20
 -19  -1   6    3.10    1.50
 -19  -1   6    3.20    1.80
 -17  -1   6  126.39    8.50
 -17  -1   6  151.08    9.10
 -17  -1   6  133.09    9.30
 -17  -1   6  144.89    8.80
 -15  -1   6    3.00    2.00
 -15  -1   6    4.10    1.70
 -15  -1   6    5.50    3.00
 -15  -1   6    6.10    2.20
 -13  -1   6    4.80    2.90
 -13  -1   6    4.40    1.70
  13   1  -6   12.00    3.20
 -11  -1   6    9.60    1.80
 -11  -1   6   10.90    2.60
 -11  -1   6   17.70    3.40
 -11  -1   6   19.80    3.50
  11   1  -6   15.40    3.20
  -9  -1   6   34.10    4.10
  -9  -1   6   29.60    3.90
  -9  -1   6   37.70    4.50
   9   1  -6   32.70    4.20
  -9   1   6   36.00    4.40
  -9   1   6   34.20    5.40
  -7  -1   6   54.29    5.20
  -7  -1   6   51.09    4.70
  -7  -1   6   55.69    5.30
   7   1  -6   58.39    4.60
  -7   1   6   54.89    6.20
  -7   1   6   49.70    5.10
   7   1  -6   53.49    4.90
   5  -1  -6  240.98   15.50
  -5  -1   6  270.57   16.10
  -5  -1   6  264.37   15.70
  -5  -1   6  254.27   15.40
   5   1  -6  270.27   15.70
  -5   1   6  263.17   15.60
  -5   1   6  254.27   16.80
   5   1  -6  266.37   15.40
   3  -1  -6  181.58   11.90
  -3  -1   6  202.28   12.40
  -3  -1   6  196.58   11.50
  -3  -1   6  180.58   11.80
  -3   1   6  193.48   11.90
   3   1  -6  192.68   12.20
  -3   1   6  208.98   13.30
   3   1  -6  194.18   11.80
  -1  -1   6   12.10    2.00
   1  -1  -6   10.40    2.90
  -1  -1   6    9.10    2.60
  -1   1   6    2.50    2.70
  -1   1   6    8.10    2.20
   1   1  -6    9.60    2.70
   1   1  -6    8.20    3.00
   1  -1   6  126.99    7.50
  -1  -1  -6  110.09    9.00
   1  -1   6  110.99    7.90
  -1  -1  -6  100.59    7.90
  -1   1  -6  126.09    8.50
   1   1   6  110.29    8.70
   1   1   6  113.49    7.90
   3  -1   6   96.39    6.30
  -3  -1  -6   73.69    6.70
   3   1   6   93.99    6.90
  -3   1  -6  102.69    7.50
  -5  -1  -6    8.50    2.80
   5  -1   6    9.60    2.20
   5  -1   6    9.80    2.10
  -5   1  -6    8.90    3.20
   7  -1   6    2.40    1.90
  -7  -1  -6    1.60    1.80
   7  -1   6    0.60    1.90
   7   1   6    0.30    1.70
  -7   1  -6    3.90    2.80
  -7   1  -6    3.50    1.70
  -7   1  -6    7.80    3.00
  -9  -1  -6   84.59    5.30
   9  -1   6   69.59    5.70
   9  -1   6   68.49    5.70
  -9   1  -6   62.09    5.30
  -9   1  -6   72.89    6.40
   9   1   6   73.39    6.10
  -9   1  -6   70.89    6.70
   9   1   6   77.39    5.30
 -11  -1  -6    0.90    1.70
  11  -1   6    1.20    2.10
 -11   1  -6   -0.10    1.80
 -11   1  -6    1.00    2.70
 -13  -1  -6   73.19    5.00
  13  -1   6   75.69    5.30
 -13  -1  -6   68.39    4.90
 -13   1  -6   71.39    5.10
 -13   1  -6   68.39    5.70
 -15  -1  -6    0.50    1.30
  15  -1   6    2.20    1.60
 -15   1  -6   -0.10    1.40
 -20  -2   6    9.50    2.00
 -20  -2   6   12.80    1.40
 -20  -2   6    9.90    1.60
  20   2  -6   14.00    2.30
 -18  -2   6   25.20    2.80
 -18  -2   6   25.50    3.20
 -18  -2   6   26.10    2.50
 -18  -2   6   27.00    2.70
 -18   2   6   26.50    3.20
 -16  -2   6   44.30    3.30
 -16  -2   6   38.90    3.80
 -16  -2   6   43.50    4.70
 -16  -2   6   44.40    3.50
 -16   2   6   36.30    4.20
 -16   2   6   36.60    3.50
 -14  -2   6  118.29    7.30
 -14  -2   6  126.29    8.60
 -14  -2   6  124.99    7.50
 -14  -2   6  120.99    7.80
 -14   2   6  122.19    8.00
 -14   2   6  122.59    7.60
 -14   2   6  110.29    7.80
 -12  -2   6  736.13   38.80
 -12  -2   6  683.33   38.00
 -12  -2   6  681.03   37.80
  12   2  -6  734.73   40.80
 -12   2   6  675.63   38.00
 -12   2   6  667.33   37.80
 -12   2   6  645.04   38.00
  10  -2  -6  174.88   11.00
 -10  -2   6  175.18   10.20
 -10  -2   6  161.58   10.90
 -10  -2   6  158.58    9.80
 -10  -2   6  173.28   11.50
 -10  -2   6  136.09   11.30
 -10   2   6  167.58    9.90
 -10   2   6  162.18   11.10
  10   2  -6  182.48   11.70
 -10   2   6  157.48   10.20
 -10   2   6  170.68   10.20
  -8  -2   6  254.37   15.90
  -8  -2   6  250.07   14.80
  -8  -2   6  262.97   15.20
  -8  -2   6  262.97   16.70
   8  -2  -6  279.77   18.00
  -8   2   6  228.58   15.10
  -8   2   6  263.87   18.20
   8   2  -6  286.77   16.50
  -8   2   6  273.87   16.30
  -8   2   6  258.57   15.20
  -8   2   6  261.37   14.90
  -6  -2   6    0.90    1.90
   6  -2  -6    5.00    4.90
  -6  -2   6    1.90    3.00
  -6   2   6    2.00    4.30
  -6   2   6    1.10    1.90
  -6   2   6   -0.20    2.90
   6   2  -6    1.60    3.10
  -6   2   6    1.50    2.10
   4  -2  -6   26.80    6.00
  -4  -2   6   21.80    4.30
  -4  -2   6   17.40    2.70
  -4   2   6   17.40    2.70
   4   2  -6   33.30    4.70
  -4   2   6   25.40    3.10
  -4   2   6   26.20    6.10
  -4   2   6   27.40    4.40
   2  -2  -6   97.39    9.30
  -2  -2   6   81.49    7.10
  -2  -2   6   97.29    7.00
  -2   2   6   73.39    5.60
  -2   2   6   80.79    6.90
  -2   2   6   72.29    5.90
  -2   2   6   76.29    8.50
   2   2  -6   74.99    7.40
   0  -2  -6  198.48   16.60
   0  -2  -6  289.67   18.50
   0  -2   6  286.87   17.10
   0   2   6  266.67   15.60
   0   2  -6  275.97   16.70
   0   2   6  278.97   15.30
   0   2   6  262.27   16.60
  -2  -2  -6  276.77   16.90
   2  -2   6  316.37   16.90
   2  -2   6  296.77   17.20
  -2  -2  -6  275.17   19.20
   2   2   6  315.97   17.40
   2   2   6  302.07   16.80
   2   2   6  295.07   16.60
  -2   2  -6  289.77   18.00
  -2   2  -6  256.47   17.40
  -4  -2  -6    8.60    2.20
   4  -2   6   11.20    2.40
   4  -2   6   12.40    2.70
   4   2   6    8.10    2.10
  -4   2  -6    7.40    3.00
  -4   2  -6    6.60    3.20
   4   2   6    9.60    2.80
   4   2   6    9.60    2.00
   6  -2   6  251.07   14.80
  -6  -2  -6  246.88   14.70
  -6  -2  -6  256.07   14.50
  -6   2  -6  262.27   15.60
   6   2   6  251.87   14.50
   6   2   6  256.57   15.40
   8  -2   6   54.59    4.50
  -8  -2  -6   51.29    4.10
  -8  -2  -6   52.99    4.30
   8   2   6   48.10    3.90
   8   2   6   52.59    5.20
  -8   2  -6   57.79    5.70
 -10  -2  -6    2.20    1.40
  10  -2   6   -0.90    1.80
 -10   2  -6   -0.90    2.50
  10   2   6    2.70    2.30
 -12  -2  -6   21.40    2.50
  12  -2   6   23.80    2.60
 -12   2  -6   19.40    2.80
  12   2   6   24.40    2.90
 -15  -3   6   23.40    2.50
 -15  -3   6   12.90    2.30
 -15   3   6   16.40    1.80
  15   3  -6   17.90    2.90
 -15   3   6   20.30    2.10
 -13  -3   6    3.60    2.10
 -13  -3   6    2.90    1.00
 -13  -3   6    2.70    1.20
 -13   3   6    3.40    1.50
  13   3  -6    3.80    2.80
 -13   3   6    1.30    1.70
 -13   3   6    2.20    1.40
 -11  -3   6   40.10    3.10
 -11  -3   6   38.20    3.00
 -11   3   6   42.70    3.30
 -11   3   6   39.80    3.80
 -11   3   6   44.00    3.80
  -9  -3   6    3.70    1.40
  -9  -3   6    3.60    1.30
  -9   3   6    2.20    1.80
  -9   3   6    2.20    1.60
  -9   3   6    5.10    2.00
  -7  -3   6  190.18   10.80
  -7   3   6  189.38   10.80
  -7   3   6  188.18   11.10
  -7   3   6  177.68   11.10
  -5  -3   6   60.59    4.30
  -5   3   6   58.19    4.40
  -5   3   6   66.19    4.90
  -5   3   6   63.79    4.80
  -3  -3   6  320.67   18.10
   3  -3  -6  314.67   18.40
  -3   3   6  320.47   18.00
  -3   3   6  344.37   18.30
  -3   3   6  311.77   18.20
   1  -3  -6   98.09    6.70
  -1  -3   6  108.59    6.40
  -1   3   6   97.29    6.20
  -1   3   6  104.69    6.60
  -1  -3  -6   36.90    3.70
   1  -3   6   42.50    3.30
   1   3   6   39.80    3.30
   1   3   6   37.70    3.60
   3  -3   6  188.48   11.30
  -3  -3  -6  201.78   11.40
   3   3   6  200.48   11.40
   5  -3   6   18.60    2.20
  -5  -3  -6   19.30    2.40
   5   3   6   18.20    2.50
   7  -3   6    9.10    1.40
  -7  -3  -6   11.80    1.50
   7   3   6   14.00    2.10
  -7   3  -6    5.40    1.70
 -22   0   7    0.00    1.50
 -20   0   7   -1.00    2.20
 -18   0   7   -1.90    2.10
 -16   0   7    0.40    2.10
 -14   0   7   -0.30    1.90
 -12   0   7    0.10    2.60
  12   0  -7    1.20    2.20
  12   0  -7   -2.80    2.10
 -12   0   7   -1.00    1.70
 -10   0   7    0.40    1.80
 -10   0   7    0.30    2.20
  10   0  -7    0.30    1.90
  10   0  -7    0.90    2.00
 -10   0   7   -2.10    2.30
  -8   0   7    1.40    2.00
  -8   0   7    0.60    2.10
   8   0  -7    3.30    2.10
   8   0  -7   -1.10    1.80
  -8   0   7   -2.80    1.90
   6   0  -7    0.50    2.00
   6   0  -7   -0.40    1.80
  -6   0   7    0.00    2.20
  -6   0   7   -0.80    1.90
  -6   0   7    1.30    2.00
   4   0  -7   -0.80    2.10
  -4   0   7    0.10    2.20
  -4   0   7   -1.40    1.70
   4   0  -7   -1.80    1.80
   2   0  -7   -1.90    2.30
  -2   0   7    2.20    1.90
   2   0  -7   -0.70    1.90
  -2   0   7   -0.80    2.10
   0   0   7   -1.20    2.00
   0   0  -7    2.10    2.60
   0   0  -7    0.00    2.00
   0   0   7   -0.30    1.60
   2   0   7    0.10    1.60
  -2   0  -7   -0.60    2.10
  -2   0  -7   -2.90    2.20
  -4   0  -7    0.20    2.40
  -4   0  -7   -1.10    2.20
   4   0   7    0.90    1.40
   4   0   7    3.70    2.00
  -6   0  -7    7.50    2.60
  -6   0  -7   -2.50    2.80
   6   0   7   -1.90    1.40
   6   0   7    0.70    2.10
  -6   0  -7    1.40    1.50
   6   0   7   -2.00    2.20
  -8   0  -7   -3.60    2.40
   8   0   7    0.10    1.80
  -8   0  -7   -2.50    1.50
  -8   0  -7    2.50    2.90
   8   0   7   -0.80    2.50
   8   0   7   -2.20    3.30
 -10   0  -7   -0.70    1.70
  10   0   7   -2.10    2.00
  12   0   7   -0.20    1.90
 -12   0  -7    1.30    1.70
 -14   0  -7   -2.30    1.50
  14   0   7    1.70    1.60
 -21  -1   7  303.27   16.10
 -21  -1   7  270.57   16.10
 -19  -1   7   58.79    4.50
 -19  -1   7   50.29    4.70
 -19  -1   7   49.60    4.00
 -17  -1   7 1238.78   66.39
 -17  -1   7 1298.67   66.49
 -17  -1   7 1101.99   66.79
 -15  -1   7   35.80    3.30
 -15  -1   7   39.50    4.40
 -15  -1   7   27.30    4.70
 -15  -1   7   44.20    4.20
  15   1  -7   31.00    4.90
 -13  -1   7  362.96   20.80
 -13  -1   7  382.26   21.10
 -13  -1   7  332.67   21.50
 -13  -1   7  403.66   22.60
  13   1  -7  386.66   22.50
 -11  -1   7  129.09    9.70
 -11  -1   7  148.39   10.40
 -11  -1   7  143.29    8.70
  11   1  -7  144.59   10.10
  -9  -1   7   30.50    3.20
  -9  -1   7   34.50    4.40
  -9  -1   7   31.60    4.20
  -9  -1   7   35.50    4.90
  -9   1   7   23.40    4.60
  -9   1   7   36.70    4.50
   9   1  -7   36.10    4.60
   9   1  -7   36.10    3.90
  -7  -1   7   31.10    4.20
  -7  -1   7   29.00    4.10
  -7  -1   7   22.00    2.70
  -7  -1   7   22.10    3.40
   7   1  -7   25.10    3.80
   7   1  -7   28.30    3.60
  -7   1   7   29.80    4.10
  -7   1   7   24.10    4.90
  -5  -1   7  982.10   54.99
  -5  -1   7 1006.20   55.49
   5  -1  -7  973.70   55.49
  -5  -1   7  902.11   54.09
   5   1  -7 1005.00   55.19
  -5   1   7 1058.29   56.49
   5   1  -7  982.00   54.89
  -5   1   7 1014.40   54.89
  -3  -1   7  918.91   56.89
   3  -1  -7 1020.20   57.79
  -3  -1   7 1058.89   57.29
  -3  -1   7 1056.69   58.19
   3   1  -7 1073.79   58.09
  -3   1   7 1096.09   59.09
   3   1  -7 1047.70   57.69
  -3   1   7 1065.99   57.69
   1  -1  -7  498.15   30.80
  -1  -1   7  463.55   29.90
  -1  -1   7  565.34   31.20
  -1  -1   7  581.64   30.40
  -1   1   7  536.35   30.70
   1   1  -7  555.14   30.90
   1   1  -7  584.44   31.30
  -1   1   7  550.54   32.00
  -1  -1  -7  267.67   17.50
   1  -1   7  301.87   17.00
  -1  -1  -7  305.87   18.70
   1  -1   7  278.47   16.60
   1   1   7  289.77   17.40
  -1   1  -7  308.57   17.90
   1   1   7  282.27   18.30
   3  -1   7   96.59    6.60
   3  -1   7   95.09    7.00
   3  -1   7   84.69    6.20
  -3  -1  -7   88.09    6.30
   3   1   7   90.89    6.30
   3   1   7   93.19    7.00
   3   1   7   77.59    6.50
  -3   1  -7   90.89    6.90
  -3   1  -7   93.29    7.80
   5  -1   7    4.20    2.10
   5  -1   7    0.90    1.90
  -5  -1  -7    4.20    1.90
   5   1   7    4.50    2.70
  -5   1  -7    2.10    3.10
   5   1   7    8.50    2.70
  -5   1  -7    4.20    2.60
   5   1   7    3.40    1.70
   7  -1   7  258.67   15.50
  -7  -1  -7  286.07   15.30
   7  -1   7  252.67   16.50
  -7   1  -7  281.47   16.20
  -7   1  -7  256.27   16.70
   7   1   7  273.77   15.30
   7   1   7  275.27   16.10
  -7   1  -7  239.88   15.40
  -9  -1  -7  550.54   29.80
   9  -1   7  549.45   30.00
  -9   1  -7  540.55   30.40
  -9   1  -7  526.95   29.80
   9   1   7  514.25   30.30
 -11  -1  -7   73.79    5.20
  11  -1   7   83.19    5.60
 -11   1  -7   71.09    5.20
 -11   1  -7   70.99    6.10
  13  -1   7   59.89    4.50
 -13  -1  -7   63.49    4.20
 -13   1  -7   52.49    4.20
 -13   1  -7   65.89    4.90
 -18  -2   7    8.00    1.60
 -18  -2   7    7.00    2.00
 -18  -2   7    7.90    1.50
 -16  -2   7   65.59    4.90
 -16  -2   7   66.69    5.50
 -16  -2   7   71.29    4.60
 -14  -2   7   -1.50    1.70
 -14  -2   7    0.40    1.50
 -14  -2   7   -0.90    2.20
 -14   2   7   -0.30    1.60
 -14   2   7    0.30    2.00
 -12  -2   7  545.15   30.40
 -12  -2   7  546.75   31.00
 -12  -2   7  568.34   30.20
 -12   2   7  529.15   30.10
 -12   2   7  532.95   30.40
 -10  -2   7   82.89    6.60
 -10  -2   7   81.09    5.30
 -10  -2   7   71.29    6.00
 -10   2   7   76.09    5.50
 -10   2   7   74.69    5.90
  -8  -2   7  382.86   28.50
   8  -2  -7  476.35   30.00
  -8  -2   7  518.85   27.20
  -8  -2   7  482.55   27.40
  -8   2   7  500.05   27.10
  -8   2   7  487.45   28.30
  -8   2   7  510.15   27.40
   8   2  -7  502.85   28.70
  -8   2   7  527.25   30.80
  -6  -2   7  286.17   17.20
  -6  -2   7  299.27   18.90
   6  -2  -7  261.57   20.00
  -6  -2   7  315.07   16.90
  -6   2   7  308.77   16.90
  -6   2   7  291.87   18.20
  -6   2   7  300.17   17.20
   6   2  -7  310.17   18.60
  -6   2   7  278.67   20.40
  -4  -2   7  124.49    8.30
   4  -2  -7  120.69   11.60
  -4  -2   7  122.49    9.70
  -4  -2   7  125.69    7.80
  -4   2   7  123.79    7.80
   4   2  -7  128.99    9.70
  -4   2   7  133.59    9.50
  -4   2   7  118.49   11.50
  -4   2   7  124.69    8.30
  -2  -2   7  697.63   36.90
  -2  -2   7  543.25   38.10
   2  -2  -7  681.83   40.10
  -2  -2   7  653.73   37.00
  -2   2   7  651.43   38.40
  -2   2   7  699.53   37.00
   2   2  -7  695.23   38.20
  -2   2   7  698.93   36.70
  -2   2   7  678.03   38.10
  -2   2   7  650.03   39.90
   0  -2  -7    9.00    5.00
   0  -2   7    7.80    2.50
   0  -2   7   14.30    2.30
   0   2   7   14.40    2.30
   0   2   7   15.00    3.70
   0   2   7   10.50    2.50
   0   2   7   15.10    2.70
   0   2  -7    9.30    3.30
   2  -2   7  146.89    8.70
   2  -2   7  131.89    8.90
  -2  -2  -7  141.89    8.90
   2   2   7  142.59    8.90
   2   2   7  144.69    9.30
  -2   2  -7  116.39    9.40
   2   2   7  144.79    8.50
  -4  -2  -7   10.70    2.20
   4  -2   7   14.70    2.60
   4  -2   7   11.50    2.30
  -4  -2  -7   11.10    2.20
   4   2   7   12.20    2.10
  -4   2  -7    9.60    3.00
   4   2   7   13.10    2.90
  -6  -2  -7   16.50    2.20
  -6  -2  -7   10.40    2.20
   6  -2   7   14.40    2.40
   6  -2   7   13.60    2.50
  -6   2  -7   11.80    3.20
   6   2   7   14.00    3.00
   6   2   7   11.40    1.90
   8  -2   7  736.43   35.90
  -8  -2  -7  634.84   35.40
   8  -2   7  608.34   35.60
  -8  -2  -7  647.64   35.50
   8   2   7  627.84   35.40
   8   2   7  615.44   36.00
  -8   2  -7  654.03   36.10
  10  -2   7   37.10    3.20
 -10  -2  -7   41.20    3.10
 -10   2  -7   45.40    4.10
  10   2   7   44.40    3.80
 -13  -3   7   40.00    2.70
 -13   3   7   35.00    3.10
 -13   3   7   36.90    3.00
 -13   3   7   38.50    2.80
 -11  -3   7  132.09    7.30
 -11   3   7  128.09    7.40
 -11   3   7  116.69    7.50
 -11   3   7  124.29    7.60
  -9  -3   7   99.69    6.10
  -9   3   7  102.59    6.40
  -9   3   7  104.39    6.20
  -9   3   7   93.29    6.30
  -7  -3   7  196.68   11.20
  -7   3   7  191.78   11.40
  -7   3   7  202.08   11.30
  -7   3   7  195.78   11.50
  -5  -3   7  428.16   23.10
   5  -3  -7  411.36   23.30
  -5   3   7  413.76   23.20
  -5   3   7  412.26   23.20
  -5   3   7  417.16   23.10
   3  -3  -7  203.88   11.60
  -3  -3   7  187.98   11.40
  -3   3   7  202.58   11.50
  -3   3   7  205.88   11.30
  -3   3   7  195.28   11.50
   1  -3  -7  203.68   11.90
  -1  -3   7  210.68   11.80
  -1   3   7  199.28   11.60
  -1   3   7  209.58   11.80
  -1  -3  -7   18.50    2.00
   1  -3   7   17.20    2.00
  -1  -3  -7   18.70    2.00
   1   3   7   15.70    1.90
   1   3   7   15.40    1.70
   3  -3   7   42.10    3.00
  -3  -3  -7   41.60    3.20
   5  -3   7    0.00    0.90
  -5  -3  -7    0.10    1.00
   5   3   7    1.10    1.40
 -14   0   8    1.30    1.60
 -12   0   8   15.90    4.80
 -12   0   8    8.90    2.10
 -10   0   8  875.21   49.70
  -8   0   8  482.45   29.70
   8   0  -8  537.95   30.30
  -6   0   8  505.35   28.20
   6   0  -8  465.25   27.50
  -6   0   8  454.45   27.10
  -4   0   8  143.99    9.80
  -4   0   8  153.78   10.70
   4   0  -8  149.79   10.20
  -2   0   8   67.09    5.60
  -2   0   8   65.69    6.30
   2   0  -8   64.49    6.10
   0   0   8  113.29    9.20
   0   0   8  128.59    8.50
   0   0   8  126.29    8.30
   0   0   8  129.29    8.00
   2   0   8 1033.10   58.39
   2   0   8 1047.50   57.99
  -2   0  -8 1034.80   58.29
   2   0   8 1047.40   57.69
  -2   0  -8 1093.19   57.99
   4   0   8 1110.69   63.79
  -4   0  -8 1094.49   62.89
  -4   0  -8 1194.88   63.49
   4   0   8 1163.68   63.19
   4   0   8 1198.38   63.49
  -6   0  -8  117.59    8.20
   6   0   8  111.99    7.40
  -6   0  -8  106.59    7.10
   6   0   8  120.39    8.10
   8   0   8  142.39    9.20
  -8   0  -8  145.09    9.00
  -8   0  -8  162.18    9.80
 -10   0  -8   72.79    6.90
 -10   0  -8   86.99    5.50
  10   0   8   83.89    5.80
 -12   0  -8   91.89    5.50
  12   0   8   79.89    5.50
 -21  -1   8   43.00    3.20
 -19  -1   8  101.99    6.60
 -19  -1   8  109.09    6.50
 -19  -1   8   99.39    6.80
 -17  -1   8   70.99    5.70
 -17  -1   8   71.19    4.90
 -17  -1   8   71.69    5.30
 -15  -1   8  447.16   25.10
 -15  -1   8  451.75   25.50
 -15  -1   8  439.36   24.80
 -13  -1   8  223.58   13.30
 -13  -1   8  225.48   13.80
 -13  -1   8  222.68   12.90
  11  -1  -8   20.30    4.90
 -11  -1   8   10.90    2.20
 -11  -1   8    9.60    3.30
 -11  -1   8   10.80    2.50
 -11  -1   8    2.60    2.30
  11   1  -8    8.10    3.40
 -11   1   8   13.80    4.30
  -9  -1   8   46.30    4.60
  -9  -1   8   47.30    4.00
  -9  -1   8   45.70    5.10
  -9   1   8   43.80    5.30
  -9   1   8   37.50    4.40
   9   1  -8   44.60    5.80
  -9   1   8   46.30    6.30
  -7  -1   8  123.99    9.40
  -7  -1   8  130.99    8.20
  -7   1   8  135.09   10.70
  -7   1   8  129.59    8.60
  -7   1   8  127.59    9.10
   7   1  -8  128.39    9.60
  -5  -1   8  414.96   22.90
  -5  -1   8  398.06   24.20
  -5   1   8  373.66   23.20
   5   1  -8  426.56   24.30
  -5   1   8  418.16   25.40
  -5   1   8  400.96   23.70
  -5   1   8  407.66   23.00
  -3  -1   8  197.48   15.50
  -3  -1   8  229.48   13.20
  -3  -1   8  229.78   14.50
  -3   1   8  234.18   15.60
   3   1  -8  220.98   14.60
  -3   1   8  212.98   12.90
  -3   1   8  228.18   14.00
  -3   1   8  234.58   13.40
   1  -1  -8  160.58   11.70
  -1  -1   8  145.09    9.50
  -1  -1   8  139.09    9.60
  -1  -1   8  146.69    9.00
  -1  -1   8  135.59   10.20
   1   1  -8  150.78   10.60
   1   1  -8  130.49    9.50
  -1   1   8  143.79    9.70
  -1   1   8  144.59    8.60
  -1   1   8  133.89   10.90
  -1   1   8  138.89    9.10
  -1   1   8  155.98    9.50
   1  -1   8  246.48   14.50
  -1  -1  -8  243.28   14.20
   1  -1   8  240.28   14.90
   1  -1   8  258.17   15.00
   1   1   8  283.07   15.10
   1   1   8  241.88   14.10
   1   1   8  231.88   14.60
  -1   1  -8  242.58   15.00
  -1   1  -8  242.58   15.80
   1   1   8  236.08   15.20
   3  -1   8  271.87   17.10
  -3  -1  -8  284.47   16.40
   3  -1   8  281.67   16.70
   3   1   8  307.17   17.20
  -3   1  -8  295.17   17.20
   3   1   8  294.37   16.90
   3   1   8  285.67   16.30
   3   1   8  269.97   17.30
  -3   1  -8  303.47   18.00
  -5  -1  -8  103.09    7.50
   5  -1   8  110.89    7.20
  -5  -1  -8  106.29    6.70
  -5   1  -8   90.19    7.80
   5   1   8  109.69    7.60
   5   1   8  102.89    6.70
   5   1   8  106.99    7.40
   7  -1   8  110.49    7.40
  -7  -1  -8  111.99    7.00
   7   1   8  103.99    7.50
  -7   1  -8  109.09    8.00
  -9  -1  -8   41.20    3.50
   9  -1   8   37.40    4.00
  -9   1  -8   37.10    4.60
   9   1   8   40.20    4.20
  -9   1  -8   36.30    3.50
 -11  -1  -8   19.70    2.00
  11  -1   8   26.00    2.60
 -11   1  -8   13.90    2.50
 -11   1  -8   12.50    1.80
 -18  -2   8   11.50    1.90
 -18  -2   8   11.00    1.50
 -16  -2   8    0.80    1.50
 -16  -2   8    1.60    1.30
 -16  -2   8    0.30    1.70
 -14  -2   8    2.60    1.40
 -14  -2   8    1.60    2.10
 -14  -2   8    0.30    1.70
 -14   2   8    3.90    2.00
 -12  -2   8   -1.50    1.30
 -12  -2   8    1.10    2.20
 -12  -2   8   -1.90    1.80
 -12   2   8    1.20    1.60
 -12   2   8   -1.60    2.10
 -10  -2   8  719.93   38.60
 -10  -2   8  671.13   38.10
 -10  -2   8  677.93   37.90
 -10   2   8  705.23   38.10
 -10   2   8  664.93   37.70
  -8  -2   8  794.72   43.60
  -8  -2   8  803.92   43.90
  -8   2   8  791.02   43.50
  -8   2   8  783.62   43.80
  -6  -2   8   27.10    2.90
  -6  -2   8   25.60    3.30
  -6   2   8   31.50    3.30
  -6   2   8   32.40    3.90
  -4  -2   8    0.40    2.30
  -4  -2   8   -0.50    1.40
  -4   2   8   -0.70    2.30
  -4   2   8    3.50    1.90
  -2  -2   8   -0.20    1.40
  -2  -2   8    1.10    2.30
  -2   2   8    1.20    1.80
  -2   2   8   -1.40    1.70
  -2   2   8   -0.60    2.10
   0  -2   8    2.50    2.30
   0  -2   8    4.00    1.60
   0   2   8    4.10    2.30
   0   2   8    2.40    1.80
   0   2   8    4.00    2.00
   2  -2   8  166.78   10.40
  -2  -2  -8  181.98   10.20
   2  -2   8  175.68   10.10
  -2   2  -8  164.48   10.80
   2   2   8  155.88   10.80
   2   2   8  161.08   10.60
   2   2   8  181.58   10.10
   4  -2   8  476.25   28.40
  -4  -2  -8  539.95   28.40
   4  -2   8  524.15   28.60
   4   2   8  525.85   28.40
  -4   2  -8  522.55   29.10
   4   2   8  497.35   28.90
  -6  -2  -8   90.49    5.30
   6  -2   8   91.59    5.80
   6  -2   8   74.69    5.30
   6   2   8   81.79    5.90
   6   2   8   80.49    5.20
  -6   2  -8   80.59    6.10
  -8  -2  -8   53.69    3.50
   8   2   8   43.70    3.90
  -8   2  -8   51.09    4.20
  -9  -3   8    0.60    0.90
  -9   3   8    0.90    1.50
  -9   3   8   -0.10    1.30
   7  -3  -8   76.19    5.00
  -7  -3   8   82.79    5.00
  -7   3   8   86.39    5.00
  -7   3   8   81.79    5.20
  -7   3   8   78.69    5.00
   5  -3  -8  135.39    8.40
  -5  -3   8  142.39    8.30
  -5   3   8  151.98    8.30
  -5   3   8  143.79    8.30
  -5   3   8  147.29    8.50
   3  -3  -8  119.29    7.10
  -3  -3   8  127.09    7.10
  -3   3   8  125.69    7.00
  -3   3   8  118.49    7.10
  -3   3   8  113.69    7.20
   1  -3  -8   58.59    3.90
   1  -3  -8   62.59    4.00
  -1  -3   8   59.29    3.80
  -1   3   8   57.29    3.80
   1  -3   8  216.88   12.10
 -14   0   9   -1.50    1.60
 -12   0   9   -1.60    1.50
 -10   0   9   -1.60    1.50
 -10   0   9   -0.50    2.70
  -8   0   9   -0.10    1.70
  -8   0   9    0.90    2.50
  -6   0   9    3.00    2.90
  -6   0   9   -0.60    1.60
  -6   0   9    0.60    2.60
  -4   0   9    2.30    2.90
  -4   0   9   -2.60    2.50
  -4   0   9   -0.30    1.70
  -4   0   9   -1.10    2.50
  -2   0   9   -1.20    1.80
  -2   0   9    4.70    2.60
  -2   0   9   -0.10    2.50
  -2   0   9   -2.10    2.80
   0   0   9   -1.20    2.10
   0   0  -9    2.20    2.50
   0   0   9    0.40    2.00
   0   0   9    2.40    2.50
   2   0   9    2.70    2.10
  -2   0  -9   -1.60    2.60
   2   0   9   -2.40    2.40
   2   0   9    2.40    2.40
  -4   0  -9    0.90    2.90
   4   0   9   -0.90    2.10
  -4   0  -9   -0.70    1.40
   4   0   9   -3.30    2.30
   6   0   9    3.20    2.50
   6   0   9    0.60    2.00
  -6   0  -9    0.10    1.50
  -6   0  -9    1.30    2.50
  -8   0  -9    0.10    2.00
   8   0   9   -1.00    1.70
  -8   0  -9    1.30    1.40
 -10   0  -9   -0.80    1.20
 -19  -1   9  123.79    7.70
 -19  -1   9  117.69    7.70
 -19  -1   9  132.79    7.40
 -17  -1   9   75.09    5.20
 -17  -1   9   81.19    5.80
 -17  -1   9   77.59    5.30
 -15  -1   9  559.44   31.50
 -15  -1   9  573.24   31.90
 -13  -1   9  741.23   41.70
 -13  -1   9  750.22   41.20
 -11  -1   9  508.85   29.30
 -11  -1   9  521.85   28.90
  -9  -1   9    0.90    2.00
  -9  -1   9   -0.60    1.80
  -9   1   9    1.80    2.20
  -9   1   9    2.30    1.70
  -7  -1   9   50.29    5.60
  -7  -1   9   51.39    4.70
   7  -1  -9   48.50    7.20
  -7  -1   9   52.49    4.80
  -7   1   9   54.49    4.80
  -7   1   9   49.90    5.80
   7   1  -9   48.50    6.20
  -7   1   9   53.79    4.50
  -7   1   9   49.20    7.00
  -5  -1   9   45.80    4.40
  -5  -1   9   42.60    5.60
  -5  -1   9   46.50    4.60
   5  -1  -9   53.99    7.40
  -5   1   9   51.19    5.40
  -5   1   9   49.80    4.90
  -5   1   9   46.10    6.70
  -5   1   9   59.39    4.60
   5   1  -9   52.49    5.80
   3  -1  -9  225.48   15.30
  -3  -1   9  228.28   12.70
  -3  -1   9  199.78   13.90
  -3   1   9  202.68   12.10
  -3   1   9  192.38   14.60
   3   1  -9  198.58   13.90
  -3   1   9  229.38   12.80
  -3   1   9  220.28   12.80
  -3   1   9  183.28   13.60
  -1  -1   9 2240.88  118.79
  -1  -1   9 2118.89  118.89
   1  -1  -9 2087.79  118.39
  -1   1   9 2160.88  118.39
   1   1  -9 2078.89  118.89
  -1   1   9 2195.68  118.79
  -1   1   9 2377.26  119.09
   1  -1   9  291.27   16.00
  -1  -1  -9  257.17   15.50
   1   1   9  274.37   15.50
  -1   1  -9  268.27   16.20
   1   1   9  271.67   16.20
   1   1   9  277.37   16.10
  -3  -1  -9  696.93   39.00
   3  -1   9  716.53   39.40
  -3  -1  -9  732.83   39.50
   3   1   9  678.93   39.60
   3   1   9  714.53   39.00
   3   1   9  715.73   39.50
  -3   1  -9  719.63   39.70
  -5  -1  -9   50.29    4.10
   5  -1   9   61.09    4.80
  -5  -1  -9   48.30    4.70
  -5   1  -9   61.79    5.30
   5   1   9   56.79    4.80
   5   1   9   57.29    4.10
   5   1   9   48.10    4.60
   7  -1   9    3.00    2.00
  -7  -1  -9    1.90    1.50
   7   1   9    0.00    1.70
  -7   1  -9    2.70    2.30
   9  -1   9    0.80    1.50
  -9  -1  -9    0.10    1.20
  -9   1  -9    0.60    1.70
 -16  -2   9    0.40    1.50
 -16  -2   9    0.90    1.00
 -14  -2   9   51.29    3.60
 -14  -2   9   54.69    4.30
 -14  -2   9   52.59    4.10
 -12  -2   9    2.40    1.80
 -12  -2   9    1.00    1.30
 -12  -2   9    0.70    1.70
 -12   2   9    3.00    2.20
 -12   2   9    1.60    1.90
 -10  -2   9  258.97   15.00
 -10  -2   9  275.57   14.80
 -10  -2   9  260.77   15.20
 -10   2   9  245.88   14.60
 -10   2   9  261.87   15.00
  -8  -2   9    4.90    1.90
  -8  -2   9    0.10    1.30
  -8   2   9    5.00    2.20
  -8   2   9    1.80    1.60
  -6  -2   9  177.08   10.40
  -6  -2   9  174.38   10.90
  -6   2   9  183.08   10.80
  -6   2   9  183.48   10.50
  -4  -2   9   40.50    4.00
  -4  -2   9   33.80    2.90
  -4   2   9   37.50    3.80
  -4   2   9   33.60    3.30
  -4   2   9   28.80    3.60
  -2  -2   9  109.99    7.20
  -2  -2   9  106.29    6.70
  -2   2   9  110.79    7.30
  -2   2   9  103.59    7.20
  -2   2   9  122.09    6.90
   0  -2  -9   29.50    2.80
   0  -2   9   25.10    2.40
   0  -2   9   28.70    3.00
   0   2   9   24.60    3.10
   0   2   9   26.80    3.10
   0   2   9   25.70    2.90
   2  -2   9   12.10    2.20
  -2  -2  -9   16.70    2.10
   2   2   9   11.80    2.30
   2   2   9   12.50    2.80
   2   2   9   12.60    1.90
  -4  -2  -9   90.59    5.50
   4  -2   9   95.49    5.80
   4   2   9   92.59    5.50
  -4   2  -9   82.19    5.80
   4   2   9   80.69    5.90
  -6  -2  -9    6.00    1.20
  -6   2  -9    4.80    1.50
   6   2   9    7.20    1.70
 -16   0  10   52.29    4.30
 -14   0  10  178.98   10.90
 -12   0  10   10.30    2.20
 -10   0  10  934.11   51.59
  -8   0  10   19.30    2.90
  -6   0  10 1140.39   62.79
   4   0 -10 1131.29   64.19
  -4   0  10 1165.08   64.19
  -4   0  10 1210.28   64.29
  -2   0  10  663.43   34.90
  -2   0  10  614.14   34.90
   2   0 -10  595.14   34.80
   0   0 -10  128.79    9.00
   0   0  10  133.89    8.90
   0   0  10  140.59    8.70
   2   0  10   39.10    5.50
  -2   0 -10   45.60    4.60
   2   0  10   39.10    4.20
   4   0  10  172.48   11.20
  -4   0 -10  195.98   11.40
  -6   0 -10    1.50    1.90
  -6   0 -10    0.60    1.20
 -17  -1  10   14.80    2.10
 -15  -1  10  239.78   13.20
 -15  -1  10  208.28   12.80
 -13  -1  10   48.30    4.50
 -13  -1  10   47.10    4.10
 -11  -1  10   27.30    3.60
 -11  -1  10   33.10    3.40
  -9  -1  10   84.99    6.00
  -9  -1  10   88.29    6.10
  -9   1  10   78.39    5.80
  -9   1  10   74.59    6.00
  -7  -1  10  183.48   11.00
  -7  -1  10  184.08   11.00
  -7   1  10  177.28   11.00
  -7   1  10  167.58   10.80
  -5  -1  10   61.49    5.00
  -5  -1  10   58.79    5.20
  -5   1  10   66.89    5.20
  -5   1  10   59.79    5.40
   3  -1 -10   20.30    2.70
  -3  -1  10   23.60    3.10
  -3   1  10   23.90    2.70
  -3   1  10   21.50    3.10
  -3   1  10   24.20    3.30
   1  -1 -10   34.10    3.30
  -1  -1  10   38.60    4.20
  -1   1  10   42.90    4.30
  -1   1  10   41.60    4.30
  -1   1  10   35.50    3.20
   1   1 -10   39.00    4.00
   1  -1  10   31.50    3.30
  -1  -1 -10   37.10    4.10
  -1  -1 -10   27.80    2.90
   1   1  10   32.50    3.60
   1   1  10   30.30    3.70
  -1   1 -10   20.80    3.00
   1   1  10   27.90    2.80
  -3  -1 -10   72.19    4.90
  -3  -1 -10   78.99    5.70
   3  -1  10   77.19    5.60
   3   1  10   70.69    5.40
   3   1  10   78.69    5.60
  -3   1 -10   77.99    5.70
   5  -1  10  151.78    8.80
  -5  -1 -10  147.09    8.50
  -5  -1 -10  152.88    8.90
   5   1  10  140.69    8.80
   5   1  10  131.49    8.80
  -5   1 -10  152.28    9.00
  -7  -1 -10   87.79    5.40
  -7   1 -10   93.69    6.10
 -12  -2  10    6.50    1.20
 -12  -2  10    6.00    1.50
 -12   2  10    6.70    1.80
 -10  -2  10   32.50    4.20
 -10  -2  10   42.70    3.70
 -10  -2  10   47.80    3.10
 -10   2  10   46.90    3.70
  -8  -2  10   90.79    5.40
  -8  -2  10   86.79    5.80
  -8   2  10   84.09    5.40
  -8   2  10   90.09    5.90
  -6  -2  10  466.65   26.50
  -6   2  10  469.05   26.20
  -6   2  10  496.35   26.60
  -4  -2  10  116.69    7.10
   4  -2 -10  113.89    6.80
  -4   2  10  117.39    7.20
  -4   2  10  101.49    7.00
  -4   2  10  117.79    6.80
   2  -2 -10  126.09    7.20
  -2  -2  10  117.39    7.40
  -2   2  10  123.89    7.10
  -2   2  10  126.39    7.50
  -2   2  10  107.79    7.50
   0  -2 -10    0.30    1.10
   0   2  10    3.00    1.30
   0   2  10    0.10    1.40
   0   2  10   -1.60    1.60
  -2  -2 -10   22.80    2.10
   2   2  10   20.30    2.00
   2   2  10   15.60    2.10
 -16   0  11   -2.00    1.20
 -14   0  11    2.40    1.70
 -12   0  11   -1.10    1.60
 -10   0  11    0.40    1.60
  -8   0  11    0.00    1.80
  -6   0  11    0.40    1.80
   4   0 -11   -0.50    1.90
  -4   0  11    2.40    2.30
  -4   0  11   -1.40    1.70
  -2   0  11   -0.70    2.30
   2   0 -11    2.30    2.30
  -2   0  11    0.10    1.70
   0   0  11   -0.40    1.60
   0   0 -11   -1.70    2.20
   0   0  11   -0.90    2.10
   2   0  11   -1.00    1.90
  -2   0 -11    0.70    1.60
  -4   0 -11   -1.20    1.40
 -15  -1  11  231.78   13.30
 -13  -1  11    5.60    1.60
 -13  -1  11    2.50    1.50
 -11  -1  11  456.95   24.80
 -11  -1  11  446.16   24.60
 -11   1  11  419.86   25.00
  -9  -1  11  293.67   16.40
  -9  -1  11  293.57   16.50
  -9   1  11  294.67   16.40
  -9   1  11  265.47   16.30
  -7  -1  11   97.99    6.50
  -7  -1  11   94.89    6.50
  -7   1  11  104.89    6.80
  -7   1  11   95.69    6.50
  -5  -1  11    0.40    2.00
  -5  -1  11    0.50    1.50
  -5   1  11    0.80    1.60
  -5   1  11    1.00    2.20
  -3  -1  11    3.70    2.00
   3  -1 -11    6.10    2.30
  -3   1  11    7.30    2.30
  -3   1  11    4.60    1.90
   1  -1 -11  170.28    9.70
  -1  -1  11  161.48    9.50
  -1   1  11  158.58    9.60
  -1   1  11  160.18    9.60
   1   1 -11  144.39    9.50
  -1  -1 -11   38.10    3.30
   1  -1  11   32.90    3.30
  -1  -1 -11   25.80    2.30
  -1   1 -11   30.30    3.10
   1   1  11   26.10    3.10
   1   1  11   22.60    3.00
   3   1  11  183.98   10.50
 -12   0  12   15.30    1.90
 -10   0  12   14.40    2.00
  -8   0  12  139.69    8.40
  -6   0  12  148.49    8.90
  -4   0  12  293.97   15.90
   4   0 -12  269.27   15.90
  -4   0  12  275.87   15.90
  -2   0  12  356.76   19.80
   2   0 -12  352.66   19.90
  -7  -1  12    3.20    1.90
  -7   1  12    2.90    1.30
  -5   1  12   17.90    2.20

_computing_structure_solution     'SHELXT 2014/4 (Sheldrick, 2014)'
;
_shelx_hkl_checksum              54958
loop_
_space_group_symop_operation_xyz
'x, y, z'
'-x, y, -z+1/2'
'x+1/2, y+1/2, z'
'-x+1/2, y+1/2, -z+1/2'
'-x, -y, -z'
'x, -y, z-1/2'
'-x+1/2, -y+1/2, -z'
'x+1/2, -y+1/2, z-1/2'
loop_
_atom_site_type_symbol
_atom_site_label
_atom_site_fract_x
_atom_site_fract_y
_atom_site_fract_z
_atom_site_U_iso_or_equiv
_atom_site_adp_type
_atom_site_calc_flag
_atom_site_refinement_flags_adp
_atom_site_refinement_flags_occupancy
_atom_site_refinement_flags_posn
_atom_site_occupancy
C C1 0.59306(9) 0.7341(5) 0.60329(17) 0.0104(4) Uani d . . . 1
O O1 0.65132(6) 0.5989(4) 0.60131(12) 0.0122(3) Uani d . . . 1
O O2 0.57265(6) 0.7461(4) 0.70852(12) 0.0114(3) Uani d . . . 1
O O3 0.55414(6) 0.8713(4) 0.48722(12) 0.0129(3) Uani d . . . 1
H H3 0.5 1.0 0.5 0.17(3) Uiso d . P S 1
O O4 0.71206(7) -0.3380(4) 0.35445(14) 0.0138(3) Uani d . . . 1
H H1 0.7499(16) -0.275(10) 0.355(3) 0.037(8) Uiso d . . . 1
H H2 0.6932(16) -0.395(10) 0.269(3) 0.042(8) Uiso d . . . 1
Na Na1 0.65096(4) 0.1600(2) 0.42580(7) 0.0133(3) Uani d . . . 1
Na Na2 0.5 0.2531(3) 0.75 0.0120(3) Uani d T P S 1
loop_
_atom_site_aniso_label
_atom_site_aniso_U_11
_atom_site_aniso_U_22
_atom_site_aniso_U_33
_atom_site_aniso_U_12
_atom_site_aniso_U_13
_atom_site_aniso_U_23
C1 0.0143(9) 0.0083(8) 0.0088(8) -0.0024(6) 0.0037(7) -0.0016(6)
O1 0.0134(6) 0.0157(7) 0.0087(6) 0.0003(5) 0.0051(5) -0.0008(5)
O2 0.0149(6) 0.0140(7) 0.0074(6) -0.0001(5) 0.0065(5) -0.0002(5)
O3 0.0151(6) 0.0167(7) 0.0074(6) 0.0009(5) 0.0039(5) 0.0019(5)
O4 0.0146(7) 0.0178(7) 0.0105(6) -0.0041(5) 0.0061(5) -0.0024(5)
Na1 0.0178(4) 0.0139(4) 0.0096(4) -0.0017(3) 0.0063(3) -0.0007(3)
Na2 0.0150(5) 0.0128(5) 0.0092(5) 0 0.0051(4) 0
loop_
_atom_type_symbol
_atom_type_description
_atom_type_scat_dispersion_real
_atom_type_scat_dispersion_imag
_atom_type_scat_source
C C 0.0181 0.0091 'International Tables Vol C Tables 4.2.6.8 and 6.1.1.4'
H H 0.0000 0.0000 'International Tables Vol C Tables 4.2.6.8 and 6.1.1.4'
O O 0.0492 0.0322 'International Tables Vol C Tables 4.2.6.8 and 6.1.1.4'
Na Na 0.1353 0.1239 'International Tables Vol C Tables 4.2.6.8 and 6.1.1.4'
loop_
_geom_angle_atom_site_label_1
_geom_angle_atom_site_label_2
_geom_angle_atom_site_label_3
_geom_angle_site_symmetry_1
_geom_angle_site_symmetry_3
_geom_angle
O2 C1 O1 . . 123.78(16)
O2 C1 O3 . . 120.28(16)
O1 C1 O3 . . 115.93(15)
O2 C1 Na1 . 1_565 145.89(12)
O1 C1 Na1 . 1_565 67.93(9)
O3 C1 Na1 . 1_565 59.02(8)
C1 O1 Na1 . . 116.46(10)
C1 O1 Na1 . 1_565 85.46(10)
Na1 O1 Na1 . 1_565 87.07(4)
C1 O2 Na1 . 6_566 121.02(11)
C1 O2 Na2 . . 120.22(11)
Na1 O2 Na2 6_566 . 102.41(5)
C1 O2 Na2 . 1_565 122.87(11)
Na1 O2 Na2 6_566 1_565 90.88(4)
Na2 O2 Na2 . 1_565 92.55(4)
C1 O3 Na2 . 5_666 146.68(11)
C1 O3 Na1 . 1_565 93.42(10)
Na2 O3 Na1 5_666 1_565 88.91(4)
C1 O3 H3 . . 111.03(12)
Na2 O3 H3 5_666 . 90.40(6)
Na1 O3 H3 1_565 . 133.83(9)
Na1 O4 Na1 . 1_545 93.88(5)
Na1 O4 H1 . . 113.(2)
Na1 O4 H1 1_545 . 142.(2)
Na1 O4 H2 . . 111.(2)
Na1 O4 H2 1_545 . 92.(2)
H1 O4 H2 . . 103.(3)
O1 Na1 O4 . . 145.15(6)
O1 Na1 O4 . 1_565 83.05(5)
O4 Na1 O4 . 1_565 93.88(5)
O1 Na1 O2 . 6_565 119.33(5)
O4 Na1 O2 . 6_565 94.52(5)
O4 Na1 O2 1_565 6_565 83.04(5)
O1 Na1 O3 . 1_545 83.77(5)
O4 Na1 O3 . 1_545 108.54(5)
O4 Na1 O3 1_565 1_545 155.61(6)
O2 Na1 O3 6_565 1_545 85.67(5)
O1 Na1 O1 . 1_545 87.08(4)
O4 Na1 O1 . 1_545 77.25(5)
O4 Na1 O1 1_565 1_545 147.91(5)
O2 Na1 O1 6_565 1_545 127.92(5)
O3 Na1 O1 1_545 1_545 51.08(4)
O1 Na1 C1 . 1_545 75.66(5)
O4 Na1 C1 . 1_545 100.02(5)
O4 Na1 C1 1_565 1_545 157.84(5)
O2 Na1 C1 6_565 1_545 112.70(5)
O3 Na1 C1 1_545 1_545 27.56(5)
O1 Na1 C1 1_545 1_545 26.61(5)
O1 Na1 Na2 . 5_656 118.87(4)
O4 Na1 Na2 . 5_656 90.28(4)
O4 Na1 Na2 1_565 5_656 128.02(4)
O2 Na1 Na2 6_565 5_656 44.98(3)
O3 Na1 Na2 1_545 5_656 45.17(3)
O1 Na1 Na2 1_545 5_656 83.30(3)
C1 Na1 Na2 1_545 5_656 69.47(4)
O1 Na1 Na1 . 1_565 49.96(3)
O4 Na1 Na1 . 1_565 136.82(4)
O4 Na1 Na1 1_565 1_565 42.94(3)
O2 Na1 Na1 6_565 1_565 82.13(3)
O3 Na1 Na1 1_545 1_565 114.05(4)
O1 Na1 Na1 1_545 1_565 137.04(3)
C1 Na1 Na1 1_545 1_565 121.09(4)
Na2 Na1 Na1 5_656 1_565 114.774(19)
O1 Na1 Na1 . 1_545 130.04(3)
O4 Na1 Na1 . 1_545 43.18(4)
O4 Na1 Na1 1_565 1_545 137.06(4)
O2 Na1 Na1 6_565 1_545 97.87(3)
O3 Na1 Na1 1_545 1_545 65.95(4)
O1 Na1 Na1 1_545 1_545 42.96(3)
C1 Na1 Na1 1_545 1_545 58.91(4)
Na2 Na1 Na1 5_656 1_545 65.227(19)
Na1 Na1 Na1 1_565 1_545 180.0
O1 Na1 Na2 . 5_666 81.01(4)
O4 Na1 Na2 . 5_666 133.30(4)
O4 Na1 Na2 1_565 5_666 83.30(4)
O2 Na1 Na2 6_565 5_666 38.80(3)
O3 Na1 Na2 1_545 5_666 74.42(4)
O1 Na1 Na2 1_545 5_666 125.18(4)
C1 Na1 Na2 1_545 5_666 99.17(4)
Na2 Na1 Na2 5_656 5_666 58.024(12)
Na1 Na1 Na2 1_565 5_666 56.750(17)
Na1 Na1 Na2 1_545 5_666 123.251(17)
O1 Na1 Na1 . 7_656 79.68(4)
O4 Na1 Na1 . 7_656 70.33(4)
O4 Na1 Na1 1_565 7_656 55.56(4)
O2 Na1 Na1 6_565 7_656 133.22(5)
O3 Na1 Na1 1_545 7_656 140.89(4)
O1 Na1 Na1 1_545 7_656 92.68(4)
C1 Na1 Na1 1_545 7_656 113.42(5)
Na2 Na1 Na1 5_656 7_656 160.60(3)
Na1 Na1 Na1 1_565 7_656 80.90(2)
Na1 Na1 Na1 1_545 7_656 99.10(2)
Na2 Na1 Na1 5_666 7_656 136.14(3)
O2 Na2 O2 . 2_656 88.26(7)
O2 Na2 O2 . 2_646 179.19(5)
O2 Na2 O2 2_656 2_646 92.55(4)
O2 Na2 O2 . 1_545 92.55(4)
O2 Na2 O2 2_656 1_545 179.19(5)
O2 Na2 O2 2_646 1_545 86.64(7)
O2 Na2 O3 . 5_666 94.27(4)
O2 Na2 O3 2_656 5_666 100.42(4)
O2 Na2 O3 2_646 5_666 85.58(4)
O2 Na2 O3 1_545 5_666 79.52(4)
O2 Na2 O3 . 6_566 100.42(4)
O2 Na2 O3 2_656 6_566 94.27(4)
O2 Na2 O3 2_646 6_566 79.52(4)
O2 Na2 O3 1_545 6_566 85.58(4)
O3 Na2 O3 5_666 6_566 159.50(8)
O2 Na2 Na1 . 5_656 136.03(3)
O2 Na2 Na1 2_656 5_656 83.21(3)
O2 Na2 Na1 2_646 5_656 44.14(3)
O2 Na2 Na1 1_545 5_656 96.20(4)
O3 Na2 Na1 5_666 5_656 45.92(3)
O3 Na2 Na1 6_566 5_656 123.13(4)
O2 Na2 Na1 . 6_556 83.21(3)
O2 Na2 Na1 2_656 6_556 136.03(3)
O2 Na2 Na1 2_646 6_556 96.20(4)
O2 Na2 Na1 1_545 6_556 44.14(3)
O3 Na2 Na1 5_666 6_556 123.13(4)
O3 Na2 Na1 6_566 6_556 45.92(3)
Na1 Na2 Na1 5_656 6_556 130.45(4)
O2 Na2 Na2 . 1_565 44.13(3)
O2 Na2 Na2 2_656 1_565 44.13(3)
O2 Na2 Na2 2_646 1_565 136.68(3)
O2 Na2 Na2 1_545 1_565 136.68(3)
O3 Na2 Na2 5_666 1_565 100.25(4)
O3 Na2 Na2 6_566 1_565 100.25(4)
Na1 Na2 Na2 5_656 1_565 114.773(19)
Na1 Na2 Na2 6_556 1_565 114.773(19)
O2 Na2 Na2 . 1_545 135.87(3)
O2 Na2 Na2 2_656 1_545 135.87(3)
O2 Na2 Na2 2_646 1_545 43.32(3)
O2 Na2 Na2 1_545 1_545 43.32(3)
O3 Na2 Na2 5_666 1_545 79.75(4)
O3 Na2 Na2 6_566 1_545 79.75(4)
Na1 Na2 Na2 5_656 1_545 65.227(19)
Na1 Na2 Na2 6_556 1_545 65.227(19)
Na2 Na2 Na2 1_565 1_545 180.0
O2 Na2 Na1 . 6_566 38.79(3)
O2 Na2 Na1 2_656 6_566 89.56(4)
O2 Na2 Na1 2_646 6_566 141.18(3)
O2 Na2 Na1 1_545 6_566 91.07(3)
O3 Na2 Na1 5_666 6_566 132.04(3)
O3 Na2 Na1 6_566 6_566 61.67(3)
Na1 Na2 Na1 5_656 6_566 171.52(3)
Na1 Na2 Na1 6_556 6_566 58.024(12)
Na2 Na2 Na1 1_565 6_566 56.749(17)
Na2 Na2 Na1 1_545 6_566 123.251(17)
O2 Na2 Na1 . 5_666 89.56(4)
O2 Na2 Na1 2_656 5_666 38.79(3)
O2 Na2 Na1 2_646 5_666 91.07(3)
O2 Na2 Na1 1_545 5_666 141.18(3)
O3 Na2 Na1 5_666 5_666 61.67(3)
O3 Na2 Na1 6_566 5_666 132.04(3)
Na1 Na2 Na1 5_656 5_666 58.024(12)
Na1 Na2 Na1 6_556 5_666 171.52(3)
Na2 Na2 Na1 1_565 5_666 56.749(17)
Na2 Na2 Na1 1_545 5_666 123.251(17)
Na1 Na2 Na1 6_566 5_666 113.50(3)
loop_
_geom_bond_atom_site_label_1
_geom_bond_atom_site_label_2
_geom_bond_site_symmetry_2
_geom_bond_distance
C1 O2 . 1.267(2)
C1 O1 . 1.281(2)
C1 O3 . 1.321(2)
C1 Na1 1_565 2.8514(19)
O1 Na1 . 2.3595(14)
O1 Na1 1_565 2.6508(14)
O2 Na1 6_566 2.3742(13)
O2 Na2 . 2.3745(14)
O2 Na2 1_565 2.4099(14)
O3 Na2 5_666 2.4181(12)
O3 Na1 1_565 2.4491(14)
O3 H3 . 1.2308(12)
O4 Na1 . 2.3609(14)
O4 Na1 1_545 2.3714(14)
O4 H1 . 0.80(3)
O4 H2 . 0.88(3)
Na1 O4 1_565 2.3714(15)
Na1 O2 6_565 2.3741(13)
Na1 O3 1_545 2.4491(14)
Na1 O1 1_545 2.6508(14)
Na1 C1 1_545 2.8514(19)
Na1 Na2 5_656 3.4088(8)
Na1 Na1 1_565 3.4577(2)
Na1 Na1 1_545 3.4577(2)
Na1 Na2 5_666 3.7011(9)
Na1 Na1 7_656 3.9384(14)
Na2 O2 2_656 2.3745(14)
Na2 O2 2_646 2.4099(14)
Na2 O2 1_545 2.4099(14)
Na2 O3 5_666 2.4180(12)
Na2 O3 6_566 2.4180(12)
Na2 Na1 5_656 3.4088(8)
Na2 Na1 6_556 3.4088(8)
Na2 Na2 1_565 3.45769(19)
Na2 Na2 1_545 3.45771(19)
Na2 Na1 6_566 3.7011(9)
Na2 Na1 5_666 3.7011(9)
loop_
_geom_torsion_atom_site_label_1
_geom_torsion_atom_site_label_2
_geom_torsion_atom_site_label_3
_geom_torsion_atom_site_label_4
_geom_torsion_site_symmetry_1
_geom_torsion_site_symmetry_4
_geom_torsion
O2 C1 O1 Na1 . . 132.07(15)
O3 C1 O1 Na1 . . -49.00(18)
Na1 C1 O1 Na1 1_565 . -84.45(8)
O2 C1 O1 Na1 . 1_565 -143.48(17)
O3 C1 O1 Na1 . 1_565 35.45(14)
O1 C1 O2 Na1 . 6_566 32.7(2)
O3 C1 O2 Na1 . 6_566 -146.16(12)
Na1 C1 O2 Na1 1_565 6_566 -67.7(2)
O1 C1 O2 Na2 . . -97.11(17)
O3 C1 O2 Na2 . . 84.01(18)
Na1 C1 O2 Na2 1_565 . 162.43(15)
O1 C1 O2 Na2 . 1_565 146.92(13)
O3 C1 O2 Na2 . 1_565 -32.0(2)
Na1 C1 O2 Na2 1_565 1_565 46.5(3)
O2 C1 O3 Na2 . 5_666 -126.62(18)
O1 C1 O3 Na2 . 5_666 54.4(3)
Na1 C1 O3 Na2 1_565 5_666 93.23(18)
O2 C1 O3 Na1 . 1_565 140.14(15)
O1 C1 O3 Na1 . 1_565 -38.82(15)
