#------------------------------------------------------------------------------
#$Date: 2015-06-04 06:32:09 +0300 (Thu, 04 Jun 2015) $
#$Revision: 137844 $
#$URL: svn://www.crystallography.net/cod/cif/4/51/31/4513146.cif $
#------------------------------------------------------------------------------
#
# This file is available in the Crystallography Open Database (COD),
# http://www.crystallography.net/
#
# All data on this site have been placed in the public domain by the
# contributors.
#
data_4513146
loop_
_publ_author_name
'Abrahams, Brendan F.'
'Elliott, Robert W.'
'Hudson, Timothy A.'
'Robson, Richard'
'Sutton, Ashley L.'
_publ_section_title
;
 New CuI2(TCNQ--II) and CuI2(F4TCNQ--II) Coordination Polymers
;
_journal_issue                   5
_journal_name_full               'Crystal Growth &amp; Design'
_journal_page_first              2437
_journal_paper_doi               10.1021/acs.cgd.5b00220
_journal_volume                  15
_journal_year                    2015
_chemical_formula_sum            'C26 H24 Cu2 N6 O'
_chemical_formula_weight         563.59
_space_group_crystal_system      triclinic
_space_group_IT_number           2
_space_group_name_Hall           '-P 1'
_space_group_name_H-M_alt        'P -1'
_symmetry_space_group_name_Hall  '-P 1'
_symmetry_space_group_name_H-M   'P -1'
_atom_sites_solution_hydrogens   geom
_audit_creation_method           SHELXL-2014/6
_cell_angle_alpha                65.050(6)
_cell_angle_beta                 85.345(4)
_cell_angle_gamma                66.686(5)
_cell_formula_units_Z            1
_cell_length_a                   7.6219(4)
_cell_length_b                   9.3173(5)
_cell_length_c                   10.5299(6)
_cell_measurement_reflns_used    2761
_cell_measurement_temperature    130(2)
_cell_measurement_theta_max      73.7473
_cell_measurement_theta_min      4.6526
_cell_volume                     619.33(7)
_computing_cell_refinement
;
CrysAlisPro, Agilent Technologies,
Version 1.171.36.20 (release 27-06-2012 CrysAlis171 .NET)
(compiled Jul 11 2012,15:38:31)
;
_computing_data_collection
;
CrysAlisPro, Agilent Technologies,
Version 1.171.36.20 (release 2130-06-2012 CrysAlis171 .NET)
(compiled Jul 11 2012,15:38:31)
;
_computing_data_reduction
;
CrysAlisPro, Agilent Technologies,
Version 1.171.36.20 (release 27-06-2012 CrysAlis171 .NET)
(compiled Jul 11 2012,15:38:31)
;
_computing_structure_refinement  'SHELXL-2014/6 (Sheldrick, 2014)'
_computing_structure_solution    'SHELXS-2014/6 (Sheldrick, 2014)'
_diffrn_ambient_temperature      130(2)
_diffrn_detector_area_resol_mean 10.2273
_diffrn_measured_fraction_theta_full 0.995
_diffrn_measured_fraction_theta_max 0.953
_diffrn_measurement_device_type  'SuperNova, Dual, Cu at zero, Atlas'
_diffrn_measurement_method       '\w scans'
_diffrn_radiation_type           CuK\a
_diffrn_radiation_wavelength     1.54184
_diffrn_reflns_av_R_equivalents  0.0257
_diffrn_reflns_av_unetI/netI     0.0322
_diffrn_reflns_laue_measured_fraction_full 0.995
_diffrn_reflns_laue_measured_fraction_max 0.953
_diffrn_reflns_limit_h_max       9
_diffrn_reflns_limit_h_min       -7
_diffrn_reflns_limit_k_max       11
_diffrn_reflns_limit_k_min       -11
_diffrn_reflns_limit_l_max       13
_diffrn_reflns_limit_l_min       -12
_diffrn_reflns_number            4963
_diffrn_reflns_point_group_measured_fraction_full 0.995
_diffrn_reflns_point_group_measured_fraction_max 0.953
_diffrn_reflns_theta_full        67.684
_diffrn_reflns_theta_max         73.911
_diffrn_reflns_theta_min         4.656
_diffrn_source                   'SuperNova (Cu) X-ray Source'
_exptl_absorpt_coefficient_mu    2.363
_exptl_absorpt_correction_T_max  1.00000
_exptl_absorpt_correction_T_min  0.68436
_exptl_absorpt_correction_type   multi-scan
_exptl_absorpt_process_details
;
CrysAlisPro, Agilent Technologies,
Version 1.171.36.20 (release 27-06-2012 CrysAlis171 .NET)
(compiled Jul 11 2012,15:38:31)
Empirical absorption correction using spherical harmonics,
 implemented in SCALE3 ABSPACK scaling algorithm.
;
_exptl_crystal_colour            colorless
_exptl_crystal_density_diffrn    1.511
_exptl_crystal_description       needle
_exptl_crystal_F_000             288
_platon_squeeze_details
;
The unit cell contains a highly disordered ethanol
 molecule  which have 
been treated as a diffuse contribution to the overall 
scattering without specific atom positions by SQUEEZE/PLATON.
;
_refine_diff_density_max         0.394
_refine_diff_density_min         -0.485
_refine_diff_density_rms         0.068
_refine_ls_extinction_method     none
_refine_ls_goodness_of_fit_ref   1.065
_refine_ls_hydrogen_treatment    constr
_refine_ls_matrix_type           full
_refine_ls_number_parameters     148
_refine_ls_number_reflns         2403
_refine_ls_number_restraints     0
_refine_ls_restrained_S_all      1.065
_refine_ls_R_factor_all          0.0385
_refine_ls_R_factor_gt           0.0336
_refine_ls_shift/su_max          0.000
_refine_ls_shift/su_mean         0.000
_refine_ls_structure_factor_coef Fsqd
_refine_ls_weighting_details
'w=1/[\s^2^(Fo^2^)+(0.0439P)^2^+0.4736P] where P=(Fo^2^+2Fc^2^)/3'
_refine_ls_weighting_scheme      calc
_refine_ls_wR_factor_gt          0.0884
_refine_ls_wR_factor_ref         0.0912
_reflns_Friedel_coverage         0.000
_reflns_number_gt                2143
_reflns_number_total             2403
_reflns_threshold_expression     'I > 2\s(I)'
_cod_data_source_file            cg5b00220_si_002.cif
_cod_data_source_block           2picoline
_cod_database_code               4513146
_shelx_space_group_comment
;
The symmetry employed for this shelxl refinement is uniquely defined
by the following loop, which should always be used as a source of
symmetry information in preference to the above space-group names.
They are only intended as comments.
;
_shelxl_version_number           2014/6
_shelx_res_file
;
TITL 2picoline.res in P-1
CELL  1.54184   7.6219   9.3173  10.5299   65.050   85.345   66.686
ZERR     1.00   0.0004   0.0005   0.0006    0.006    0.004    0.005
LATT   1
SFAC  C    H    N    CU   O
UNIT  26 24 6 2 1
MERG   2
FMAP   2
PLAN   20
ACTA
BOND   $H
L.S.  10
WGHT    0.043900    0.473600
FVAR      81.26139  -0.28939   0.40158   0.33955
CU1   4    0.845779    0.175817    0.417368    11.00000    0.01963    0.02809 =
         0.02616   -0.01587    0.00294   -0.01184
N3    3    0.823343    0.321221    0.518137    11.00000    0.01854    0.02195 =
         0.02978   -0.01332    0.00408   -0.00909
N2    3    1.094093    0.111923    0.346317    11.00000    0.02154    0.03501 =
         0.02913   -0.02316    0.00786   -0.01491
N1    3    0.652830    0.139336    0.347749    11.00000    0.02027    0.03704 =
         0.02706   -0.02117    0.00597   -0.01391
C2    1    0.411016    0.086402    0.237579    11.00000    0.01972    0.02357 =
         0.02063   -0.01183    0.00208   -0.01051
C4    1    0.454869    0.044392    0.115935    11.00000    0.01908    0.01954 =
         0.02024   -0.00985    0.00017   -0.00682
C6    1    0.324648    0.016640    0.052589    11.00000    0.01715    0.02859 =
         0.02300   -0.01436    0.00518   -0.01165
AFIX  43
H6    2    0.205441    0.028700    0.086336    11.00000   -1.20000
AFIX   0
C1    1    0.541945    0.115165    0.299194    11.00000    0.02027    0.02265 =
         0.01882   -0.01134    0.00526   -0.00713
C3    1    1.237629    0.101203    0.296132    11.00000    0.02542    0.02046 =
         0.01926   -0.01166   -0.00087   -0.00994
C7    1    0.913383    0.247927    0.648249    11.00000    0.02543    0.02204 =
         0.03137   -0.01323    0.00054   -0.00899
AFIX  43
H7    2    0.976698    0.128281    0.692088    11.00000   -1.20000
AFIX   0
C5    1    0.631122    0.028279    0.058976    11.00000    0.02013    0.02676 =
         0.02373   -0.01389    0.00140   -0.01206
AFIX  43
H5    2    0.720075    0.048311    0.097250    11.00000   -1.20000
AFIX   0
C11   1    0.731336    0.495129    0.454569    11.00000    0.01983    0.02401 =
         0.03518   -0.01335    0.00822   -0.00904
C8    1    0.916570    0.341607    0.720219    11.00000    0.03399    0.03531 =
         0.03740   -0.02401    0.00143   -0.01321
AFIX  43
H8    2    0.980609    0.286723    0.810120    11.00000   -1.20000
AFIX   0
C9    1    0.821580    0.519342    0.654303    11.00000    0.04513    0.03264 =
         0.04587   -0.02827    0.00879   -0.01742
AFIX  43
H9    2    0.820634    0.586380    0.699598    11.00000   -1.20000
AFIX   0
C10   1    0.728982    0.595893    0.521957    11.00000    0.03097    0.02371 =
         0.05014   -0.01992    0.01222   -0.01191
AFIX  43
H10   2    0.664453    0.715364    0.477073    11.00000   -1.20000
AFIX   0
C12   1    0.635175    0.573079    0.309218    11.00000    0.03679    0.03016 =
         0.03824   -0.00712   -0.00058   -0.01235
AFIX  33
H12A  2    0.575185    0.696415    0.275331    11.00000   -1.50000
H12B  2    0.728941    0.543382    0.248029    11.00000   -1.50000
H12C  2    0.539584    0.529549    0.310855    11.00000   -1.50000
AFIX   0
HKLF    4

REM  thm742pic_a.res in P-1
REM R1 =  0.0336 for    2143 Fo > 4sig(Fo)  and  0.0385 for all    2403 data
REM    148 parameters refined using      0 restraints

END

WGHT      0.0418      0.5560

REM Highest difference peak  0.394,  deepest hole -0.485,  1-sigma level  0.068
Q1    1   0.4280  0.0837  0.1694  11.00000  0.05    0.39
Q2    1   0.6829  0.6509  0.2230  11.00000  0.05    0.32
Q3    1   0.9245  0.1634  0.3436  11.00000  0.05    0.32
Q4    1   0.7892  0.0999  0.3602  11.00000  0.05    0.32
Q5    1   0.8701  0.2888  0.4656  11.00000  0.05    0.31
Q6    1   0.4114  0.0171  0.0985  11.00000  0.05    0.29
Q7    1   0.5470  0.0221  0.0952  11.00000  0.05    0.28
Q8    1   1.0757  0.1392  0.2982  11.00000  0.05    0.28
Q9    1   1.1896  0.1079  0.3643  11.00000  0.05    0.27
Q10   1   0.4673  0.0584  0.2790  11.00000  0.05    0.26
Q11   1   0.3426  0.1818  0.2076  11.00000  0.05    0.26
Q12   1   0.5739  0.5121  0.2572  11.00000  0.05    0.26
Q13   1   0.6343 -0.0555  0.4748  11.00000  0.05    0.26
Q14   1   0.8464  0.5433  0.5622  11.00000  0.05    0.26
Q15   1   0.3460  0.0786  0.2562  11.00000  0.05    0.25
Q16   1   0.6578  0.7414  0.4244  11.00000  0.05    0.25
Q17   1   0.7618  0.1840  0.4969  11.00000  0.05    0.24
Q18   1   0.4732  0.6444  0.3017  11.00000  0.05    0.23
Q19   1   0.5286  0.7894  0.4491  11.00000  0.05    0.22
Q20   1   0.5313  0.9029  0.4832  11.00000  0.05    0.22
;
_shelx_res_checksum              13525
_shelx_hkl_file
;
  -7  -4   6  643603   40220                                                      603572   -0.35    0.00  1.0000
  -7  -3   5  177178   24211                                                      152419    0.42    0.00  1.0000
  -7  -3   6 1311713   65033                                                     1390167    0.46    0.00  1.0000
  -7  -3   7  743351   39252                                                      699812    0.35    0.00  1.0000
  -7  -2   5  398679   42014                                                      373803   -0.28    0.00  1.0000
  -7  -2   6  169073   31276                                                      151689   -0.30    0.00  1.0000
  -7  -2   7  314654   33353                                                      335465   -0.25    0.00  1.0000
  -7  -1   6  513158   44652                                                      500446    0.12    0.00  1.0000
  -7  -1   7   80278   21319                                                       80733    0.01    0.00  1.0000
  -7   0   7 1553195   68553                                                     1526656   -0.15    0.00  1.0000
  -6  -6  -7   77016   20590                                                       69212   -0.20    0.00  1.0000
  -6  -6   5  310050   33639                                                      307610   -0.03    0.00  1.0000
  -6  -5   4   79225   25356                                                       85846   -0.16    0.00  1.0000
  -6  -5   5    2507   18264                                                        2413   -0.01    0.00  1.0000
  -6  -5   6  747694   50518                                                      731945    0.13    0.00  1.0000
  -6  -4   4  689197   70768                                                      714620    0.21    0.00  1.0000
  -6  -4   5  703671   60741                                                      695908    0.06    0.00  1.0000
  -6  -4   6   70155   21206                                                       74155   -0.10    0.00  1.0000
  -6  -4   7  337334   36446                                                      321086   -0.19    0.00  1.0000
  -6  -3   4 1187880   82655                                                     1145650   -0.27    0.00  1.0000
  -6  -3   5 2312042  115687                                                     2364759   -0.24    0.00  1.0000
  -6  -3   6 1148563   79989                                                     1132760   -0.10    0.00  1.0000
  -6  -3   7  926918   62580                                                      921132    0.04    0.00  1.0000
  -6  -3   8    9536   16531                                                       10836    0.09    0.00  1.0000
  -6  -2   6 1078183   80533                                                     1133720    0.36    0.00  1.0000
  -6  -2   7 1266839   76366                                                     1232209    0.21    0.00  1.0000
  -6  -2   8  125157   24980                                                      128975    0.07    0.00  1.0000
  -6  -1   7  767035   65171                                                      796956   -0.23    0.00  1.0000
  -6  -1   8 1168169   69946                                                     1154090   -0.09    0.00  1.0000
  -6  -1   9 1822651   68486                                                     1827084   -0.02    0.00  1.0000
  -6   0   8      71   23460                                                      -17011   -0.12    0.00  1.0000
  -6   0   9  610112   44957                                                      628090   -0.16    0.00  1.0000
  -6   1   9   46759   18610                                                       37628    0.32    0.00  1.0000
  -6   2   9   42068   20424                                                       33063   -0.33    0.00  1.0000
  -5 -10  -4      10   21794                                                      -29123   -0.04    0.00  1.0000
  -5  -7  -8  455745   50988                                                      488381    0.33    0.00  1.0000
  -5  -6  -8  818832   65912                                                      872185   -0.40    0.00  1.0000
  -5  -6   3 1700477   92402                                                     1641405   -0.31    0.00  1.0000
  -5  -6   4  658472   64030                                                      708482   -0.42    0.00  1.0000
  -5  -6   5    1107   15773                                                        -242   -0.46    0.00  1.0000
  -5  -5  -8  790611   60473                                                      734872    0.44    0.00  1.0000
  -5  -5  -7  723638   60114                                                      786448    0.50    0.00  1.0000
  -5  -5   3 4186224  151079                                                     4230152    0.15    0.00  1.0000
  -5  -5   4 3245096  131163                                                     3178541    0.26    0.00  1.0000
  -5  -5   5 1394845   89478                                                     1452367    0.33    0.00  1.0000
  -5  -5   6  151772   31685                                                      135662    0.29    0.00  1.0000
  -5  -5   7  251041   33573                                                      263307    0.17    0.00  1.0000
  -5  -4  -6 1979100   89403                                                     2091091   -0.54    0.00  1.0000
  -5  -4   3  746154   70552                                                      752608   -0.05    0.00  1.0000
  -5  -4   4   64328   32594                                                       66412   -0.06    0.00  1.0000
  -5  -4   5 1223040   88558                                                     1205899   -0.11    0.00  1.0000
  -5  -4   6  707998   69927                                                      718876   -0.09    0.00  1.0000
  -5  -4   7  202940   36535                                                      203753    0.01    0.00  1.0000
  -5  -4   8  142720   25117                                                      136293    0.12    0.00  1.0000
  -5  -3   5   26317   36749                                                       26773    0.02    0.00  1.0000
  -5  -3   6   38009   33933                                                       36826    0.04    0.00  1.0000
  -5  -3   7   30337   25514                                                       30201   -0.01    0.00  1.0000
  -5  -3   8  598204   51859                                                      608530   -0.09    0.00  1.0000
  -5  -3   9  315446   30836                                                      304154   -0.14    0.00  1.0000
  -5  -2   6  802064   70941                                                      764227   -0.29    0.00  1.0000
  -5  -2   7 1001009   80722                                                     1043551   -0.29    0.00  1.0000
  -5  -2   8   10003   25359                                                        7233   -0.21    0.00  1.0000
  -5  -2   9   56830   18373                                                       53896   -0.09    0.00  1.0000
  -5  -1   8  370676   55122                                                      418485    0.53    0.00  1.0000
  -5  -1   9  134764   35875                                                      116042    0.36    0.00  1.0000
  -5  -1  10  110343   21399                                                      119344    0.18    0.00  1.0000
  -5   0   9  861073   68132                                                      919418   -0.43    0.00  1.0000
  -5   0  10 1224366   58590                                                     1179129   -0.28    0.00  1.0000
  -5   1  10  356895   40285                                                      378692    0.25    0.00  1.0000
  -5   2  10  212374   29564                                                      229131   -0.25    0.00  1.0000
  -5   3  10  960611   48331                                                      922525    0.27    0.00  1.0000
  -4 -11  -6 1149562   55404                                                     1166469    0.11    0.00  1.0000
  -4 -11  -5  464129   38578                                                      455089    0.09    0.00  1.0000
  -4 -11  -4  754090   48108                                                      763281    0.07    0.00  1.0000
  -4 -11  -3  618795   43412                                                      613549    0.05    0.00  1.0000
  -4 -11  -2   97439   18879                                                       98878    0.03    0.00  1.0000
  -4 -10  -6   98656   26970                                                      100830   -0.05    0.00  1.0000
  -4 -10  -5   44350   22109                                                       44668    0.01    0.00  1.0000
  -4 -10  -4  100812   34734                                                      100350   -0.01    0.00  1.0000
  -4  -9  -5 1728128   98158                                                     1695355   -0.17    0.00  1.0000
  -4  -8  -8 2002054   99239                                                     2016242    0.07    0.00  1.0000
  -4  -8   4  314365   27978                                                      315771    0.02    0.00  1.0000
  -4  -7  -9 1798435   91983                                                     1853333   -0.28    0.00  1.0000
  -4  -7  -8 5248356  156315                                                     5205123   -0.13    0.00  1.0000
  -4  -6  -9 1272256   80294                                                     1327788    0.33    0.00  1.0000
  -4  -6  -8  112760   28669                                                      119736    0.14    0.00  1.0000
  -4  -6   2 1206250   86071                                                     1210319   -0.03    0.00  1.0000
  -4  -6   3     106   21159                                                       -9907   -0.14    0.00  1.0000
  -4  -6   4   10933   23744                                                       14007   -0.19    0.00  1.0000
  -4  -6   5  472136   53829                                                      482679   -0.10    0.00  1.0000
  -4  -5  -9 2558319  109714                                                     2442738   -0.50    0.00  1.0000
  -4  -5  -8  809542   64685                                                      768129   -0.32    0.00  1.0000
  -4  -5  -7  376248   47935                                                      387434   -0.12    0.00  1.0000
  -4  -5   2 3561407  131052                                                     3547698    0.05    0.00  1.0000
  -4  -5   3 2228500  113122                                                     2253050    0.11    0.00  1.0000
  -4  -5   4 2823366  126226                                                     2786925    0.15    0.00  1.0000
  -4  -5   5  277213   51832                                                      284328    0.09    0.00  1.0000
  -4  -5   6   79756   40463                                                       78495   -0.03    0.00  1.0000
  -4  -5   7  501509   48951                                                      512741   -0.11    0.00  1.0000
  -4  -4  -9 1953498   98586                                                     2066461    0.55    0.00  1.0000
  -4  -4  -8 1057366   66523                                                      985423    0.49    0.00  1.0000
  -4  -4  -7 7115512  171494                                                     7254585    0.36    0.00  1.0000
  -4  -4   3  367964   48125                                                      359153   -0.10    0.00  1.0000
  -4  -4   4 2877699  129475                                                     2911894   -0.14    0.00  1.0000
  -4  -4   5 2131737  112588                                                     2102701   -0.14    0.00  1.0000
  -4  -4   6 1246932   92533                                                     1258539   -0.07    0.00  1.0000
  -4  -4   7  318774   52323                                                      319323    0.01    0.00  1.0000
  -4  -4   8  130854   25104                                                      131529    0.01    0.00  1.0000
  -4  -3  -7   86485   17653                                                       69390   -0.42    0.00  1.0000
  -4  -3  -6 1131843   64629                                                     1192519   -0.39    0.00  1.0000
  -4  -3  -1 1998015   81472                                                     2097441   -0.48    0.00  1.0000
  -4  -3   4      35   28767                                                      -12252    0.08    0.00  1.0000
  -4  -3   5 1478337   96105                                                     1506696    0.16    0.00  1.0000
  -4  -3   6 2773309  130916                                                     2722975    0.21    0.00  1.0000
  -4  -3   7 1962364  113375                                                     1997332    0.17    0.00  1.0000
  -4  -3   8   23399   26955                                                       25284    0.08    0.00  1.0000
  -4  -3   9  334576   36886                                                      337926    0.04    0.00  1.0000
  -4  -2  -8 1279820   95207                                                     1344188    0.39    0.00  1.0000
  -4  -2   0  298054   34388                                                      351640    0.65    0.00  1.0000
  -4  -2   0  267459   34362                                                      318337    0.65    0.00  1.0000
  -4  -2   6  106588   40648                                                       97442   -0.20    0.00  1.0000
  -4  -2   7  202207   47967                                                      185438   -0.26    0.00  1.0000
  -4  -2   8  206728   52890                                                      193763   -0.20    0.00  1.0000
  -4  -2   9  655926   56658                                                      649079   -0.06    0.00  1.0000
  -4  -2  10  642632   41208                                                      638097    0.04    0.00  1.0000
  -4  -1  -7 2120690  130150                                                     2193940   -0.34    0.00  1.0000
  -4  -1  -6 3484056  148717                                                     3406080   -0.29    0.00  1.0000
  -4  -1  -5 2876149  129061                                                     2965693   -0.36    0.00  1.0000
  -4  -1  -4  733482   64063                                                      796861   -0.50    0.00  1.0000
  -4  -1   8  258259   60969                                                      271594    0.18    0.00  1.0000
  -4  -1   9   28812   30497                                                       31999    0.13    0.00  1.0000
  -4  -1  10  193568   34422                                                      192985    0.01    0.00  1.0000
  -4   0  -7   44957   36015                                                       63832    0.56    0.00  1.0000
  -4   0  -6  485273   60928                                                      535497    0.48    0.00  1.0000
  -4   0  -5 3422503  149445                                                     3306140    0.44    0.00  1.0000
  -4   0  -4 2683310  125841                                                     2794335    0.46    0.00  1.0000
  -4   0  -3 5693066  159220                                                     5526320    0.48    0.00  1.0000
  -4   0   9 1133843   82702                                                     1142600   -0.06    0.00  1.0000
  -4   0  10  396226   45346                                                      390877   -0.06    0.00  1.0000
  -4   1  -6  337694   54951                                                      404719   -0.76    0.00  1.0000
  -4   1  -5  767993   80184                                                      859631   -0.70    0.00  1.0000
  -4   1  -4 1641755  102165                                                     1521886   -0.66    0.00  1.0000
  -4   1  -3 5708501  185365                                                     5916307   -0.59    0.00  1.0000
  -4   1  -2 5157992  163026                                                     5017865   -0.43    0.00  1.0000
  -4   1  -1 2983392  118615                                                     3038263   -0.22    0.00  1.0000
  -4   1  10 3957826  127553                                                     3953304   -0.02    0.00  1.0000
  -4   1  11 1646183   60615                                                     1649815   -0.02    0.00  1.0000
  -4   2  -5  159969   42130                                                      206703    0.75    0.00  1.0000
  -4   2  -4  276278   50128                                                      219991    0.78    0.00  1.0000
  -4   2  -3   85192   28594                                                       54270    0.81    0.00  1.0000
  -4   2  -2 1134185   88922                                                     1251939    0.74    0.00  1.0000
  -4   2  -1 4557213  159325                                                     4405510    0.49    0.00  1.0000
  -4   2   0 3762063  142860                                                     3811736    0.18    0.00  1.0000
  -4   2   1 5294631  160329                                                     5291472    0.01    0.00  1.0000
  -4   2  10  204610   35940                                                      208881    0.06    0.00  1.0000
  -4   2  11  381473   32466                                                      374616    0.08    0.00  1.0000
  -4   3  -3 1723903  109289                                                     1573666   -0.80    0.00  1.0000
  -4   3  -2  250035   47425                                                      321045   -0.92    0.00  1.0000
  -4   3  -1  564685   67901                                                      666039   -0.89    0.00  1.0000
  -4   3   0  607257   65318                                                      529674   -0.71    0.00  1.0000
  -4   3   1 3421023  149067                                                     3553718   -0.49    0.00  1.0000
  -4   3   2 1397814   97592                                                     1336378   -0.36    0.00  1.0000
  -4   3   3  357946   56515                                                      389885   -0.36    0.00  1.0000
  -4   4  -2  990118   81349                                                      866151    0.89    0.00  1.0000
  -4   4  -1  283845   50758                                                      363000    0.96    0.00  1.0000
  -4   4   0  525508   60066                                                      430646    0.94    0.00  1.0000
  -4   4   1  681681   68333                                                      578714    0.89    0.00  1.0000
  -4   4   2 1973156  123564                                                     2148961    0.84    0.00  1.0000
  -4   4   3 1655161  106375                                                     1512876    0.78    0.00  1.0000
  -4   4   4 1653972  114490                                                     1783364    0.68    0.00  1.0000
  -4   5   1  683133   63833                                                      586127   -0.84    0.00  1.0000
  -4   5   2   75787   36137                                                      114595   -0.87    0.00  1.0000
  -4   5   3   10971   21428                                                       28415   -0.88    0.00  1.0000
  -3 -11  -7  322834   29291                                                      322670    0.00    0.00  1.0000
  -3 -11  -6   60052   13077                                                       58399   -0.05    0.00  1.0000
  -3 -11  -5 2727212   94391                                                     2728635   -0.01    0.00  1.0000
  -3 -11  -4  810301   52937                                                      821870    0.09    0.00  1.0000
  -3 -11  -3  198948   26543                                                      188130    0.17    0.00  1.0000
  -3 -11  -2  103501   18757                                                       93828    0.21    0.00  1.0000
  -3 -10  -7   13474   19914                                                       13215   -0.02    0.00  1.0000
  -3 -10  -6 1360613   84643                                                     1357478    0.02    0.00  1.0000
  -3 -10  -5 1176601   80921                                                     1177899   -0.01    0.00  1.0000
  -3 -10  -4 3191941  129985                                                     3167571   -0.09    0.00  1.0000
  -3 -10  -3 3343419  132524                                                     3391169   -0.18    0.00  1.0000
  -3 -10   1  180987   22406                                                      173349   -0.13    0.00  1.0000
  -3  -9  -7  358115   53230                                                      345012   -0.15    0.00  1.0000
  -3  -9  -6 4944189  167816                                                     4977145   -0.10    0.00  1.0000
  -3  -9  -5  568312   66211                                                      564336   -0.04    0.00  1.0000
  -3  -9   1    1561   13815                                                        1861    0.05    0.00  1.0000
  -3  -9   2  264347   33225                                                      258777    0.07    0.00  1.0000
  -3  -8  -8  384953   48654                                                      417169    0.35    0.00  1.0000
  -3  -8  -6 5459655  174560                                                     5403871    0.16    0.00  1.0000
  -3  -8  -5 5935214  188104                                                     5938736    0.01    0.00  1.0000
  -3  -8   3  311772   39544                                                      329123   -0.21    0.00  1.0000
  -3  -8   4   85868   15275                                                       75111   -0.26    0.00  1.0000
  -3  -7  -9 1006681   75598                                                     1068020   -0.41    0.00  1.0000
  -3  -7  -8  385902   50248                                                      365406   -0.23    0.00  1.0000
  -3  -7   6   19429    9362                                                       23726    0.20    0.00  1.0000
  -3  -6 -10   58673   21990                                                       40117    0.58    0.00  1.0000
  -3  -6  -9   45178   26333                                                       34390    0.38    0.00  1.0000
  -3  -6  -8   11753   21332                                                       11701    0.07    0.00  1.0000
  -3  -6   1 1923160   94465                                                     1853543   -0.35    0.00  1.0000
  -3  -6   2   18003   13719                                                       13350   -0.26    0.00  1.0000
  -3  -6   3  322646   50182                                                      329954   -0.09    0.00  1.0000
  -3  -6   4 1659901  101107                                                     1674045    0.08    0.00  1.0000
  -3  -6   5    6007   36216                                                        4520    0.15    0.00  1.0000
  -3  -5 -10 1891173  101012                                                     1969182   -0.39    0.00  1.0000
  -3  -5  -9 1506108   86456                                                     1452177   -0.30    0.00  1.0000
  -3  -5  -8 3289311  122196                                                     3302660   -0.05    0.00  1.0000
  -3  -5  -7 4656076  136061                                                     4596639    0.19    0.00  1.0000
  -3  -5   3 1067188   76038                                                     1053561   -0.09    0.00  1.0000
  -3  -5   4  130428   43750                                                      118798   -0.23    0.00  1.0000
  -3  -5   5  425518   58845                                                      456208   -0.32    0.00  1.0000
  -3  -5   6 1825498  101838                                                     1760324   -0.33    0.00  1.0000
  -3  -5   7 2205174   99665                                                     2267730   -0.29    0.00  1.0000
  -3  -4 -10  175890   30798                                                      166483    0.16    0.00  1.0000
  -3  -4  -9  138461   31079                                                      143859    0.10    0.00  1.0000
  -3  -4  -8 8887677  197695                                                     8895709   -0.02    0.00  1.0000
  -3  -4  -7 1119678   68750                                                     1098530   -0.14    0.00  1.0000
  -3  -4  -3 7478345  133291                                                     7055796    1.08    0.00  1.0000
  -3  -4  -3 6661080  121639                                                     6262634    1.08    0.00  1.0000
  -3  -4  -214291637  204005                                                    14991864    1.26    0.00  1.0000
  -3  -4  -214722579  216020                                                    15433160    1.26    0.00  1.0000
  -3  -4   4  624154   63008                                                      582914    0.37    0.00  1.0000
  -3  -4   5  642764   71559                                                      679829    0.31    0.00  1.0000
  -3  -4   6  880148   80286                                                      840711    0.29    0.00  1.0000
  -3  -4   7  420086   64628                                                      449034    0.30    0.00  1.0000
  -3  -4   8   42220   27673                                                       34220    0.29    0.00  1.0000
  -3  -3  -9  272271   36695                                                      267847    0.06    0.00  1.0000
  -3  -3  -8 9965380  208596                                                     9886920    0.17    0.00  1.0000
  -3  -3  -7 9986934  193773                                                    10077309    0.20    0.00  1.0000
  -3  -3  -6 8206290  159131                                                     8172386    0.08    0.00  1.0000
  -3  -3  -3     272    8784                                                        4386   -1.02    0.00  1.0000
  -3  -3  -2 7154408  109411                                                     6627120   -1.38    0.00  1.0000
  -3  -3  -2 6984271  114156                                                     6463412   -1.38    0.00  1.0000
  -3  -3  -1 3159591   98918                                                     3571748   -1.55    0.00  1.0000
  -3  -3  -1 3168687   93510                                                     3581418   -1.55    0.00  1.0000
  -3  -3   0 5032880  123447                                                     4558109   -1.49    0.00  1.0000
  -3  -3   0 5270836  118560                                                     4784697   -1.49    0.00  1.0000
  -3  -3   5 2124340  107453                                                     2021632   -0.49    0.00  1.0000
  -3  -3   6 2074524  117183                                                     2141211   -0.32    0.00  1.0000
  -3  -3   7  514065   65337                                                      486915   -0.26    0.00  1.0000
  -3  -3   8  459038   61794                                                      489422   -0.30    0.00  1.0000
  -3  -3   9 1238853   73999                                                     1287938   -0.30    0.00  1.0000
  -3  -2  -7 1788093   79866                                                     1747484   -0.21    0.00  1.0000
  -3  -2  -6 4668811  117605                                                     4697298   -0.09    0.00  1.0000
  -3  -2  -5 4001598   98602                                                     4051243    0.17    0.00  1.0000
  -3  -2  -2  261257   19579                                                      359667    1.22    0.00  1.0000
  -3  -2  -2  251972   18074                                                      348758    1.22    0.00  1.0000
  -3  -2  -1  215004   20274                                                      125045    1.52    0.00  1.0000
  -3  -2   0 5850857  127478                                                     6460122    1.69    0.00  1.0000
  -3  -2   6  815888   70197                                                      751067    0.50    0.00  1.0000
  -3  -2   7 1713387  108785                                                     1774394    0.32    0.00  1.0000
  -3  -2   8 5591443  185334                                                     5504390    0.25    0.00  1.0000
  -3  -2   9   39317   32948                                                       47417    0.27    0.00  1.0000
  -3  -2  10  114081   26132                                                      126440    0.25    0.00  1.0000
  -3  -2  10   58431   13423                                                       67366    0.25    0.00  1.0000
  -3  -1  -4 1393749   51561                                                     1463577   -0.40    0.00  1.0000
  -3  -1  -1 4091878   65447                                                     3778866   -1.08    0.00  1.0000
  -3  -1  -1 4145096   64593                                                     3830015   -1.08    0.00  1.0000
  -3  -1   0  839831   34763                                                      675082   -1.30    0.00  1.0000
  -3  -1   1  798547   48894                                                      995558   -1.43    0.00  1.0000
  -3  -1   2 6597026  132474                                                     6094675   -1.37    0.00  1.0000
  -3  -1   7  233113   51080                                                      260735   -0.38    0.00  1.0000
  -3  -1   8 4643312  176027                                                     4712948   -0.22    0.00  1.0000
  -3  -1   9 1631496   99390                                                     1604716   -0.14    0.00  1.0000
  -3  -1  10 1280454   74967                                                     1303468   -0.14    0.00  1.0000
  -3   0  -8  827521   90467                                                      813249   -0.11    0.00  1.0000
  -3   0  -7 1305706  101846                                                     1293168    0.08    0.00  1.0000
  -3   0  -3 1498110   80365                                                     1570436    0.40    0.00  1.0000
  -3   0  -2 2110578   79676                                                     2019442    0.44    0.00  1.0000
  -3   0  -1 8494594  141983                                                     8673981    0.42    0.00  1.0000
  -3   0  -1 6534914   60716                                                     6692369    0.42    0.00  1.0000
  -3   0   0 6938961  110974                                                     6773839    0.43    0.00  1.0000
  -3   0   0 7099299  108362                                                     6932267    0.43    0.00  1.0000
  -3   0   116502489  185248                                                    16822148    0.54    0.00  1.0000
  -3   0   2  329354   29223                                                      276028    0.67    0.00  1.0000
  -3   0   9  520733   66800                                                      535497    0.14    0.00  1.0000
  -3   0  10  758972   61385                                                      745121    0.11    0.00  1.0000
  -3   0  11   47524   14023                                                       51024    0.11    0.00  1.0000
  -3   1  -7  435113   61892                                                      436163   -0.01    0.00  1.0000
  -3   1  -6  604891   71326                                                      582053   -0.20    0.00  1.0000
  -3   1  -5   76459   35949                                                       90137   -0.33    0.00  1.0000
  -3   1  -4 3442628  140640                                                     3344200   -0.37    0.00  1.0000
  -3   1  -3 1757429   97530                                                     1829693   -0.37    0.00  1.0000
  -3   1  -2 1971744   89032                                                     1905773   -0.33    0.00  1.0000
  -3   1  -1  722158   52963                                                      703005   -0.16    0.00  1.0000
  -3   1   0 4246685  112827                                                     4213032    0.11    0.00  1.0000
  -3   1   115152588  204405                                                    15326561    0.31    0.00  1.0000
  -3   1   2 2215509   76808                                                     2155161    0.28    0.00  1.0000
  -3   1   3 2723580   88976                                                     2745435    0.09    0.00  1.0000
  -3   1  10   22465   27278                                                       19253   -0.15    0.00  1.0000
  -3   1  11   52541   19691                                                       58613   -0.18    0.00  1.0000
  -3   2  -6   30445   19360                                                       30495    0.00    0.00  1.0000
  -3   2  -5  222877   51246                                                      210457    0.18    0.00  1.0000
  -3   2  -4 6658347  216528                                                     6783509    0.33    0.00  1.0000
  -3   2  -3 5381789  178492                                                     5238443    0.43    0.00  1.0000
  -3   2  -2 5338064  171340                                                     5499920    0.48    0.00  1.0000
  -3   2  -1 2028555   98810                                                     1943652    0.41    0.00  1.0000
  -3   2   0 4224052  136143                                                     4271482    0.16    0.00  1.0000
  -3   2   1   33915   23944                                                       40102   -0.22    0.00  1.0000
  -3   2   2   49986   26275                                                       35598   -0.51    0.00  1.0000
  -3   2   3 2936099  105417                                                     2803565   -0.54    0.00  1.0000
  -3   2   4 8104747  182394                                                     8260396   -0.37    0.00  1.0000
  -3   2  10  247268   44170                                                      247607    0.00    0.00  1.0000
  -3   2  11  100922   29426                                                       96596    0.10    0.00  1.0000
  -3   3  -5 3416444  163970                                                     3413919   -0.01    0.00  1.0000
  -3   3  -4 2558032  149803                                                     2598737   -0.17    0.00  1.0000
  -3   3  -3 1490958  105183                                                     1435447   -0.32    0.00  1.0000
  -3   3  -2  551343   58838                                                      506824   -0.42    0.00  1.0000
  -3   3  -1 2837973  136620                                                     2956683   -0.48    0.00  1.0000
  -3   3   0 5323599  173092                                                     5180833   -0.43    0.00  1.0000
  -3   3   1     586   18047                                                        1509   -0.22    0.00  1.0000
  -3   3   2      36   21219                                                       -2538    0.08    0.00  1.0000
  -3   3   3     527   15331                                                        -101    0.32    0.00  1.0000
  -3   3   4 1140333   77070                                                     1083110    0.37    0.00  1.0000
  -3   3  11  104817   23581                                                       99209    0.12    0.00  1.0000
  -3   4  -4  493589   69340                                                      486750    0.07    0.00  1.0000
  -3   4  -3  222884   52040                                                      231920    0.13    0.00  1.0000
  -3   4  -2     157   35432                                                      -33048    0.17    0.00  1.0000
  -3   4  -1   17817   32503                                                       21505    0.18    0.00  1.0000
  -3   4   0 1517684  105177                                                     1546536    0.16    0.00  1.0000
  -3   4   1 1460475   98524                                                     1442317    0.10    0.00  1.0000
  -3   4   2 5264054  185672                                                     5266593    0.01    0.00  1.0000
  -3   4   3 4914576  176085                                                     4947785   -0.10    0.00  1.0000
  -3   4   4  998719   78421                                                      972785   -0.18    0.00  1.0000
  -3   4   5  200662   44358                                                      213134   -0.19    0.00  1.0000
  -3   4   9  801464   76705                                                      799034   -0.02    0.00  1.0000
  -3   5  -2 1202311  102115                                                     1203729   -0.01    0.00  1.0000
  -3   5  -1 1056124   97121                                                     1062990    0.05    0.00  1.0000
  -3   5   0   47340   30487                                                       51790    0.14    0.00  1.0000
  -3   5   1   33162   27341                                                       39712    0.24    0.00  1.0000
  -3   5   2   43336   27858                                                       51945    0.27    0.00  1.0000
  -3   5   3 2099199  125571                                                     2051791    0.23    0.00  1.0000
  -3   5   4 6028151  212321                                                     6078345    0.14    0.00  1.0000
  -3   5   510740219  274930                                                    10702203    0.08    0.00  1.0000
  -3   6   1 1756573  114503                                                     1687985   -0.36    0.00  1.0000
  -3   6   2 1149065  102603                                                     1223559   -0.47    0.00  1.0000
  -3   6   3  199090   49364                                                      172186   -0.43    0.00  1.0000
  -3   6   4   87842   32764                                                       98756   -0.25    0.00  1.0000
  -3   6   5  696476   73850                                                      703464   -0.06    0.00  1.0000
  -2 -11  -7  337546   30584                                                      337662    0.00    0.00  1.0000
  -2 -11  -6  443857   37526                                                      429576   -0.15    0.00  1.0000
  -2 -11  -5  207021   31264                                                      190890   -0.25    0.00  1.0000
  -2 -11  -4   37456   14170                                                       30964   -0.24    0.00  1.0000
  -2 -11  -3     199   12330                                                       -6237   -0.19    0.00  1.0000
  -2 -10  -9  124565   22362                                                      142585    0.34    0.00  1.0000
  -2 -10  -8  224386   35005                                                      249422    0.35    0.00  1.0000
  -2 -10  -7  831578   58845                                                      777655    0.41    0.00  1.0000
  -2 -10  -6 3129341  128108                                                     3277531    0.57    0.00  1.0000
  -2 -10  -5  289682   40037                                                      234094    0.75    0.00  1.0000
  -2 -10  -4  717981   69750                                                      826580    0.85    0.00  1.0000
  -2 -10  -3  110476   39638                                                       74080    0.83    0.00  1.0000
  -2 -10  -2    9506   14667                                                        1819    0.76    0.00  1.0000
  -2 -10  -1  390620   40489                                                      454845    0.68    0.00  1.0000
  -2 -10   0 1062517   52589                                                      979486    0.57    0.00  1.0000
  -2  -9  -9 1627888   81240                                                     1535456   -0.51    0.00  1.0000
  -2  -9  -8 1281734   85580                                                     1376018   -0.56    0.00  1.0000
  -2  -9  -7  760593   69314                                                      681549   -0.64    0.00  1.0000
  -2  -9  -6 1320684   90102                                                     1194269   -0.78    0.00  1.0000
  -2  -9  -5  223368   55815                                                      293623   -0.95    0.00  1.0000
  -2  -9  -4 1173774   86536                                                     1006351   -1.10    0.00  1.0000
  -2  -9  -1  599693   58398                                                      723907   -1.05    0.00  1.0000
  -2  -9   0  154182   35529                                                      210075   -0.90    0.00  1.0000
  -2  -9   1  318634   38719                                                      265692   -0.67    0.00  1.0000
  -2  -9   2  434603   39138                                                      474661   -0.41    0.00  1.0000
  -2  -8  -8 1283615   88381                                                     1230019    0.33    0.00  1.0000
  -2  -8  -8 1314717   76803                                                     1260469    0.33    0.00  1.0000
  -2  -8  -7 3455057  123860                                                     3564578    0.40    0.00  1.0000
  -2  -8  -7 3438252  146905                                                     3547508    0.40    0.00  1.0000
  -2  -8  -6  246489   49599                                                      206495    0.58    0.00  1.0000
  -2  -8  -5 2534955  133226                                                     2716916    0.77    0.00  1.0000
  -2  -8  -1 5323633  166337                                                     5014505    0.93    0.00  1.0000
  -2  -8   0  770264   79338                                                      892640    0.92    0.00  1.0000
  -2  -8   1   37450   39528                                                       18340    0.81    0.00  1.0000
  -2  -8   2  157282   30859                                                      124418    0.60    0.00  1.0000
  -2  -8   3  527119   54759                                                      570444    0.40    0.00  1.0000
  -2  -8   4  333370   34361                                                      309464    0.29    0.00  1.0000
  -2  -7  -9  663660   66585                                                      701381   -0.31    0.00  1.0000
  -2  -7  -8   49655   31516                                                       47076   -0.08    0.00  1.0000
  -2  -7  -7 2512214  103523                                                     2496188   -0.07    0.00  1.0000
  -2  -7  -7 2467952  119803                                                     2452068   -0.07    0.00  1.0000
  -2  -7  -6  609377   64153                                                      648975   -0.34    0.00  1.0000
  -2  -7  -5 3299529  133292                                                     3107302   -0.74    0.00  1.0000
  -2  -7  -1 3452765  143097                                                     3714746   -0.95    0.00  1.0000
  -2  -7   5    1371   19155                                                       -3114   -0.51    0.00  1.0000
  -2  -7   6  456511   34667                                                      496846   -0.40    0.00  1.0000
  -2  -6 -10 2131810  111141                                                     2235070    0.48    0.00  1.0000
  -2  -6  -9 3513049  130421                                                     3421039    0.34    0.00  1.0000
  -2  -6  -8 4231081  138466                                                     4264522    0.11    0.00  1.0000
  -2  -6  -7   24683   23328                                                       24671    0.00    0.00  1.0000
  -2  -6   2  914614   84427                                                     1137950    1.52    0.00  1.0000
  -2  -6   7   41973   20649                                                       57532    0.48    0.00  1.0000
  -2  -5 -10  483862   56465                                                      515496   -0.31    0.00  1.0000
  -2  -5  -9  366762   47191                                                      344527   -0.26    0.00  1.0000
  -2  -5  -8 1254716   78487                                                     1220699   -0.21    0.00  1.0000
  -2  -5  -7  843185   63122                                                      864607   -0.16    0.00  1.0000
  -2  -5   3  641572   71696                                                      835921   -1.56    0.00  1.0000
  -2  -5   4  113435   34786                                                       66867   -1.09    0.00  1.0000
  -2  -5   5 1254286   95978                                                     1381758   -0.76    0.00  1.0000
  -2  -5   5 1349395   98368                                                     1481497   -0.76    0.00  1.0000
  -2  -5   6 1447269   89619                                                     1335668   -0.65    0.00  1.0000
  -2  -5   6 1455045   87295                                                     1343138   -0.65    0.00  1.0000
  -2  -5   7  999499   67716                                                     1084830   -0.57    0.00  1.0000
  -2  -4 -10 1423769   90708                                                     1381888    0.24    0.00  1.0000
  -2  -4  -9  147129   37004                                                      152313    0.09    0.00  1.0000
  -2  -4  -8 3615095  127109                                                     3646167    0.11    0.00  1.0000
  -2  -4  -7  631543   49123                                                      607194    0.21    0.00  1.0000
  -2  -4  -422891440  218304                                                    23368288    0.68    0.00  1.0000
  -2  -4  -2   10911   12462                                                        2424    2.11    0.00  1.0000
  -2  -4  -1 1361550   79491                                                     1837043    2.59    0.00  1.0000
  -2  -4   4 1017934   73653                                                      853474    1.17    0.00  1.0000
  -2  -4   5  182303   32586                                                      137714    0.77    0.00  1.0000
  -2  -4   6 1218201   96041                                                     1308208    0.55    0.00  1.0000
  -2  -4   7 1702396   96481                                                     1611085    0.49    0.00  1.0000
  -2  -4   7 1975082  103662                                                     1876633    0.49    0.00  1.0000
  -2  -4   8  879176   60648                                                      934470    0.40    0.00  1.0000
  -2  -3 -10  380935   55592                                                      408430   -0.30    0.00  1.0000
  -2  -3  -9 4256693  150485                                                     4232712   -0.08    0.00  1.0000
  -2  -3  -8 3560785  125459                                                     3563768   -0.01    0.00  1.0000
  -2  -3  -711294599  198076                                                    11240698   -0.11    0.00  1.0000
  -2  -3  -6 1923384   76771                                                     1973182   -0.25    0.00  1.0000
  -2  -3  -415406276  134009                                                    15138263   -0.47    0.00  1.0000
  -2  -3  -2  200284   19624                                                      112333   -1.56    0.00  1.0000
  -2  -3  -1 1123255   61289                                                     1483017   -2.17    0.00  1.0000
  -2  -3   0   28876   13057                                                         465   -2.38    0.00  1.0000
  -2  -3   0   29880   16048                                                       -1149   -2.38    0.00  1.0000
  -2  -3   1 1083685   53887                                                      785249   -2.13    0.00  1.0000
  -2  -3   1 1109894   52129                                                      807583   -2.13    0.00  1.0000
  -2  -3   5 2708660  118141                                                     2528617   -0.77    0.00  1.0000
  -2  -3   5 2794416  134842                                                     2611496   -0.77    0.00  1.0000
  -2  -3   6 1001013   97529                                                     1078780   -0.52    0.00  1.0000
  -2  -3   6  991795   84284                                                     1069210   -0.52    0.00  1.0000
  -2  -3   7   15114   36629                                                       22662   -0.38    0.00  1.0000
  -2  -3   8  983793   77473                                                      938560   -0.32    0.00  1.0000
  -2  -3   9  224091   40495                                                      240178   -0.23    0.00  1.0000
  -2  -3   9  308776   43552                                                      327611   -0.23    0.00  1.0000
  -2  -2  -9  977300   76968                                                     1011681    0.24    0.00  1.0000
  -2  -2  -8  213919   34448                                                      201358    0.19    0.00  1.0000
  -2  -2  -7 5463455  141033                                                     5541880    0.23    0.00  1.0000
  -2  -2  -611439857  176160                                                    11280498    0.33    0.00  1.0000
  -2  -2  -511045716  155999                                                    11253798    0.43    0.00  1.0000
  -2  -2  -312123589   70261                                                    11736594    0.77    0.00  1.0000
  -2  -2  -311998574   68377                                                    11613595    0.77    0.00  1.0000
  -2  -2  -2 8916872   98380                                                     9402795    1.10    0.00  1.0000
  -2  -2  -2 9327970   91841                                                     9824821    1.10    0.00  1.0000
  -2  -2  -1 1578239   42572                                                     1329448    1.42    0.00  1.0000
  -2  -2  -1 1564115   46531                                                     1316488    1.42    0.00  1.0000
  -2  -2   0 1328889   45098                                                     1088470    1.51    0.00  1.0000
  -2  -2   0 1307191   48205                                                     1068840    1.51    0.00  1.0000
  -2  -2   1  256561   34939                                                      358224    1.28    0.00  1.0000
  -2  -2   1  257068   31105                                                      358823    1.28    0.00  1.0000
  -2  -2   2  434313   40980                                                      522511    0.88    0.00  1.0000
  -2  -2   6 8045483  204599                                                     7932738    0.27    0.00  1.0000
  -2  -2   6 8310125  234040                                                     8195536    0.27    0.00  1.0000
  -2  -2   7 2026039  115442                                                     2055231    0.14    0.00  1.0000
  -2  -2   7 1998051  128554                                                     2027042    0.14    0.00  1.0000
  -2  -2   8  146489   40929                                                      150021    0.06    0.00  1.0000
  -2  -2   8   51781   43301                                                       53889    0.06    0.00  1.0000
  -2  -2   9   59947   28442                                                       57722    0.06    0.00  1.0000
  -2  -2  10  660910   48421                                                      669112    0.07    0.00  1.0000
  -2  -2  10  681326   50257                                                      689653    0.07    0.00  1.0000
  -2  -1  -8 1446673   82930                                                     1357748   -0.52    0.00  1.0000
  -2  -1  -7  112341   23244                                                       84139   -0.62    0.00  1.0000
  -2  -1  -6 3413183  104146                                                     3604697   -0.70    0.00  1.0000
  -2  -1  -5 4523004   97200                                                     4287751   -0.77    0.00  1.0000
  -2  -1  -4 2042924   61328                                                     2229570   -0.88    0.00  1.0000
  -2  -1  -1 3111474   51403                                                     3379040   -1.02    0.00  1.0000
  -2  -1   7 2508480  121132                                                     2576147    0.29    0.00  1.0000
  -2  -1   7 2679920  140543                                                     2749845    0.29    0.00  1.0000
  -2  -1   8  976480   84087                                                      936891    0.28    0.00  1.0000
  -2  -1   8  940816   94654                                                      901964    0.28    0.00  1.0000
  -2  -1   9 1229477   90674                                                     1260859    0.19    0.00  1.0000
  -2  -1   9 1299876   99294                                                     1332138    0.19    0.00  1.0000
  -2  -1  10  118825   30401                                                      115615    0.06    0.00  1.0000
  -2  -1  10  111732   31993                                                      108620    0.06    0.00  1.0000
  -2   0  -9  505829   69824                                                      450604    0.55    0.00  1.0000
  -2   0  -5 3243026   95010                                                     3572458    1.23    0.00  1.0000
  -2   0  -420575412  184821                                                    19713222    1.32    0.00  1.0000
  -2   0  -310488913  114511                                                    11185099    1.45    0.00  1.0000
  -2   0  -1 1017748   47138                                                     1225079    1.35    0.00  1.0000
  -2   0  -1  846142   19142                                                     1036031    1.35    0.00  1.0000
  -2   0   0 7331121   85779                                                     7027677    0.78    0.00  1.0000
  -2   0   122313158  181347                                                    22325798    0.02    0.00  1.0000
  -2   0   217846954  190898                                                    18208136   -0.58    0.00  1.0000
  -2   0   3 3563131  100953                                                     3797305   -0.84    0.00  1.0000
  -2   0   7 3106270  137290                                                     2934214   -0.68    0.00  1.0000
  -2   0   8 1152702   90454                                                     1238939   -0.54    0.00  1.0000
  -2   0   8 1315971  102745                                                     1408007   -0.54    0.00  1.0000
  -2   0   9 2205104  129461                                                     2136241   -0.32    0.00  1.0000
  -2   0   9 2140541  113348                                                     2072701   -0.32    0.00  1.0000
  -2   0  10 1526189   87186                                                     1543636   -0.10    0.00  1.0000
  -2   0  10 1369537   93319                                                     1386068   -0.10    0.00  1.0000
  -2   0  11  268146   32172                                                      271796    0.05    0.00  1.0000
  -2   1  -8  476609   59802                                                      413531   -0.65    0.00  1.0000
  -2   1  -7 2490009  148710                                                     2695886   -0.88    0.00  1.0000
  -2   1  -2  592153   55710                                                      828123   -1.93    0.00  1.0000
  -2   1  -1 4871287  106385                                                     4282071   -1.89    0.00  1.0000
  -2   1  -1 5107815   66313                                                     4504009   -1.89    0.00  1.0000
  -2   1   0 6380501  122936                                                     6940987   -1.49    0.00  1.0000
  -2   1   0 6682512   92567                                                     7255835   -1.49    0.00  1.0000
  -2   1   1 1725986   58049                                                     1589376   -0.73    0.00  1.0000
  -2   1   2 3683143   84922                                                     3661537    0.08    0.00  1.0000
  -2   1   2 3571714   88952                                                     3550438    0.08    0.00  1.0000
  -2   1   3  108160   22508                                                      137631    0.58    0.00  1.0000
  -2   1   3  102088   23854                                                      130770    0.58    0.00  1.0000
  -2   1   4 1608572   66772                                                     1744394    0.72    0.00  1.0000
  -2   1   511089626  179990                                                    10739403    0.73    0.00  1.0000
  -2   1   7 2222174  120393                                                     2045242    0.83    0.00  1.0000
  -2   1   8  603421   75953                                                      687656    0.72    0.00  1.0000
  -2   1   9  488126   71388                                                      532388    0.43    0.00  1.0000
  -2   1   9  480130   64555                                                      524035    0.43    0.00  1.0000
  -2   1  10 1119695   78820                                                     1104760    0.10    0.00  1.0000
  -2   1  10 1288283   95555                                                     1272259    0.10    0.00  1.0000
  -2   1  11  475644   51462                                                      465278   -0.10    0.00  1.0000
  -2   2  -7  153935   38182                                                      114611    0.74    0.00  1.0000
  -2   2  -6 1493422  122374                                                     1681185    1.03    0.00  1.0000
  -2   2  -5 4681449  176554                                                     4248632    1.41    0.00  1.0000
  -2   2  -4 1860146  123076                                                     2224480    1.76    0.00  1.0000
  -2   2  -3 1915810   94010                                                     1541326    1.96    0.00  1.0000
  -2   2  -2  866206   73703                                                     1167789    2.06    0.00  1.0000
  -2   2  -1    4728   21190                                                        7034    2.10    0.00  1.0000
  -2   2   0  272772   30045                                                      144292    1.96    0.00  1.0000
  -2   2   0  268045   23846                                                      140858    1.96    0.00  1.0000
  -2   2   1 1018168   52821                                                     1252719    1.52    0.00  1.0000
  -2   2   1  918327   62619                                                     1141690    1.52    0.00  1.0000
  -2   2   214264114  202114                                                    13820975    0.81    0.00  1.0000
  -2   2   312218720  197958                                                    12289189    0.14    0.00  1.0000
  -2   2   4 1396783   73807                                                     1442637   -0.26    0.00  1.0000
  -2   2   5 2285346   94028                                                     2380699   -0.43    0.00  1.0000
  -2   2   6 6423939  161434                                                     6223534   -0.55    0.00  1.0000
  -2   2   8 4665329  175104                                                     4438550   -0.73    0.00  1.0000
  -2   2   9 3467690  166830                                                     3619187   -0.55    0.00  1.0000
  -2   2  10  872983   79435                                                      841715   -0.23    0.00  1.0000
  -2   2  10  809664   70553                                                      779562   -0.23    0.00  1.0000
  -2   2  11   27687   19541                                                       26782    0.04    0.00  1.0000
  -2   2  12  164530   22970                                                      156414    0.14    0.00  1.0000
  -2   3  -6    3501   20762                                                      -35266   -0.81    0.00  1.0000
  -2   3  -5  590524   83363                                                      712360   -1.04    0.00  1.0000
  -2   3  -4  158389   35485                                                       90416   -1.34    0.00  1.0000
  -2   3  -3  567135   78466                                                      757158   -1.61    0.00  1.0000
  -2   3  -2 2413930  109915                                                     2033932   -1.75    0.00  1.0000
  -2   3  -1 3920884  152492                                                     4455010   -1.80    0.00  1.0000
  -2   3   0 4278226  134229                                                     3758726   -1.78    0.00  1.0000
  -2   3   1 3660093  134053                                                     4136673   -1.66    0.00  1.0000
  -2   3   2  942958   74001                                                     1140600   -1.33    0.00  1.0000
  -2   3   311267777  211724                                                    10861602   -0.84    0.00  1.0000
  -2   3   423177162  321498                                                    23429388   -0.36    0.00  1.0000
  -2   3   515417080  273430                                                    15396861   -0.04    0.00  1.0000
  -2   3   6 1411791   81973                                                     1385508    0.15    0.00  1.0000
  -2   3   7     479   18463                                                       -6240    0.30    0.00  1.0000
  -2   3   9  854334   86615                                                      798053    0.43    0.00  1.0000
  -2   3  10   30137   21852                                                       24488    0.29    0.00  1.0000
  -2   3  11   16382   15932                                                       18047    0.09    0.00  1.0000
  -2   3  12      15   12715                                                      -19487   -0.05    0.00  1.0000
  -2   4  -5  465600   69099                                                      537804    0.70    0.00  1.0000
  -2   4  -4  861099   94368                                                      755634    0.81    0.00  1.0000
  -2   4  -3  230513   60840                                                      303622    0.97    0.00  1.0000
  -2   4  -2  271142   57448                                                      362854    1.12    0.00  1.0000
  -2   4  -1  789123   71103                                                      644089    1.18    0.00  1.0000
  -2   4   0 1639036  109900                                                     1865283    1.18    0.00  1.0000
  -2   4   1 5596046  176126                                                     5198613    1.18    0.00  1.0000
  -2   4   2 3035178  138968                                                     3336880    1.16    0.00  1.0000
  -2   4   3  101891   28166                                                       59137    1.05    0.00  1.0000
  -2   4   4 3093274  127598                                                     2895444    0.79    0.00  1.0000
  -2   4   5 4693343  168623                                                     4837686    0.45    0.00  1.0000
  -2   4   7 2066690  113445                                                     2063131   -0.02    0.00  1.0000
  -2   4   8  453091   54708                                                      462970   -0.10    0.00  1.0000
  -2   4  10  737135   75945                                                      724838   -0.10    0.00  1.0000
  -2   4  11 1400394   83967                                                     1410877   -0.06    0.00  1.0000
  -2   4  12  507984   38964                                                      506193   -0.02    0.00  1.0000
  -2   5  -3  639330   69016                                                      571616   -0.60    0.00  1.0000
  -2   5  -2  194948   51713                                                      240892   -0.68    0.00  1.0000
  -2   5  -1  108279   32615                                                       76368   -0.72    0.00  1.0000
  -2   5   0   48646   33815                                                       29176   -0.70    0.00  1.0000
  -2   5   1 3871832  173666                                                     4064253   -0.66    0.00  1.0000
  -2   5   2 7746818  231152                                                     7468562   -0.69    0.00  1.0000
  -2   5   3 7736487  234896                                                     8052327   -0.77    0.00  1.0000
  -2   5   4 2130631  119788                                                     1968882   -0.78    0.00  1.0000
  -2   5   5    1886    9249                                                       -6384   -0.60    0.00  1.0000
  -2   5   6  296529   56428                                                      318009   -0.27    0.00  1.0000
  -2   5   7 2797210  134635                                                     2808035    0.04    0.00  1.0000
  -2   5   8 1852921  112355                                                     1818964    0.17    0.00  1.0000
  -2   5  10  236687   44191                                                      239438   -0.04    0.00  1.0000
  -2   5  11   71929   17966                                                       68139   -0.10    0.00  1.0000
  -2   6  -1 1799110  125471                                                     1924203    0.63    0.00  1.0000
  -2   6   0 2656145  148573                                                     2518327    0.59    0.00  1.0000
  -2   6   1  338114   65016                                                      381626    0.50    0.00  1.0000
  -2   6   2  335943   58584                                                      373187    0.43    0.00  1.0000
  -2   6   3 3845734  177266                                                     3718727    0.45    0.00  1.0000
  -2   6   4 3719834  177676                                                     3867045    0.52    0.00  1.0000
  -2   6   5  497978   69741                                                      447774    0.50    0.00  1.0000
  -2   6   6  155773   42600                                                      172813    0.29    0.00  1.0000
  -2   6   7  128751   38842                                                      125641   -0.06    0.00  1.0000
  -2   6   8  348435   50000                                                      377035   -0.33    0.00  1.0000
  -2   6  11  441648   42929                                                      456049    0.15    0.00  1.0000
  -2   7   1 1506172  104482                                                     1413487   -0.53    0.00  1.0000
  -2   7   2 1034762  101141                                                     1096630   -0.41    0.00  1.0000
  -2   7   3     513   33252                                                      -20943   -0.31    0.00  1.0000
  -2   7   4  227028   50196                                                      208325   -0.28    0.00  1.0000
  -2   7   5  321770   57081                                                      345883   -0.29    0.00  1.0000
  -2   7   6 2473977  141895                                                     2418098   -0.25    0.00  1.0000
  -1 -11  -7   37136   11189                                                       44766    0.26    0.00  1.0000
  -1 -11  -6  395262   31913                                                      369816    0.28    0.00  1.0000
  -1 -11  -5  506181   37316                                                      528625    0.21    0.00  1.0000
  -1 -10  -9  155881   22082                                                      157391   -0.03    0.00  1.0000
  -1 -10  -8 1983893   87406                                                     1955562   -0.14    0.00  1.0000
  -1 -10  -7 1959831   93611                                                     2022562   -0.31    0.00  1.0000
  -1 -10  -6  637724   52651                                                      585810   -0.46    0.00  1.0000
  -1 -10  -5  126466   34769                                                      154019   -0.51    0.00  1.0000
  -1 -10  -4  160302   36490                                                      186515   -0.43    0.00  1.0000
  -1 -10  -3  516842   44970                                                      485625   -0.30    0.00  1.0000
  -1 -10  -2  236578   32876                                                      251143   -0.20    0.00  1.0000
  -1 -10  -1  384177   33507                                                      370748   -0.15    0.00  1.0000
  -1  -9 -10  670318   46715                                                      647877    0.19    0.00  1.0000
  -1  -9  -9  180353   32462                                                      201484    0.33    0.00  1.0000
  -1  -9  -8  171619   40923                                                      200379    0.46    0.00  1.0000
  -1  -9  -7  739280   73263                                                      666796    0.59    0.00  1.0000
  -1  -9  -6 1775354  111335                                                     1932323    0.79    0.00  1.0000
  -1  -9  -5 4864904  170703                                                     4546649    1.01    0.00  1.0000
  -1  -9  -4 1963507  120519                                                     2195190    1.11    0.00  1.0000
  -1  -9  -3   44251   30409                                                       19253    1.00    0.00  1.0000
  -1  -9  -2   45816   28176                                                       25539    0.75    0.00  1.0000
  -1  -9  -2    2955   19019                                                      -11211    0.75    0.00  1.0000
  -1  -9  -1  106036   31260                                                      130599    0.49    0.00  1.0000
  -1  -9  -1  117381   35036                                                      143158    0.49    0.00  1.0000
  -1  -9   0   53167   15921                                                       43262    0.32    0.00  1.0000
  -1  -9   0   75976   18585                                                       64039    0.32    0.00  1.0000
  -1  -9   1  348718   37836                                                      367781    0.22    0.00  1.0000
  -1  -9   1  235868   29471                                                      251591    0.22    0.00  1.0000
  -1  -9   2  538290   39351                                                      518866    0.18    0.00  1.0000
  -1  -8 -10 2417637  102915                                                     2482888   -0.29    0.00  1.0000
  -1  -8  -9 5327489  167320                                                     5145164   -0.55    0.00  1.0000
  -1  -8  -8 2157577  119831                                                     2327449   -0.78    0.00  1.0000
  -1  -8  -7   97548   40432                                                       60624   -0.91    0.00  1.0000
  -1  -8  -6    5685   38648                                                      -14943   -1.04    0.00  1.0000
  -1  -8  -5  185595   57195                                                      273087   -1.26    0.00  1.0000
  -1  -8  -4   12442   31203                                                       -5078   -1.53    0.00  1.0000
  -1  -8  -2  513061   60927                                                      372197   -1.47    0.00  1.0000
  -1  -8  -1  456886   69828                                                      570230   -1.09    0.00  1.0000
  -1  -8   0    9907   27697                                                        2294   -0.71    0.00  1.0000
  -1  -8   1  703242   68515                                                      647794   -0.46    0.00  1.0000
  -1  -8   2 2714903  119882                                                     2805025   -0.37    0.00  1.0000
  -1  -8   3  444116   47171                                                      407961   -0.38    0.00  1.0000
  -1  -8   4  503056   38980                                                      544866   -0.40    0.00  1.0000
  -1  -7  -9  537507   57565                                                      597176    0.55    0.00  1.0000
  -1  -7  -9  531057   63991                                                      590377    0.55    0.00  1.0000
  -1  -7  -8 1103740   86624                                                      982232    0.82    0.00  1.0000
  -1  -7  -8 1290651   74221                                                     1158970    0.82    0.00  1.0000
  -1  -7  -7 2319715  125706                                                     2554167    1.03    0.00  1.0000
  -1  -7  -7 2433203  103353                                                     2673186    1.03    0.00  1.0000
  -1  -7  -6 3142348  135759                                                     2853314    1.15    0.00  1.0000
  -1  -7  -6 3152768  101705                                                     2863244    1.15    0.00  1.0000
  -1  -7  -5   69600   32443                                                      126532    1.27    0.00  1.0000
  -1  -7  -2 3883218  153937                                                     4382041    1.69    0.00  1.0000
  -1  -7  -1 2344585  111004                                                     2031392    1.46    0.00  1.0000
  -1  -7   0 2586035  136174                                                     2849524    1.10    0.00  1.0000
  -1  -7   1 1974405  113719                                                     1815634    0.79    0.00  1.0000
  -1  -7   2     372   36782                                                        4332    0.64    0.00  1.0000
  -1  -7   3    5494   36907                                                         831    0.62    0.00  1.0000
  -1  -7   4  387493   47144                                                      330967    0.65    0.00  1.0000
  -1  -7   5  627615   51566                                                      699284    0.61    0.00  1.0000
  -1  -6 -10 3160775  130573                                                     3003463   -0.62    0.00  1.0000
  -1  -6  -9  374934   63463                                                      440261   -0.71    0.00  1.0000
  -1  -6  -9  273221   48961                                                      329369   -0.71    0.00  1.0000
  -1  -6  -8  285532   55810                                                      361676   -0.92    0.00  1.0000
  -1  -6  -8  260706   41988                                                      333664   -0.92    0.00  1.0000
  -1  -6  -7 1848205   97007                                                     1613925   -1.22    0.00  1.0000
  -1  -6  -7 1985830   84322                                                     1742694   -1.22    0.00  1.0000
  -1  -6  -6 4502074  160668                                                     4980355   -1.51    0.00  1.0000
  -1  -6  -6 4615801  131997                                                     5099934   -1.51    0.00  1.0000
  -1  -6   1 5071666  178336                                                     5505330   -1.30    0.00  1.0000
  -1  -6   2  503599   56787                                                      397903   -1.09    0.00  1.0000
  -1  -6   3 1338285  103182                                                     1508606   -0.98    0.00  1.0000
  -1  -6   4  273353   45547                                                      206368   -0.94    0.00  1.0000
  -1  -6   5    4101   21987                                                       -1151   -0.88    0.00  1.0000
  -1  -6   6  633840   55299                                                      718518   -0.71    0.00  1.0000
  -1  -5 -10 2759104  130495                                                     2961493    0.82    0.00  1.0000
  -1  -5  -9 2167072  104633                                                     1963962    0.97    0.00  1.0000
  -1  -5  -8 1675515   95194                                                     1909193    1.20    0.00  1.0000
  -1  -5  -7 1521744   71550                                                     1257939    1.54    0.00  1.0000
  -1  -5  -6    7365   22874                                                       51998    1.96    0.00  1.0000
  -1  -5   2  813132   76673                                                     1074880    1.86    0.00  1.0000
  -1  -5   3 3553013  140495                                                     3144892    1.53    0.00  1.0000
  -1  -5   3 3541799  131745                                                     3134342    1.53    0.00  1.0000
  -1  -5   4  946525   88960                                                     1135980    1.28    0.00  1.0000
  -1  -5   4 1042699   92857                                                     1241119    1.28    0.00  1.0000
  -1  -5   5    6588   23984                                                       22417    1.12    0.00  1.0000
  -1  -5   6  112038   32826                                                       69694    0.97    0.00  1.0000
  -1  -5   7  485427   54259                                                      563121    0.74    0.00  1.0000
  -1  -5   8   89277   17086                                                       71663    0.43    0.00  1.0000
  -1  -4 -10   51390   27888                                                       77604   -0.71    0.00  1.0000
  -1  -4  -9  432820   61038                                                      526414   -0.93    0.00  1.0000
  -1  -4  -8 3488500  118695                                                     3154072   -1.26    0.00  1.0000
  -1  -4  -7 6258351  158252                                                     6880748   -1.67    0.00  1.0000
  -1  -4  -6 2636599   81581                                                     2167770   -2.08    0.00  1.0000
  -1  -4  -5   12066   16945                                                       84852   -2.54    0.00  1.0000
  -1  -4  -4  602364   27979                                                      303428   -3.10    0.00  1.0000
  -1  -4  -2 3613865  115744                                                     4803687   -4.00    0.00  1.0000
  -1  -4  -1 7200774  131601                                                     5741808   -3.95    0.00  1.0000
  -1  -4   4 3202336  122459                                                     2760745   -1.76    0.00  1.0000
  -1  -4   5 7227672  211791                                                     7774300   -1.37    0.00  1.0000
  -1  -4   6 5912434  178086                                                     5503810   -1.18    0.00  1.0000
  -1  -4   6 6163999  194351                                                     5746618   -1.18    0.00  1.0000
  -1  -4   7  588026   69161                                                      710089   -1.04    0.00  1.0000
  -1  -4   8   27017   16288                                                       11085   -0.81    0.00  1.0000
  -1  -3 -10  450580   55417                                                      412666    0.40    0.00  1.0000
  -1  -3  -9   98421   41950                                                      122774    0.51    0.00  1.0000
  -1  -3  -8    4098   20963                                                       14802    0.81    0.00  1.0000
  -1  -3  -7  926308   55724                                                      756046    1.28    0.00  1.0000
  -1  -3  -6 3211128  102188                                                     3676377    1.72    0.00  1.0000
  -1  -3  -5 3547301   79434                                                     2997323    2.09    0.00  1.0000
  -1  -3  -415826467  175497                                                    17365342    2.60    0.00  1.0000
  -1  -3  -316356221  150953                                                    14414469    3.40    0.00  1.0000
  -1  -3  -2 6798312  125935                                                     8523393    4.29    0.00  1.0000
  -1  -3  -1  360026   45459                                                      899345    4.79    0.00  1.0000
  -1  -3   023858642  223825                                                    20650412    4.68    0.00  1.0000
  -1  -3   1 9740238  184051                                                    11720094    4.16    0.00  1.0000
  -1  -3   218461474  240026                                                    16301552    3.56    0.00  1.0000
  -1  -3   5   18899   32448                                                      -30792    1.89    0.00  1.0000
  -1  -3   5   18899   26038                                                      -18620    1.89    0.00  1.0000
  -1  -3   6  496807   81960                                                      665582    1.53    0.00  1.0000
  -1  -3   6  556413   68212                                                      734310    1.53    0.00  1.0000
  -1  -3   7   46137   39114                                                       14507    1.36    0.00  1.0000
  -1  -3   8  480137   64763                                                      609906    1.21    0.00  1.0000
  -1  -3   8  445803   63808                                                      571127    1.21    0.00  1.0000
  -1  -3   9  210718   31704                                                      153509    0.93    0.00  1.0000
  -1  -2 -10  610029   59447                                                      606458    0.03    0.00  1.0000
  -1  -2  -9 2235015  117124                                                     2251730    0.08    0.00  1.0000
  -1  -2  -8 4070710  140231                                                     4061824    0.03    0.00  1.0000
  -1  -2  -7 2747478  101846                                                     2685356   -0.26    0.00  1.0000
  -1  -2  -6  657822   49674                                                      738155   -0.66    0.00  1.0000
  -1  -2  -5  997063   46078                                                      861558   -0.97    0.00  1.0000
  -1  -2  -5  968858   37911                                                      835354   -0.97    0.00  1.0000
  -1  -2  -310775376  106147                                                    11730694   -1.96    0.00  1.0000
  -1  -2  -1 7993279  117969                                                     9860311   -4.30    0.00  1.0000
  -1  -2   2 3027656   86697                                                     4111693   -3.96    0.00  1.0000
  -1  -2   2 3168474  108570                                                     4275532   -3.96    0.00  1.0000
  -1  -2   2 2994564   98607                                                     4073113   -3.96    0.00  1.0000
  -1  -2   3 9343045  139286                                                     7922868   -3.33    0.00  1.0000
  -1  -2   3 9299213  156346                                                     7882508   -3.33    0.00  1.0000
  -1  -2   3 9487273  167987                                                     8055727   -3.33    0.00  1.0000
  -1  -2   4 9419233  186711                                                    10733203   -2.85    0.00  1.0000
  -1  -2   5 3609019  112912                                                     2972073   -2.42    0.00  1.0000
  -1  -2   6  112819   30440                                                       36112   -2.02    0.00  1.0000
  -1  -2   6   39084   33237                                                        2640   -2.02    0.00  1.0000
  -1  -2   7  180253   64580                                                      302792   -1.73    0.00  1.0000
  -1  -2   7  223548   48491                                                      358217   -1.73    0.00  1.0000
  -1  -2   8  508308   54082                                                      361335   -1.54    0.00  1.0000
  -1  -2   8  455205   58614                                                      316790   -1.54    0.00  1.0000
  -1  -2   9  325048   52922                                                      441623   -1.30    0.00  1.0000
  -1  -2  10  433412   39830                                                      350337   -0.92    0.00  1.0000
  -1  -1  -9  359221   50713                                                      308967   -0.60    0.00  1.0000
  -1  -1  -8 1872438  104671                                                     2037362   -0.81    0.00  1.0000
  -1  -1  -7 2984297  106649                                                     2753035   -0.94    0.00  1.0000
  -1  -1  -6 1601163   76403                                                     1767934   -0.88    0.00  1.0000
  -1  -1  -5 4653701  100156                                                     4405880   -0.80    0.00  1.0000
  -1  -1  -4 1603460   54849                                                     1755644   -0.81    0.00  1.0000
  -1  -1  -3  102359   10398                                                      136337   -0.68    0.00  1.0000
  -1  -1  -2 5217005   39247                                                     5207653   -0.03    0.00  1.0000
  -1  -1  -122339238  108040                                                    21555604    1.15    0.00  1.0000
  -1  -1   0 2260128   47207                                                     2796155    2.32    0.00  1.0000
  -1  -1   136111180  200663                                                    33610096    2.91    0.00  1.0000
  -1  -1   2 7704398  124685                                                     8895449    2.84    0.00  1.0000
  -1  -1   6 2087800   89332                                                     1693055    1.98    0.00  1.0000
  -1  -1   7 1377934  113834                                                     1694645    1.76    0.00  1.0000
  -1  -1   7 1301828   95339                                                     1610125    1.76    0.00  1.0000
  -1  -1   8   57454   36565                                                       16214    1.57    0.00  1.0000
  -1  -1   8   69496   49445                                                       22921    1.57    0.00  1.0000
  -1  -1   9  227347   39280                                                      141046    1.39    0.00  1.0000
  -1  -1   9  154511   36958                                                       85164    1.39    0.00  1.0000
  -1  -1  10  557171   51115                                                      685884    1.12    0.00  1.0000
  -1  -1  10  662924   73212                                                      802716    1.12    0.00  1.0000
  -1  -1  11  139099   24740                                                      102795    0.72    0.00  1.0000
  -1   0  -8  933679   76443                                                     1104450    1.16    0.00  1.0000
  -1   0  -7   13900   14276                                                       -6505    1.62    0.00  1.0000
  -1   0  -6  142069   26281                                                       52524    2.04    0.00  1.0000
  -1   0  -5 7728579  151499                                                     8715011    2.37    0.00  1.0000
  -1   0  -415016717  157451                                                    13523777    2.72    0.00  1.0000
  -1   0  -311451578  126537                                                    13057882    3.16    0.00  1.0000
  -1   0   0  521305   21280                                                      798053    2.36    0.00  1.0000
  -1   0   116387781  120987                                                    15634558    1.29    0.00  1.0000
  -1   0   210950685  123613                                                    11152899    0.42    0.00  1.0000
  -1   0   3 8060622  122965                                                     8119306   -0.14    0.00  1.0000
  -1   0   4 2283562   73616                                                     2169860   -0.52    0.00  1.0000
  -1   0   7 1916212   95247                                                     1692525   -1.15    0.00  1.0000
  -1   0   7 2221692  117135                                                     1980302   -1.15    0.00  1.0000
  -1   0   8 2118774  136902                                                     2365929   -1.14    0.00  1.0000
  -1   0   8 1951414  113305                                                     2188880   -1.14    0.00  1.0000
  -1   0   9 2004519  104226                                                     1784014   -1.10    0.00  1.0000
  -1   0   9 2116987  126924                                                     1890203   -1.10    0.00  1.0000
  -1   0  10  712339   79614                                                      842739   -1.02    0.00  1.0000
  -1   0  11  364229   43232                                                      297046   -0.80    0.00  1.0000
  -1   1  -6 2437503   90533                                                     1948172   -2.27    0.00  1.0000
  -1   1  -5    6120   21678                                                       84546   -2.92    0.00  1.0000
  -1   1  -4 3235520   97821                                                     4230822   -3.55    0.00  1.0000
  -1   1  -311036443  120673                                                     9084488   -4.24    0.00  1.0000
  -1   1  -1   17816   28500                                                      266717   -5.56    0.00  1.0000
  -1   1  -1   14911   18448                                                      253307   -5.56    0.00  1.0000
  -1   1   020560500  144922                                                    24427878   -5.61    0.00  1.0000
  -1   1   1 2873765   44412                                                     1779224   -4.97    0.00  1.0000
  -1   1   2 1847289   41645                                                     1169549   -3.82    0.00  1.0000
  -1   1   2 2013998   48166                                                     1302938   -3.82    0.00  1.0000
  -1   1   314024821  164600                                                    15450660   -2.55    0.00  1.0000
  -1   1   414545107  177032                                                    13737776   -1.48    0.00  1.0000
  -1   1   414401557  174046                                                    13598277   -1.48    0.00  1.0000
  -1   1   5  899274   58593                                                      996424   -0.69    0.00  1.0000
  -1   1   8  775767   66896                                                      717644    0.46    0.00  1.0000
  -1   1   8 1022837   94070                                                      955929    0.46    0.00  1.0000
  -1   1   9 1725503  101987                                                     1847203    0.63    0.00  1.0000
  -1   1   9 1771266  128161                                                     1894543    0.63    0.00  1.0000
  -1   1  10  743537   79347                                                      658493    0.70    0.00  1.0000
  -1   1  11 1210510   90263                                                     1317518    0.65    0.00  1.0000
  -1   1  12  100822   18428                                                       79746    0.48    0.00  1.0000
  -1   2  -7  410631   64524                                                      281604    1.52    0.00  1.0000
  -1   2  -6 1551847  127737                                                     1925473    1.95    0.00  1.0000
  -1   2  -5 1235001   82599                                                      860177    2.53    0.00  1.0000
  -1   2  -3    1622   32535                                                       63022    4.00    0.00  1.0000
  -1   2  -2 4872877  111638                                                     3453439    4.80    0.00  1.0000
  -1   2  -1 1516706   71576                                                     2668626    5.53    0.00  1.0000
  -1   2  -1 1482546   88979                                                     2623246    5.53    0.00  1.0000
  -1   2   031723884  257451                                                    26996656    6.00    0.00  1.0000
  -1   2   032118150  220799                                                    27360452    6.00    0.00  1.0000
  -1   2   117896954  218570                                                    21744802    5.95    0.00  1.0000
  -1   2   117661056  185745                                                    21484706    5.95    0.00  1.0000
  -1   2   2 3518509   75246                                                     2234020    5.24    0.00  1.0000
  -1   2   3  641243   32270                                                      256592    4.04    0.00  1.0000
  -1   2   411648574  204919                                                    13056782    2.75    0.00  1.0000
  -1   2   412559482  185112                                                    14020173    2.75    0.00  1.0000
  -1   2   5 5056584  122990                                                     4506009    1.73    0.00  1.0000
  -1   2   6 8307596  192124                                                     8763971    1.07    0.00  1.0000
  -1   2   8 1725830  116008                                                     1778134    0.27    0.00  1.0000
  -1   2   9  165562   60393                                                      169505   -0.07    0.00  1.0000
  -1   2  10   72994   42817                                                       62031   -0.29    0.00  1.0000
  -1   2  11  853108   77187                                                      806754   -0.35    0.00  1.0000
  -1   2  12  903983   64898                                                      944101   -0.29    0.00  1.0000
  -1   3  -7   11058   50103                                                        -153   -1.45    0.00  1.0000
  -1   3  -6 2231488  125603                                                     1885663   -1.66    0.00  1.0000
  -1   3  -5 8609907  269770                                                     9439074   -1.90    0.00  1.0000
  -1   3  -4 8912118  233885                                                     7933249   -2.32    0.00  1.0000
  -1   3  -3 3843888  168253                                                     4737457   -2.97    0.00  1.0000
  -1   3  -2   37854   39654                                                      215495   -3.73    0.00  1.0000
  -1   3  -1 6414538  182763                                                     8147606   -4.42    0.00  1.0000
  -1   3   0  725988   36093                                                      245256   -4.91    0.00  1.0000
  -1   3   0  774548   35975                                                      273824   -4.91    0.00  1.0000
  -1   3   1 1029026   43287                                                      414250   -5.11    0.00  1.0000
  -1   3   1 1007116   37279                                                      400382   -5.11    0.00  1.0000
  -1   3   211245921  212580                                                    13771075   -4.91    0.00  1.0000
  -1   3   211239505  147190                                                    13763975   -4.91    0.00  1.0000
  -1   3   211628478  193851                                                    14194071   -4.91    0.00  1.0000
  -1   3   312386790  188048                                                    10301007   -4.26    0.00  1.0000
  -1   3   311826268  171518                                                     9790421   -4.26    0.00  1.0000
  -1   3   312005862  136947                                                     9953890   -4.26    0.00  1.0000
  -1   3   4  828405   73987                                                     1321768   -3.29    0.00  1.0000
  -1   3   6  306265   33653                                                      186878   -1.67    0.00  1.0000
  -1   3   7 2006562  114707                                                     2279789   -1.28    0.00  1.0000
  -1   3   9 1864729  130930                                                     1991352   -0.63    0.00  1.0000
  -1   3  10 1201625  103735                                                     1159090   -0.27    0.00  1.0000
  -1   3  11   74347   39393                                                       72120   -0.06    0.00  1.0000
  -1   3  12  479637   48562                                                      481119   -0.01    0.00  1.0000
  -1   4  -5  668067   92085                                                      850762    1.44    0.00  1.0000
  -1   4  -4  202599   49405                                                      114551    1.54    0.00  1.0000
  -1   4  -3  900009   76041                                                      666009    1.83    0.00  1.0000
  -1   4  -2  429627   75808                                                      681604    2.35    0.00  1.0000
  -1   4  -1 8079113  197227                                                     6914367    2.93    0.00  1.0000
  -1   4   0  968395   93686                                                     1510696    3.37    0.00  1.0000
  -1   4   1  443034   68861                                                      862498    3.62    0.00  1.0000
  -1   4   2 3846621  116431                                                     2866404    3.69    0.00  1.0000
  -1   4   3 8827137  215626                                                    10427606    3.55    0.00  1.0000
  -1   4   3 9139528  159698                                                    10766902    3.55    0.00  1.0000
  -1   4   4 3871196   94111                                                     3027483    3.13    0.00  1.0000
  -1   4   4 3834558  120501                                                     2995093    3.13    0.00  1.0000
  -1   4   5 6053131  189622                                                     6979987    2.50    0.00  1.0000
  -1   4   7   41128   29695                                                       96912    1.49    0.00  1.0000
  -1   4   7   34517   31832                                                       86605    1.49    0.00  1.0000
  -1   4   8  379127   66860                                                      504062    1.30    0.00  1.0000
  -1   4  10 2594734  151798                                                     2785815    0.80    0.00  1.0000
  -1   4  11 1388109   98158                                                     1306478    0.48    0.00  1.0000
  -1   4  12  515330   54755                                                      545062    0.28    0.00  1.0000
  -1   5  -4    7411   47193                                                       22526   -1.06    0.00  1.0000
  -1   5  -3  471234   75089                                                      589556   -1.12    0.00  1.0000
  -1   5  -2  668889   85804                                                      835144   -1.32    0.00  1.0000
  -1   5  -1 1348370  113858                                                     1643075   -1.66    0.00  1.0000
  -1   5   0 5551442  180254                                                     4893006   -1.98    0.00  1.0000
  -1   5   1 9651677  260142                                                    10657303   -2.17    0.00  1.0000
  -1   5   2 3647021  140130                                                     3047873   -2.25    0.00  1.0000
  -1   5   3  729034   64292                                                      471026   -2.30    0.00  1.0000
  -1   5   4  725969   80923                                                     1035551   -2.28    0.00  1.0000
  -1   5   5 3246648  131811                                                     2726525   -2.07    0.00  1.0000
  -1   5   6 2684575  143254                                                     3104832   -1.70    0.00  1.0000
  -1   5   6 2298991  119239                                                     2689036   -1.70    0.00  1.0000
  -1   5   7 3867677  152440                                                     3496388   -1.33    0.00  1.0000
  -1   5   7 3419931  131948                                                     3071352   -1.33    0.00  1.0000
  -1   5   8 1673637  117097                                                     1890013   -1.12    0.00  1.0000
  -1   5   9  987233   80705                                                      844782   -1.02    0.00  1.0000
  -1   5  11 1095215   88857                                                     1203039   -0.69    0.00  1.0000
  -1   5  12  888943   63234                                                      829467   -0.44    0.00  1.0000
  -1   6  -3   56479   51461                                                       84121    0.73    0.00  1.0000
  -1   6  -2 1728263  120628                                                     1575446    0.82    0.00  1.0000
  -1   6  -1   17311   36206                                                       41617    1.00    0.00  1.0000
  -1   6   0  325737   71400                                                      435592    1.23    0.00  1.0000
  -1   6   1 2247598  129636                                                     1955622    1.39    0.00  1.0000
  -1   6   1 2229767  107359                                                     1938992    1.39    0.00  1.0000
  -1   6   2 6000700  223625                                                     6519621    1.43    0.00  1.0000
  -1   6   3 4778547  181530                                                     4338291    1.42    0.00  1.0000
  -1   6   4 7678975  246233                                                     8269796    1.44    0.00  1.0000
  -1   6   5 1139563   88042                                                      924089    1.46    0.00  1.0000
  -1   6   6   64575   10622                                                       23354    1.40    0.00  1.0000
  -1   6   6  109142   27710                                                       52490    1.40    0.00  1.0000
  -1   6   7 1725488  119683                                                     1965972    1.22    0.00  1.0000
  -1   6   8  709987   74766                                                      592966    1.00    0.00  1.0000
  -1   6   9 1600964  117122                                                     1756094    0.82    0.00  1.0000
  -1   6  11   24030   29744                                                       38203    0.56    0.00  1.0000
  -1   6  12   53432   15982                                                       67656    0.40    0.00  1.0000
  -1   7   0 2741497  161928                                                     2951693   -0.86    0.00  1.0000
  -1   7   1  195291   41823                                                      133896   -1.05    0.00  1.0000
  -1   7   2  651154   72215                                                      524653   -1.14    0.00  1.0000
  -1   7   3   42429   44705                                                       81641   -1.11    0.00  1.0000
  -1   7   4  109404   45662                                                       66657   -1.04    0.00  1.0000
  -1   7   5   40465   19830                                                       38048   -1.01    0.00  1.0000
  -1   7   6  335289   50590                                                      254320   -1.03    0.00  1.0000
  -1   7   7  122612   40319                                                      182054   -1.05    0.00  1.0000
  -1   7   8    7025   23881                                                         149   -0.99    0.00  1.0000
  -1   7  11 1125234   72112                                                     1079310   -0.30    0.00  1.0000
  -1   7  12  308284   32896                                                      320449   -0.15    0.00  1.0000
  -1   8   3  323736   56812                                                      391781    0.78    0.00  1.0000
  -1   8   4  511395   74454                                                      587071    0.70    0.00  1.0000
  -1   8   5 2313928  134426                                                     2187680    0.58    0.00  1.0000
  -1   8   6 3196796  164865                                                     3327790    0.50    0.00  1.0000
  -1   8  11      73    8190                                                        -947    0.12    0.00  1.0000
   0 -10  -9  412688   31299                                                      382571    0.33    0.00  1.0000
   0 -10  -8   33209   12797                                                       42613    0.34    0.00  1.0000
   0 -10  -7  188142   32834                                                      170887    0.28    0.00  1.0000
   0 -10  -6   58106   20551                                                       51385    0.20    0.00  1.0000
   0 -10  -5  127890   30825                                                      135761    0.15    0.00  1.0000
   0 -10  -4  234759   29505                                                      224665    0.15    0.00  1.0000
   0 -10  -3  117529   19524                                                      125162    0.15    0.00  1.0000
   0  -9 -10   50937   13513                                                       40426   -0.34    0.00  1.0000
   0  -9  -9  939822   69330                                                      996548   -0.40    0.00  1.0000
   0  -9  -8  681248   58024                                                      630788   -0.43    0.00  1.0000
   0  -9  -7 2080797  109292                                                     2167900   -0.41    0.00  1.0000
   0  -9  -6  964532   76517                                                      916308   -0.34    0.00  1.0000
   0  -9  -5  603727   65449                                                      632872   -0.25    0.00  1.0000
   0  -9  -4   21004   26384                                                       25396   -0.20    0.00  1.0000
   0  -9  -3  362796   45660                                                      344613   -0.21    0.00  1.0000
   0  -9  -2 2076017  100213                                                     2136441   -0.29    0.00  1.0000
   0  -9  -2 2079516   97536                                                     2139991   -0.29    0.00  1.0000
   0  -9  -1  507706   43921                                                      469856   -0.37    0.00  1.0000
   0  -9  -1  440019   43273                                                      404832   -0.37    0.00  1.0000
   0  -9   0   97360   25428                                                      116626   -0.41    0.00  1.0000
   0  -9   1   67007   15914                                                       53767   -0.37    0.00  1.0000
   0  -8 -11 1119165   61052                                                     1182019    0.40    0.00  1.0000
   0  -8 -10 1270306   74791                                                     1182749    0.54    0.00  1.0000
   0  -8  -9  260217   50035                                                      313720    0.69    0.00  1.0000
   0  -8  -8  244562   47354                                                      192394    0.77    0.00  1.0000
   0  -8  -7 1077131   85878                                                      964455    0.77    0.00  1.0000
   0  -8  -6 2653690  140190                                                     2827285    0.72    0.00  1.0000
   0  -8  -5 3261170  146624                                                     3088652    0.67    0.00  1.0000
   0  -8  -4  586901   75893                                                      656896    0.61    0.00  1.0000
   0  -8  -3  305267   48539                                                      260717    0.58    0.00  1.0000
   0  -8  -3  276258   48023                                                      233962    0.58    0.00  1.0000
   0  -8  -2  376974   55248                                                      325302    0.60    0.00  1.0000
   0  -8  -2  381135   51801                                                      329168    0.60    0.00  1.0000
   0  -8  -1  201939   46107                                                      248996    0.68    0.00  1.0000
   0  -8  -1  160145   46724                                                      202318    0.68    0.00  1.0000
   0  -8   0  138778   24913                                                      100964    0.76    0.00  1.0000
   0  -8   0  189366   41951                                                      144698    0.76    0.00  1.0000
   0  -8   1  251480   37856                                                      308674    0.75    0.00  1.0000
   0  -8   1  315434   48363                                                      379141    0.75    0.00  1.0000
   0  -8   2  138644   29346                                                      106213    0.64    0.00  1.0000
   0  -8   3 1635467   73246                                                     1731614    0.51    0.00  1.0000
   0  -7 -11  535190   44497                                                      476357   -0.57    0.00  1.0000
   0  -7 -10 1750092   99332                                                     1897603   -0.75    0.00  1.0000
   0  -7  -9  948150   75780                                                      808696   -1.03    0.00  1.0000
   0  -7  -8 2535240  136578                                                     2834124   -1.25    0.00  1.0000
   0  -7  -7  556181   60286                                                      422397   -1.32    0.00  1.0000
   0  -7  -6  342229   63623                                                      457280   -1.25    0.00  1.0000
   0  -7  -5  250080   57175                                                      343669   -1.19    0.00  1.0000
   0  -7  -4  991394   81747                                                      828593   -1.18    0.00  1.0000
   0  -7  -3 4728444  173585                                                     5110404   -1.18    0.00  1.0000
   0  -7  -3 4803061  171222                                                     5187963   -1.18    0.00  1.0000
   0  -7  -2  849484   73994                                                      700481   -1.17    0.00  1.0000
   0  -7  -1  193887   51763                                                      273674   -1.14    0.00  1.0000
   0  -7   0   52698   31774                                                       21873   -1.12    0.00  1.0000
   0  -7   1   95570   35792                                                       53467   -1.08    0.00  1.0000
   0  -7   2   60898   47239                                                       99618   -0.96    0.00  1.0000
   0  -7   3 3709166  135543                                                     3489239   -0.80    0.00  1.0000
   0  -7   4  587880   56270                                                      662315   -0.65    0.00  1.0000
   0  -7   5    1371   13274                                                         -50   -0.51    0.00  1.0000
   0  -6 -11  574994   52066                                                      474802    0.95    0.00  1.0000
   0  -6 -10   18304   25490                                                        3451    1.06    0.00  1.0000
   0  -6  -9   66787   42000                                                      123171    1.28    0.00  1.0000
   0  -6  -9    8668   27711                                                       -9007    1.28    0.00  1.0000
   0  -6  -8 3036741  112137                                                     2644796    1.60    0.00  1.0000
   0  -6  -8 2764997  123506                                                     2391618    1.60    0.00  1.0000
   0  -6  -7 3538865  157591                                                     4058313    1.83    0.00  1.0000
   0  -6  -7 3747403  128264                                                     4281421    1.83    0.00  1.0000
   0  -6  -6 3559236  126784                                                     3064472    1.87    0.00  1.0000
   0  -6  -6 3775141  138281                                                     3265041    1.87    0.00  1.0000
   0  -6  -5   51122   46339                                                      126341    1.80    0.00  1.0000
   0  -6  -4   64722   40117                                                      146270    1.76    0.00  1.0000
   0  -6  -1 1338792   80330                                                     1066320    1.71    0.00  1.0000
   0  -6   0 2526026  132177                                                     2906174    1.59    0.00  1.0000
   0  -6   1 1682705   98208                                                     1418587    1.46    0.00  1.0000
   0  -6   3  464370   73348                                                      585138    1.15    0.00  1.0000
   0  -6   4  855896   76599                                                      731944    0.96    0.00  1.0000
   0  -6   5 1778791   97067                                                     1931493    0.77    0.00  1.0000
   0  -6   6  598038   44085                                                      536238    0.57    0.00  1.0000
   0  -5 -10 2671519  120945                                                     2265410   -1.78    0.00  1.0000
   0  -5 -10 2715701  120503                                                     2306109   -1.78    0.00  1.0000
   0  -5  -9 3159390  144760                                                     3675107   -1.92    0.00  1.0000
   0  -5  -9 2867632  146212                                                     3359880   -1.92    0.00  1.0000
   0  -5  -8   20294   41416                                                       91683   -2.21    0.00  1.0000
   0  -5  -8   30790   29413                                                      112777   -2.21    0.00  1.0000
   0  -5  -7  895972   52586                                                      572759   -2.61    0.00  1.0000
   0  -5  -7  809054   61946                                                      503706   -2.61    0.00  1.0000
   0  -5  -6 3269612  113420                                                     4097253   -2.97    0.00  1.0000
   0  -5  -5 1564266   55533                                                     1038411   -3.19    0.00  1.0000
   0  -5  -4 5609586  156007                                                     6803909   -3.30    0.00  1.0000
   0  -5   213358050  279829                                                    12305289   -2.02    0.00  1.0000
   0  -5   3 1248324  109335                                                     1551866   -1.77    0.00  1.0000
   0  -5   4    1205   14190                                                       20543   -1.52    0.00  1.0000
   0  -5   5 1427669   97180                                                     1219389   -1.25    0.00  1.0000
   0  -5   6 1011645   86433                                                     1152830   -0.93    0.00  1.0000
   0  -5   7  163494   32030                                                      131182   -0.58    0.00  1.0000
   0  -5   7  124202   23958                                                       96263   -0.58    0.00  1.0000
   0  -4 -10  120235   33796                                                       28629    2.61    0.00  1.0000
   0  -4  -9 1080985   66846                                                      686475    2.91    0.00  1.0000
   0  -4  -9 1073004   73386                                                      680117    2.91    0.00  1.0000
   0  -4  -8 1840803  113134                                                     2544507    3.28    0.00  1.0000
   0  -4  -8 1568226  115723                                                     2222110    3.28    0.00  1.0000
   0  -4  -7 2681557   84665                                                     1846843    3.83    0.00  1.0000
   0  -4  -6  235568   20098                                                       25469    4.56    0.00  1.0000
   0  -4  -5 2408359   95303                                                     3769866    5.36    0.00  1.0000
   0  -4  -2 3329682   65278                                                     1807844    6.61    0.00  1.0000
   0  -4  -1 6761416  170298                                                     9303756    6.19    0.00  1.0000
   0  -4   3 5460872  151311                                                     4499809    2.96    0.00  1.0000
   0  -4   4 3458053  153417                                                     4146713    2.43    0.00  1.0000
   0  -4   4 3730218  173274                                                     4444260    2.43    0.00  1.0000
   0  -4   5  376279   49572                                                      219331    2.00    0.00  1.0000
   0  -4   6      89   36162                                                       14550    1.60    0.00  1.0000
   0  -4   7   72212   33738                                                       34688    1.13    0.00  1.0000
   0  -4   8  197839   29445                                                      159223    0.63    0.00  1.0000
   0  -4   8  214429   30489                                                      174140    0.63    0.00  1.0000
   0  -3 -10     399   41101                                                       54922   -2.99    0.00  1.0000
   0  -3  -9 4281713  180118                                                     5425111   -3.57    0.00  1.0000
   0  -3  -8 6334021  155683                                                     4871356   -4.26    0.00  1.0000
   0  -3  -7 6690867  180400                                                     8746541   -5.10    0.00  1.0000
   0  -3  -6 1871343   52654                                                      848373   -6.16    0.00  1.0000
   0  -3  -5 6385155  163484                                                     9458674   -7.54    0.00  1.0000
   0  -3  -5 6584289  146961                                                     9700712   -7.54    0.00  1.0000
   0  -3  -4 1379190   28818                                                      255580   -9.20    0.00  1.0000
   0  -3  -4 1382555   26034                                                      257031   -9.20    0.00  1.0000
   0  -3  -3 5224899  142091                                                     9415665  -10.76    0.00  1.0000
   0  -3  -1 4433501   60560                                                     1633075  -11.39    0.00  1.0000
   0  -3  -1 4299152   50048                                                     1551916  -11.39    0.00  1.0000
   0  -3   0 7906291  134487                                                    12630786  -10.20    0.00  1.0000
   0  -3   0 9038907  178590                                                    14052373  -10.20    0.00  1.0000
   0  -3   143066544  237302                                                    35312480   -8.52    0.00  1.0000
   0  -3   146775416  317950                                                    38678148   -8.52    0.00  1.0000
   0  -3   2   86560   50694                                                      621900   -6.80    0.00  1.0000
   0  -3   2  132999   37532                                                      738158   -6.80    0.00  1.0000
   0  -3   5 4021997  164544                                                     4987035   -3.13    0.00  1.0000
   0  -3   5 4014562  195871                                                     4978755   -3.13    0.00  1.0000
   0  -3   6  651702   56538                                                      394464   -2.47    0.00  1.0000
   0  -3   7  781915   90922                                                     1048450   -1.92    0.00  1.0000
   0  -3   8    4457   23672                                                        1208   -1.33    0.00  1.0000
   0  -3   9   11328   18555                                                       24746   -0.70    0.00  1.0000
   0  -2 -10 2511468  112037                                                     1876273    2.96    0.00  1.0000
   0  -2  -9 1858809  129104                                                     2664256    3.70    0.00  1.0000
   0  -2  -8 1405230   65850                                                      709053    4.72    0.00  1.0000
   0  -2  -7  609136   33098                                                      117176    6.03    0.00  1.0000
   0  -2  -6 2114122  109927                                                     4014644    7.56    0.00  1.0000
   0  -2  -511246757  123760                                                     7091736    9.49    0.00  1.0000
   0  -2  -4   55264   48396                                                     1226909   12.10    0.00  1.0000
   0  -2  -4   57759   46221                                                     1238859   12.10    0.00  1.0000
   0  -2  -3  931080   11914                                                       22217   15.12    0.00  1.0000
   0  -2  -217914320  198431                                                    30400524   17.61    0.00  1.0000
   0  -2   0 1541972   98492                                                     6213624   17.20    0.00  1.0000
   0  -2   179592800  421022                                                    99657800   14.59    0.00  1.0000
   0  -2   217089016  166054                                                    10810202   11.63    0.00  1.0000
   0  -2   216966624  153516                                                    10712903   11.63    0.00  1.0000
   0  -2   216819680  127305                                                    10596204   11.63    0.00  1.0000
   0  -2   3 3804040  139801                                                     6785649    9.00    0.00  1.0000
   0  -2   3 3835585  151088                                                     6827759    9.00    0.00  1.0000
   0  -2   3 3897644  137238                                                     6910478    9.00    0.00  1.0000
   0  -2   4  532960   81341                                                     1506496    6.84    0.00  1.0000
   0  -2   5  721032   42444                                                      228338    5.10    0.00  1.0000
   0  -2   6    2105   45460                                                       98060    3.80    0.00  1.0000
   0  -2   6    1674   21402                                                       59153    3.80    0.00  1.0000
   0  -2   6    2740   34267                                                      102864    3.80    0.00  1.0000
   0  -2   7 1004602   86053                                                      629552    2.88    0.00  1.0000
   0  -2   7 1021581   64363                                                      643010    2.88    0.00  1.0000
   0  -2   8  447204   63197                                                      680342    2.15    0.00  1.0000
   0  -2   8  458278   83791                                                      693986    2.15    0.00  1.0000
   0  -2   9  606148   59599                                                      455562    1.43    0.00  1.0000
   0  -2  10   73519   30940                                                      103766    0.70    0.00  1.0000
   0  -1 -10 1292709  108138                                                     1770604   -2.66    0.00  1.0000
   0  -1  -9 1593482   78582                                                     1019431   -3.48    0.00  1.0000
   0  -1  -8 2854884  150769                                                     4112293   -4.65    0.00  1.0000
   0  -1  -7 1542868   57825                                                      615467   -6.30    0.00  1.0000
   0  -1  -6 4466135  158263                                                     7388563   -8.31    0.00  1.0000
   0  -1  -5    5808   38235                                                      496319  -10.73    0.00  1.0000
   0  -1  -5    7609   33096                                                      480894  -10.73    0.00  1.0000
   0  -1  -4  137025   59127                                                     1912773  -13.95    0.00  1.0000
   0  -1  -4  182607   59268                                                     2074651  -13.95    0.00  1.0000
   0  -1  -2 8614415   39749                                                     1688725  -22.50    0.00  1.0000
   0  -1   123796136  105882                                                    10693203  -22.10    0.00  1.0000
   0  -1   2 9384007  171582                                                    18984028  -17.78    0.00  1.0000
   0  -1   2 9405873  153109                                                    19015128  -17.78    0.00  1.0000
   0  -1   2 9664223  162113                                                    19381724  -17.78    0.00  1.0000
   0  -1   322067626  160107                                                    13706876  -13.68    0.00  1.0000
   0  -1   410204205  212214                                                    15626058  -10.43    0.00  1.0000
   0  -1   5 2790636   73355                                                     1206419   -7.87    0.00  1.0000
   0  -1   6 2043475  134072                                                     3427529   -5.80    0.00  1.0000
   0  -1   7  203455   61785                                                      572606   -4.20    0.00  1.0000
   0  -1   7  152810   62882                                                      485190   -4.20    0.00  1.0000
   0  -1   7  202535   74067                                                      571062   -4.20    0.00  1.0000
   0  -1   8  220714   31688                                                       61225   -3.07    0.00  1.0000
   0  -1   8  209129   46688                                                       55187   -3.07    0.00  1.0000
   0  -1   8  292653   27796                                                      101579   -3.07    0.00  1.0000
   0  -1   9 1376816  124995                                                     1777854   -2.20    0.00  1.0000
   0  -1  11 1045078   62630                                                     1140460   -0.63    0.00  1.0000
   0   0  -9   16810   26554                                                      118328    2.95    0.00  1.0000
   0   0  -8 1285658   70796                                                      707080    4.03    0.00  1.0000
   0   0  -7  570525   85872                                                     1351758    5.61    0.00  1.0000
   0   0  -6 1578448   49133                                                      488582    7.69    0.00  1.0000
   0   0  -5  281826   25799                                                       59284   10.20    0.00  1.0000
   0   0  -4  835942   16946                                                        4817   13.36    0.00  1.0000
   0   0  -310056299  159403                                                    19808720   17.59    0.00  1.0000
   0   0  -310273091  164814                                                    20112518   17.59    0.00  1.0000
   0   0  -2  470127   69646                                                     5443051   22.65    0.00  1.0000
   0   0  -152617476  112240                                                    27906748   27.09    0.00  1.0000
   0   0   4  827768   11296                                                        5608   13.36    0.00  1.0000
   0   0   5  297903   16206                                                       50709   10.20    0.00  1.0000
   0   0   7  593675  104207                                                     1387277    5.61    0.00  1.0000
   0   0   8 1402375   70634                                                      794298    4.03    0.00  1.0000
   0   0   8 1323136   84144                                                      734944    4.03    0.00  1.0000
   0   0   9   23982   62855                                                      136308    2.95    0.00  1.0000
   0   0  10   16612   43527                                                       78589    2.10    0.00  1.0000
   0   0  11  581260   57250                                                      448679    1.27    0.00  1.0000
   0   1  -9 1329873  116022                                                     1724454   -2.20    0.00  1.0000
   0   1  -8   49841   15726                                                      -13670   -3.07    0.00  1.0000
   0   1  -7  171360   56603                                                      517829   -4.20    0.00  1.0000
   0   1  -6 1929098  121650                                                     3278910   -5.80    0.00  1.0000
   0   1  -5 2730298   65023                                                     1166849   -7.87    0.00  1.0000
   0   1  -410249952  196944                                                    15682658  -10.43    0.00  1.0000
   0   1  -321924952  156854                                                    13594477  -13.68    0.00  1.0000
   0   1  -210179538  157464                                                    20108718  -17.78    0.00  1.0000
   0   1   013823489   54397                                                     3581257  -25.09    0.00  1.0000
   0   1   1   68664   54904                                                     4373751  -25.28    0.00  1.0000
   0   1   2 8939172   40122                                                     1834303  -22.50    0.00  1.0000
   0   1   3 2276694   96162                                                     8000757  -18.15    0.00  1.0000
   0   1   3 2348647  117171                                                     8135187  -18.15    0.00  1.0000
   0   1   4  169495   71522                                                     2029752  -13.95    0.00  1.0000
   0   1   4  169118   57634                                                     2028442  -13.95    0.00  1.0000
   0   1   5    6585   33976                                                      489377  -10.73    0.00  1.0000
   0   1   8 3012618  181286                                                     4301181   -4.65    0.00  1.0000
   0   1   9 1819596  110981                                                     1201799   -3.48    0.00  1.0000
   0   1  10 1644917  143042                                                     2179200   -2.66    0.00  1.0000
   0   1  11   17656   33058                                                       73688   -1.91    0.00  1.0000
   0   1  12   18185    6804                                                        3298   -1.08    0.00  1.0000
   0   2  -8  490944   86584                                                      734058    2.15    0.00  1.0000
   0   2  -7 1139999   80042                                                      737638    2.88    0.00  1.0000
   0   2  -6    9400   34206                                                       32976    3.80    0.00  1.0000
   0   2  -5  756630   38235                                                      248559    5.10    0.00  1.0000
   0   2  -4  539224   71703                                                     1517016    6.84    0.00  1.0000
   0   2  -3 3833118  128216                                                     6824468    9.00    0.00  1.0000
   0   2  -216906332  136630                                                    10665003   11.63    0.00  1.0000
   0   2  -179897736  465985                                                    99999000   14.59    0.00  1.0000
   0   2   0 1481193  100972                                                     6090975   17.20    0.00  1.0000
   0   2   110356904   74918                                                     3525978   18.42    0.00  1.0000
   0   2   218666250  212928                                                    31377716   17.61    0.00  1.0000
   0   2   3  897908   17594                                                       28381   15.12    0.00  1.0000
   0   2   4   57833   58071                                                     1239209   12.10    0.00  1.0000
   0   2   511163291  154581                                                     7025487    9.49    0.00  1.0000
   0   2   8 1431905   80057                                                      728038    4.72    0.00  1.0000
   0   2   9 1959559  160095                                                     2784615    3.70    0.00  1.0000
   0   2  10 2670060  140129                                                     2013682    2.96    0.00  1.0000
   0   2  11  328980   69749                                                      547906    2.30    0.00  1.0000
   0   2  12  558375   51619                                                      405204    1.52    0.00  1.0000
   0   3  -7  831596   94981                                                     1105860   -1.92    0.00  1.0000
   0   3  -6  693798   76233                                                      427368   -2.47    0.00  1.0000
   0   3  -5 4130733  189674                                                     5108034   -3.13    0.00  1.0000
   0   3  -4 7462056  190521                                                     5938756   -4.05    0.00  1.0000
   0   3  -3 1239419  109637                                                     2243290   -5.28    0.00  1.0000
   0   3  -3 1101519   79373                                                     2056362   -5.28    0.00  1.0000
   0   3  -2   98804   42946                                                      654080   -6.80    0.00  1.0000
   0   3  -2  117377   59506                                                      700659   -6.80    0.00  1.0000
   0   3  -144177208  341508                                                    36318872   -8.52    0.00  1.0000
   0   3   0 8577273  167804                                                    13475278  -10.20    0.00  1.0000
   0   3   0 8712447  197395                                                    13644576  -10.20    0.00  1.0000
   0   3   0 8839829  190943                                                    13803875  -10.20    0.00  1.0000
   0   3   1 4309347   65932                                                     1558046  -11.39    0.00  1.0000
   0   3   1 4194553   53211                                                     1489307  -11.39    0.00  1.0000
   0   3   1 4453729   66204                                                     1645365  -11.39    0.00  1.0000
   0   3   2  562997   16634                                                       36025  -11.61    0.00  1.0000
   0   3   2  551882   22288                                                       43574  -11.61    0.00  1.0000
   0   3   2  553093   18377                                                       42692  -11.61    0.00  1.0000
   0   3   3 5486202  166037                                                     9765352  -10.76    0.00  1.0000
   0   3   3 5263764  140200                                                     9467814  -10.76    0.00  1.0000
   0   3   4 1477793   32691                                                      299031   -9.20    0.00  1.0000
   0   3   4 1426220   32404                                                      276067   -9.20    0.00  1.0000
   0   3   4 1452570   39427                                                      287736   -9.20    0.00  1.0000
   0   3   5 6549958  186824                                                     9659032   -7.54    0.00  1.0000
   0   3   6 1814047   65703                                                      809924   -6.16    0.00  1.0000
   0   3   7 6777795  222873                                                     8845890   -5.10    0.00  1.0000
   0   3   9 4408617  215538                                                     5567840   -3.57    0.00  1.0000
   0   3  10    2515   52314                                                       71041   -2.99    0.00  1.0000
   0   3  11  281463   48414                                                      127329   -2.40    0.00  1.0000
   0   3  12 1245147   93786                                                     1534406   -1.69    0.00  1.0000
   0   4  -6   16885   29947                                                       60272    1.60    0.00  1.0000
   0   4  -5  326959   56119                                                      182072    2.00    0.00  1.0000
   0   4  -4 3622958  178490                                                     4327111    2.43    0.00  1.0000
   0   4  -3 5585261  171429                                                     4612788    2.96    0.00  1.0000
   0   4  -212657888  277791                                                    14622368    3.66    0.00  1.0000
   0   4  -212705156  244043                                                    14673167    3.66    0.00  1.0000
   0   4  -1 1689333   96682                                                     2649046    4.51    0.00  1.0000
   0   4  -1 1810812  115603                                                     2800635    4.51    0.00  1.0000
   0   4   0 1923270   69553                                                      986363    5.41    0.00  1.0000
   0   4   0 1924177   56066                                                      987012    5.41    0.00  1.0000
   0   4   1 6701055  188060                                                     9232926    6.19    0.00  1.0000
   0   4   1 6419365  151894                                                     8901749    6.19    0.00  1.0000
   0   4   2 3325285   84532                                                     1804604    6.61    0.00  1.0000
   0   4   2 3270560   67250                                                     1764344    6.61    0.00  1.0000
   0   4   3 3577741  121191                                                     5610039    6.56    0.00  1.0000
   0   4   3 3571194  145098                                                     5601839    6.56    0.00  1.0000
   0   4   418216512  206532                                                    14632167    6.09    0.00  1.0000
   0   4   418384502  242971                                                    14782766    6.09    0.00  1.0000
   0   4   5 2620383  118900                                                     4034014    5.36    0.00  1.0000
   0   4   5 2697912  137821                                                     4130073    5.36    0.00  1.0000
   0   4   6  214267   26429                                                       18644    4.56    0.00  1.0000
   0   4   7 2570002  105351                                                     1754464    3.83    0.00  1.0000
   0   4   8 1915300  138427                                                     2631966    3.28    0.00  1.0000
   0   4   8 1582857  116972                                                     2239520    3.28    0.00  1.0000
   0   4  10   35960   48971                                                       -4041    2.61    0.00  1.0000
   0   4  11   61633   33997                                                        8177    2.19    0.00  1.0000
   0   4  12   13085   23085                                                      -15513    1.57    0.00  1.0000
   0   4  13  463396   44127                                                      552519    0.86    0.00  1.0000
   0   5  -5 1326574   93753                                                     1126100   -1.25    0.00  1.0000
   0   5  -4   12199   27238                                                      -10227   -1.52    0.00  1.0000
   0   5  -3 1031354  107035                                                     1308758   -1.77    0.00  1.0000
   0   5  -213151932  288123                                                    12107490   -2.02    0.00  1.0000
   0   5  -212727074  234873                                                    11699994   -2.02    0.00  1.0000
   0   5  -1  623017   82832                                                      917564   -2.32    0.00  1.0000
   0   5  -1  614365   62130                                                      907057   -2.32    0.00  1.0000
   0   5   0   38127   20788                                                       -6091   -2.68    0.00  1.0000
   0   5   0   71667   32136                                                       10262   -2.68    0.00  1.0000
   0   5   1  698377   42233                                                      378436   -3.03    0.00  1.0000
   0   5   1  755099   55068                                                      420483   -3.03    0.00  1.0000
   0   5   2  537427   73192                                                      941493   -3.26    0.00  1.0000
   0   5   2  546870   56942                                                      953979   -3.26    0.00  1.0000
   0   5   3  272022   34900                                                       78865   -3.33    0.00  1.0000
   0   5   3  364415   26264                                                      131887   -3.33    0.00  1.0000
   0   5   4 5600398  186553                                                     6793789   -3.30    0.00  1.0000
   0   5   4 5780398  156100                                                     6991897   -3.30    0.00  1.0000
   0   5   5 1470003   63967                                                      961873   -3.19    0.00  1.0000
   0   5   5 1536736   79728                                                     1016001   -3.19    0.00  1.0000
   0   5   6 3335368  139467                                                     4170823   -2.97    0.00  1.0000
   0   5   7  862944   64485                                                      546413   -2.61    0.00  1.0000
   0   5   7  926945   62341                                                      597576   -2.61    0.00  1.0000
   0   5   8   21439   33653                                                       94101   -2.21    0.00  1.0000
   0   5   8   25722   42312                                                      102866   -2.21    0.00  1.0000
   0   5   9 2606366  143038                                                     3076562   -1.92    0.00  1.0000
   0   5  11 3289128  164741                                                     3728956   -1.62    0.00  1.0000
   0   5  12 1031287   72442                                                      856665   -1.24    0.00  1.0000
   0   5  13  102247   25630                                                      135989   -0.67    0.00  1.0000
   0   6  -3  348163   68330                                                      453668    1.15    0.00  1.0000
   0   6  -2 4100701  189376                                                     4499209    1.32    0.00  1.0000
   0   6  -1 1650497  112590                                                     1389027    1.46    0.00  1.0000
   0   6  -1 1756759   96345                                                     1486647    1.46    0.00  1.0000
   0   6   0 2752519  129706                                                     3148762    1.59    0.00  1.0000
   0   6   0 2552097  146030                                                     2934134    1.59    0.00  1.0000
   0   6   1 1360865   78879                                                     1086030    1.71    0.00  1.0000
   0   6   1 1417124   92203                                                     1136350    1.71    0.00  1.0000
   0   6   2 1308173  108214                                                     1623035    1.79    0.00  1.0000
   0   6   2 1350232   81714                                                     1669845    1.79    0.00  1.0000
   0   6   3 3911729  116344                                                     3414129    1.79    0.00  1.0000
   0   6   3 3899547  149323                                                     3402749    1.79    0.00  1.0000
   0   6   4   49079   43788                                                      122209    1.76    0.00  1.0000
   0   6   4   94624   35038                                                      189799    1.76    0.00  1.0000
   0   6   5   85276   43594                                                      177645    1.80    0.00  1.0000
   0   6   5   23563   24964                                                       79863    1.80    0.00  1.0000
   0   6   6 3845987  122353                                                     3330950    1.87    0.00  1.0000
   0   6   6 3949649  130562                                                     3427469    1.87    0.00  1.0000
   0   6   6 3692806  150520                                                     3188501    1.87    0.00  1.0000
   0   6   7 3381805  144851                                                     3889995    1.83    0.00  1.0000
   0   6   7 3479800  165875                                                     3995044    1.83    0.00  1.0000
   0   6   8 2728247  120449                                                     2357449    1.60    0.00  1.0000
   0   6   8 2824422  138871                                                     2446908    1.60    0.00  1.0000
   0   6   9   23147   40146                                                       59811    1.28    0.00  1.0000
   0   6   9   23326   32154                                                       60098    1.28    0.00  1.0000
   0   6  11  522950   59910                                                      427621    0.95    0.00  1.0000
   0   6  12 1522185   89784                                                     1670245    0.81    0.00  1.0000
   0   7  -1  100620   30651                                                       57261   -1.08    0.00  1.0000
   0   7  -1   85602   33433                                                       46077   -1.08    0.00  1.0000
   0   7   0    6685   27563                                                       -6965   -1.12    0.00  1.0000
   0   7   0   31385   40786                                                        9116   -1.12    0.00  1.0000
   0   7   1  180544   59840                                                      257775   -1.14    0.00  1.0000
   0   7   1  211778   53189                                                      294856   -1.14    0.00  1.0000
   0   7   2  847461   75550                                                      698644   -1.17    0.00  1.0000
   0   7   2  876938   85761                                                      725431   -1.17    0.00  1.0000
   0   7   3 4990580  205566                                                     5382781   -1.18    0.00  1.0000
   0   7   4  940634   84099                                                      782243   -1.18    0.00  1.0000
   0   7   5  241660   59823                                                      333785   -1.19    0.00  1.0000
   0   7   6  349514   48284                                                      465695   -1.25    0.00  1.0000
   0   7   6  305697   75256                                                      414890   -1.25    0.00  1.0000
   0   7   7  671670   71447                                                      523745   -1.32    0.00  1.0000
   0   7   7  649969   63425                                                      504602   -1.32    0.00  1.0000
   0   7   8 2389874  126042                                                     2680306   -1.25    0.00  1.0000
   0   7   8 2580667  147664                                                     2882144   -1.25    0.00  1.0000
   0   7   9  979019   83830                                                      837223   -1.03    0.00  1.0000
   0   7  11  597964   61786                                                      535679   -0.57    0.00  1.0000
   0   7  12   20012   23473                                                       30930   -0.47    0.00  1.0000
   0   8   1  205577   53785                                                      253034    0.68    0.00  1.0000
   0   8   2  302262   48734                                                      256192    0.60    0.00  1.0000
   0   8   3  286831   52878                                                      243700    0.58    0.00  1.0000
   0   8   4  561390   80026                                                      629890    0.61    0.00  1.0000
   0   8   5 3046272  153199                                                     2879614    0.67    0.00  1.0000
   0   8   6 2461408  151787                                                     2628696    0.72    0.00  1.0000
   0   8   7 1035245   85699                                                      924844    0.77    0.00  1.0000
   0   8   7  950444   63345                                                      844790    0.77    0.00  1.0000
   0   8  12  491976   36193                                                      460947    0.31    0.00  1.0000
   0   9  11  157619   19909                                                      141914   -0.28    0.00  1.0000
   1  -9 -10  126342   18247                                                      117662   -0.17    0.00  1.0000
   1  -9  -9  620090   50880                                                      635352   -0.13    0.00  1.0000
   1  -9  -8 1585012   79539                                                     1580356   -0.03    0.00  1.0000
   1  -9  -7   67174   31268                                                       66654    0.01    0.00  1.0000
   1  -9  -6      19   21843                                                      -33538   -0.06    0.00  1.0000
   1  -9  -5  254570   36218                                                      241182   -0.18    0.00  1.0000
   1  -9  -4  295617   31763                                                      318247   -0.28    0.00  1.0000
   1  -9  -4  284216   41903                                                      306413   -0.28    0.00  1.0000
   1  -9  -3  777664   54189                                                      737481   -0.32    0.00  1.0000
   1  -9  -3  794395   54351                                                      753776   -0.32    0.00  1.0000
   1  -9  -2  416949   41329                                                      445330   -0.30    0.00  1.0000
   1  -9  -1  780103   46386                                                      750361   -0.23    0.00  1.0000
   1  -8 -11   14526    6942                                                       16625    0.12    0.00  1.0000
   1  -8 -10   51978   19180                                                       65667    0.39    0.00  1.0000
   1  -8  -9  127684   27310                                                      100159    0.56    0.00  1.0000
   1  -8  -8 1231660   90486                                                     1326728    0.58    0.00  1.0000
   1  -8  -7 1230716   88281                                                     1149200    0.51    0.00  1.0000
   1  -8  -6 3375341  146593                                                     3509908    0.50    0.00  1.0000
   1  -8  -5 2309640  105393                                                     2183510    0.58    0.00  1.0000
   1  -8  -5 2474597  120278                                                     2343979    0.58    0.00  1.0000
   1  -8  -4  631742   70725                                                      715562    0.70    0.00  1.0000
   1  -8  -4  635248   70626                                                      719293    0.70    0.00  1.0000
   1  -8  -3  301188   52105                                                      366937    0.78    0.00  1.0000
   1  -8  -3  270792   45124                                                      333302    0.78    0.00  1.0000
   1  -8  -2  228335   42673                                                      178307    0.77    0.00  1.0000
   1  -8  -2  263264   33367                                                      209320    0.77    0.00  1.0000
   1  -8  -1  902799   77311                                                      995801    0.66    0.00  1.0000
   1  -8  -1  751496   63906                                                      836546    0.66    0.00  1.0000
   1  -8  -1  849667   71921                                                      939959    0.66    0.00  1.0000
   1  -8   0  585829   56085                                                      531822    0.50    0.00  1.0000
   1  -8   0  577632   60309                                                      524013    0.50    0.00  1.0000
   1  -8   1  166782   35555                                                      187964    0.35    0.00  1.0000
   1  -8   2     299   12887                                                       -6893    0.24    0.00  1.0000
   1  -8   2    2198   14579                                                        3450    0.24    0.00  1.0000
   1  -7 -11 1117218   65028                                                     1071460   -0.30    0.00  1.0000
   1  -7 -10 2252504  108256                                                     2371609   -0.54    0.00  1.0000
   1  -7  -9 2114167  111291                                                     1948713   -0.80    0.00  1.0000
   1  -7  -8    5146   37422                                                      -28341   -0.99    0.00  1.0000
   1  -7  -7  128849   37504                                                      189637   -1.05    0.00  1.0000
   1  -7  -6  262309   40433                                                      191331   -1.03    0.00  1.0000
   1  -7  -6  356909   54071                                                      273195   -1.03    0.00  1.0000
   1  -7  -5   45552   37890                                                       43332   -1.01    0.00  1.0000
   1  -7  -5   13542   38165                                                        9661   -1.01    0.00  1.0000
   1  -7  -4   58772   34478                                                       28741   -1.04    0.00  1.0000
   1  -7  -4   74403   34521                                                       40002   -1.04    0.00  1.0000
   1  -7  -3   20868   35613                                                       50213   -1.11    0.00  1.0000
   1  -7  -3   33891   38859                                                       69593   -1.11    0.00  1.0000
   1  -7  -2  600563   60303                                                      479347   -1.14    0.00  1.0000
   1  -7  -2  686686   75010                                                      556596   -1.14    0.00  1.0000
   1  -7  -1  145031   42284                                                       92919   -1.05    0.00  1.0000
   1  -7  -1  158483   38947                                                      103747   -1.05    0.00  1.0000
   1  -7   0 2520211  135835                                                     2721905   -0.86    0.00  1.0000
   1  -7   1 3536510  147515                                                     3359500   -0.66    0.00  1.0000
   1  -7   2 2314361  119873                                                     2429338   -0.51    0.00  1.0000
   1  -7   3    6412   28066                                                       12238   -0.42    0.00  1.0000
   1  -7   4   71096   24584                                                       84748   -0.34    0.00  1.0000
   1  -6 -11   10677   22422                                                       20658    0.56    0.00  1.0000
   1  -6 -10  164023   36211                                                      125940    0.69    0.00  1.0000
   1  -6  -9 1431682  104514                                                     1578576    0.82    0.00  1.0000
   1  -6  -9 1512730  119075                                                     1663625    0.82    0.00  1.0000
   1  -6  -8  797698   73165                                                      673345    1.00    0.00  1.0000
   1  -6  -8  820910   76467                                                      694685    1.00    0.00  1.0000
   1  -6  -7 1581909  111860                                                     1812504    1.22    0.00  1.0000
   1  -6  -7 1636255  114716                                                     1870643    1.22    0.00  1.0000
   1  -6  -6   10307   28654                                                      -59967    1.40    0.00  1.0000
   1  -6  -6   69349   36176                                                       26261    1.40    0.00  1.0000
   1  -6  -6   10307   26251                                                       -8793    1.40    0.00  1.0000
   1  -6  -5 1055162   70910                                                      848246    1.46    0.00  1.0000
   1  -6  -5 1089738   76866                                                      879276    1.46    0.00  1.0000
   1  -6  -4 7815326  217193                                                     8411274    1.44    0.00  1.0000
   1  -6  -4 8202565  231971                                                     8812830    1.44    0.00  1.0000
   1  -6  -3 4904719  162992                                                     4458550    1.42    0.00  1.0000
   1  -6  -3 4881046  161715                                                     4435980    1.42    0.00  1.0000
   1  -6  -3 5152148  167723                                                     4694598    1.42    0.00  1.0000
   1  -6  -2 5730974  194733                                                     6238344    1.43    0.00  1.0000
   1  -6  -2 5935432  192286                                                     6451582    1.43    0.00  1.0000
   1  -6  -1 2228674  113919                                                     1937973    1.39    0.00  1.0000
   1  -6   0  315836   64920                                                      424130    1.23    0.00  1.0000
   1  -6   1   39347   37892                                                       73342    1.00    0.00  1.0000
   1  -6   2 1932637  115428                                                     1770834    0.82    0.00  1.0000
   1  -6   3   89183   47438                                                      123241    0.73    0.00  1.0000
   1  -6   4  608011   52541                                                      533825    0.68    0.00  1.0000
   1  -6   5  231467   37843                                                      271790    0.55    0.00  1.0000
   1  -5 -11 1103211   77282                                                     1211419   -0.69    0.00  1.0000
   1  -5 -10  557887   63403                                                      463559   -0.91    0.00  1.0000
   1  -5  -9  875799   76836                                                      741951   -1.02    0.00  1.0000
   1  -5  -9  858405   81202                                                      725948   -1.02    0.00  1.0000
   1  -5  -8 1621567  112043                                                     1834653   -1.12    0.00  1.0000
   1  -5  -8 1612092   96615                                                     1824574   -1.12    0.00  1.0000
   1  -5  -7 3726327  146004                                                     3362059   -1.33    0.00  1.0000
   1  -5  -7 3820583  119272                                                     3451619   -1.33    0.00  1.0000
   1  -5  -6 2525536  128528                                                     2933614   -1.70    0.00  1.0000
   1  -5  -5 3218598  118550                                                     2700826   -2.07    0.00  1.0000
   1  -5  -4  753448   72554                                                     1068320   -2.28    0.00  1.0000
   1  -5  -3  800559   48376                                                      528846   -2.30    0.00  1.0000
   1  -5  -2 3474398  107971                                                     2890244   -2.25    0.00  1.0000
   1  -5   0 5619001  163873                                                     4956445   -1.98    0.00  1.0000
   1  -5   1 1452447  104885                                                     1757764   -1.66    0.00  1.0000
   1  -5   1 1360130  109149                                                     1656055   -1.66    0.00  1.0000
   1  -5   2  497295   72494                                                      641917   -1.32    0.00  1.0000
   1  -5   2  575700   84920                                                      730606   -1.32    0.00  1.0000
   1  -5   3  569448   73998                                                      698860   -1.12    0.00  1.0000
   1  -5   3  436128   74827                                                      550209   -1.12    0.00  1.0000
   1  -5   4   16578   40817                                                       38002   -1.06    0.00  1.0000
   1  -5   4    5993   32692                                                      -14192   -1.06    0.00  1.0000
   1  -5   5  317363   55309                                                      240066   -1.01    0.00  1.0000
   1  -5   5  373426   50428                                                      289125   -1.01    0.00  1.0000
   1  -5   6 1215367   76025                                                     1352898   -0.84    0.00  1.0000
   1  -4 -11 1332782   76558                                                     1252819    0.48    0.00  1.0000
   1  -4 -10 2338707  129546                                                     2520287    0.80    0.00  1.0000
   1  -4 -10 2237747  126939                                                     2415438    0.80    0.00  1.0000
   1  -4  -9  334023   60297                                                      248327    1.10    0.00  1.0000
   1  -4  -9  295389   43769                                                      215174    1.10    0.00  1.0000
   1  -4  -8  409939   64343                                                      539499    1.30    0.00  1.0000
   1  -4  -8  353820   54825                                                      474815    1.30    0.00  1.0000
   1  -4  -7   37109   40545                                                       90685    1.49    0.00  1.0000
   1  -4  -7   11754   24755                                                       47032    1.49    0.00  1.0000
   1  -4  -6  850214   48161                                                      616503    1.88    0.00  1.0000
   1  -4  -5 5856555  132380                                                     6768779    2.50    0.00  1.0000
   1  -4  -3 9034152  197639                                                    10652503    3.55    0.00  1.0000
   1  -4  -2 4010706  103037                                                     3008283    3.69    0.00  1.0000
   1  -4  -1  445043   55550                                                      865300    3.62    0.00  1.0000
   1  -4   0  978375   71169                                                     1523156    3.37    0.00  1.0000
   1  -4   3  959012   75644                                                      716899    1.83    0.00  1.0000
   1  -4   4  181745   38690                                                       99009    1.54    0.00  1.0000
   1  -4   5  604808   86107                                                      779173    1.44    0.00  1.0000
   1  -4   6  712917   61014                                                      556950    1.35    0.00  1.0000
   1  -4   6  668884   67194                                                      518111    1.35    0.00  1.0000
   1  -4   7 1026565   71843                                                     1195709    1.10    0.00  1.0000
   1  -4   7 1005743   82850                                                     1173229    1.10    0.00  1.0000
   1  -4   8  406802   39610                                                      342264    0.73    0.00  1.0000
   1  -4   8  285055   24801                                                      231482    0.73    0.00  1.0000
   1  -3 -10 1066032   87554                                                     1025991   -0.27    0.00  1.0000
   1  -3 -10 1167644   93370                                                     1125720   -0.27    0.00  1.0000
   1  -3  -9 1728274  107941                                                     1850253   -0.63    0.00  1.0000
   1  -3  -9 1732749  114409                                                     1854883   -0.63    0.00  1.0000
   1  -3  -8 4218327  158507                                                     3928904   -0.99    0.00  1.0000
   1  -3  -8 4377874  147518                                                     4082933   -0.99    0.00  1.0000
   1  -3  -7 1964968   99191                                                     2235440   -1.28    0.00  1.0000
   1  -3  -6  300570   31660                                                      182435   -1.67    0.00  1.0000
   1  -3  -5 1521674   56705                                                     1130800   -2.34    0.00  1.0000
   1  -3  -4  735717   51699                                                     1203959   -3.29    0.00  1.0000
   1  -3  -311750586  123000                                                     9721572   -4.26    0.00  1.0000
   1  -3  -312327130  169996                                                    10246607   -4.26    0.00  1.0000
   1  -3  -211317412  196832                                                    13850175   -4.91    0.00  1.0000
   1  -3  -211846075  192384                                                    14434369   -4.91    0.00  1.0000
   1  -3  -1  932027   33775                                                      353542   -5.11    0.00  1.0000
   1  -3  -1  954527   37857                                                      367462   -5.11    0.00  1.0000
   1  -3   0  705570   30448                                                      233443   -4.91    0.00  1.0000
   1  -3   1 6729818  147927                                                     8502453   -4.42    0.00  1.0000
   1  -3   2   54523   28549                                                      253344   -3.73    0.00  1.0000
   1  -3   3 4010730  124170                                                     4922486   -2.97    0.00  1.0000
   1  -3   4 8484869  218567                                                     7530442   -2.32    0.00  1.0000
   1  -3   5 8261653  252760                                                     9074268   -1.90    0.00  1.0000
   1  -3   6 2335359  123942                                                     1981242   -1.66    0.00  1.0000
   1  -3   7   97106   41287                                                       42633   -1.45    0.00  1.0000
   1  -3   8  135181   42706                                                      203054   -1.14    0.00  1.0000
   1  -3   9  162446   27203                                                      121663   -0.75    0.00  1.0000
   1  -2 -10  151274   50998                                                      135297   -0.29    0.00  1.0000
   1  -2 -10   33058   30868                                                       25826   -0.29    0.00  1.0000
   1  -2  -9  210509   48983                                                      214953   -0.07    0.00  1.0000
   1  -2  -9  163294   54637                                                      167210   -0.07    0.00  1.0000
   1  -2  -8 1555146  100644                                                     1604816    0.27    0.00  1.0000
   1  -2  -8 1547507  109090                                                     1597056    0.27    0.00  1.0000
   1  -2  -7 3200248  116899                                                     3035343    0.64    0.00  1.0000
   1  -2  -6 7661165  164306                                                     8099667    1.07    0.00  1.0000
   1  -2  -5 5020352  106976                                                     4471810    1.73    0.00  1.0000
   1  -2  -411998760  159913                                                    13427378    2.75    0.00  1.0000
   1  -2  -3  625947   26433                                                      246950    4.04    0.00  1.0000
   1  -2  -3  642618   22938                                                      257462    4.04    0.00  1.0000
   1  -2  -2 3364502   63233                                                     2111651    5.24    0.00  1.0000
   1  -2  -117404112  186922                                                    21201208    5.95    0.00  1.0000
   1  -2  -117879352  210098                                                    21725404    5.95    0.00  1.0000
   1  -2   032501912  236040                                                    27714748    6.00    0.00  1.0000
   1  -2   1 1397778   74460                                                     2510067    5.53    0.00  1.0000
   1  -2   1 1430396   63743                                                     2553717    5.53    0.00  1.0000
   1  -2   2 4910447   78785                                                     3485079    4.80    0.00  1.0000
   1  -2   2 4882462  110716                                                     3461509    4.80    0.00  1.0000
   1  -2   2 5110959   93522                                                     3654317    4.80    0.00  1.0000
   1  -2   3      64   20147                                                       89457    4.00    0.00  1.0000
   1  -2   3    4852   30805                                                       49127    4.00    0.00  1.0000
   1  -2   4  455942   53894                                                      828380    3.23    0.00  1.0000
   1  -2   4  394739   69109                                                      745108    3.23    0.00  1.0000
   1  -2   5 1148395   74983                                                      788155    2.53    0.00  1.0000
   1  -2   5 1044781   74373                                                      702731    2.53    0.00  1.0000
   1  -2   6 1599778  116353                                                     1978822    1.95    0.00  1.0000
   1  -2   6 1432155   97093                                                     1791874    1.95    0.00  1.0000
   1  -2   6 1544361  124715                                                     1917133    1.95    0.00  1.0000
   1  -2   7  274889   57291                                                      171505    1.52    0.00  1.0000
   1  -2   8  270071   64667                                                      369119    1.21    0.00  1.0000
   1  -2   9   11737   35356                                                       31105    0.93    0.00  1.0000
   1  -2  10  326005   34412                                                      275591    0.63    0.00  1.0000
   1  -1 -10  706730   71187                                                      623882    0.70    0.00  1.0000
   1  -1  -9 1820019  114607                                                     1944952    0.63    0.00  1.0000
   1  -1  -9 1680542  114011                                                     1800674    0.63    0.00  1.0000
   1  -1  -8  850749   71929                                                      789829    0.46    0.00  1.0000
   1  -1  -8  822060   75538                                                      762194    0.46    0.00  1.0000
   1  -1  -7  195543   40001                                                      209638    0.22    0.00  1.0000
   1  -1  -6  816984   59556                                                      797643   -0.15    0.00  1.0000
   1  -1  -5  896385   58447                                                      993383   -0.69    0.00  1.0000
   1  -1  -5  928409   56655                                                     1027081   -0.69    0.00  1.0000
   1  -1  -413980666  160915                                                    13189381   -1.48    0.00  1.0000
   1  -1  -314141732  149402                                                    15573359   -2.55    0.00  1.0000
   1  -1   020514632  148626                                                    24377880   -5.61    0.00  1.0000
   1  -1   1   15810   24790                                                      257592   -5.56    0.00  1.0000
   1  -1   1   15483   16676                                                      256051   -5.56    0.00  1.0000
   1  -1   213789735  203768                                                    16613849   -4.98    0.00  1.0000
   1  -1   213865997  136082                                                    16697549   -4.98    0.00  1.0000
   1  -1   311460270  146808                                                     9469384   -4.24    0.00  1.0000
   1  -1   311403983  117493                                                     9418225   -4.24    0.00  1.0000
   1  -1   311309970  118026                                                     9332805   -4.24    0.00  1.0000
   1  -1   311117231  176950                                                     9157797   -4.24    0.00  1.0000
   1  -1   4 3452046  140534                                                     4477920   -3.55    0.00  1.0000
   1  -1   4 3473148  112421                                                     4501949   -3.55    0.00  1.0000
   1  -1   5    6424   35202                                                       85666   -2.92    0.00  1.0000
   1  -1   6 2679248  117313                                                     2164901   -2.27    0.00  1.0000
   1  -1   6 2685688  122800                                                     2170690   -2.27    0.00  1.0000
   1  -1   7  804661   87198                                                     1034061   -1.65    0.00  1.0000
   1  -1   7  842271   97595                                                     1076640   -1.65    0.00  1.0000
   1  -1   8  727456   63970                                                      588371   -1.18    0.00  1.0000
   1  -1   8  718894   76188                                                      580673   -1.18    0.00  1.0000
   1  -1   9  645971   87283                                                      759192   -0.93    0.00  1.0000
   1  -1  10  233234   40961                                                      181669   -0.78    0.00  1.0000
   1   0  -9 2076179  111216                                                     1851653   -1.10    0.00  1.0000
   1   0  -8 2052021  119874                                                     2295359   -1.14    0.00  1.0000
   1   0  -8 2213243  128402                                                     2465698   -1.14    0.00  1.0000
   1   0  -7 2171629  107023                                                     1933052   -1.15    0.00  1.0000
   1   0  -6  256100   44820                                                      340367   -1.07    0.00  1.0000
   1   0  -5  628811   46056                                                      535351   -0.84    0.00  1.0000
   1   0  -4 2227706   73663                                                     2115421   -0.52    0.00  1.0000
   1   0  -4 2061841   68558                                                     1953872   -0.52    0.00  1.0000
   1   0  -3 7896931  124349                                                     7955018   -0.14    0.00  1.0000
   1   0  -3 8032554  117201                                                     8091137   -0.14    0.00  1.0000
   1   0   0  539984   22175                                                      821127    2.36    0.00  1.0000
   1   0   116740905   62521                                                    14895765    3.19    0.00  1.0000
   1   0   2 1165126   17603                                                      688439    3.43    0.00  1.0000
   1   0   2 1187394   19678                                                      705581    3.43    0.00  1.0000
   1   0   311438560  156776                                                    13043982    3.16    0.00  1.0000
   1   0   415366556  119890                                                    13855874    2.72    0.00  1.0000
   1   0   415563768  182473                                                    14043173    2.72    0.00  1.0000
   1   0   7   13900   17076                                                      -34173    1.62    0.00  1.0000
   1   0   7     645   23476                                                       13635    1.62    0.00  1.0000
   1   0   8  895251   93710                                                     1062620    1.16    0.00  1.0000
   1   0   8 1011109  103352                                                     1188529    1.16    0.00  1.0000
   1   0   9 1987615  116172                                                     1813534    0.87    0.00  1.0000
   1   0   9 1947216  125683                                                     1774954    0.87    0.00  1.0000
   1   0  10  939146   87983                                                     1052701    0.78    0.00  1.0000
   1   0  11  221623   37399                                                      174322    0.73    0.00  1.0000
   1   1  -9  117455   23956                                                       58305    1.39    0.00  1.0000
   1   1  -8   13010   40577                                                        -921    1.57    0.00  1.0000
   1   1  -7 1395757  105267                                                     1714404    1.76    0.00  1.0000
   1   1  -6 2034416   92890                                                     1645015    1.98    0.00  1.0000
   1   1  -5 9514694  200283                                                    10501205    2.14    0.00  1.0000
   1   1  -4 5673525  119433                                                     4912286    2.28    0.00  1.0000
   1   1  -3   92994   28182                                                      237911    2.51    0.00  1.0000
   1   1   121892294  116553                                                    21116608    1.15    0.00  1.0000
   1   1   2 5400737   55141                                                     5391221   -0.03    0.00  1.0000
   1   1   3  104487   13593                                                      138791   -0.68    0.00  1.0000
   1   1   3  103727   18189                                                      137915   -0.68    0.00  1.0000
   1   1   4 1566027   36322                                                     1716465   -0.81    0.00  1.0000
   1   1   4 1673487   47444                                                     1828883   -0.81    0.00  1.0000
   1   1   7 2816292  130201                                                     2591767   -0.94    0.00  1.0000
   1   1   8 1948846  128456                                                     2117031   -0.81    0.00  1.0000
   1   1   9  474505   56863                                                      416465   -0.60    0.00  1.0000
   1   1   9  408847   57327                                                      355108   -0.60    0.00  1.0000
   1   1  10    1365   38987                                                       -5158   -0.51    0.00  1.0000
   1   1  11  207803   48787                                                      245953   -0.55    0.00  1.0000
   1   1  12  950679   49402                                                      875604   -0.54    0.00  1.0000
   1   2  -8  452124   58195                                                      314221   -1.54    0.00  1.0000
   1   2  -8  343441   46264                                                      224852   -1.54    0.00  1.0000
   1   2  -7  183216   54004                                                      306628   -1.73    0.00  1.0000
   1   2  -6  106260   29886                                                       32437   -2.02    0.00  1.0000
   1   2  -5 3418737  114381                                                     2799635   -2.42    0.00  1.0000
   1   2  -4 9258337  193379                                                    10561404   -2.85    0.00  1.0000
   1   2  -3 9088692  146531                                                     7688781   -3.33    0.00  1.0000
   1   2  -2 2978602   95603                                                     4054493   -3.96    0.00  1.0000
   1   2  -1 1859170   71176                                                     2888594   -4.62    0.00  1.0000
   1   2   0 3582735   95973                                                     5046775   -4.86    0.00  1.0000
   1   2   1 8040429  122985                                                     9912670   -4.30    0.00  1.0000
   1   2   216830444  143453                                                    15019864   -3.12    0.00  1.0000
   1   2   311171539  145363                                                    12143890   -1.96    0.00  1.0000
   1   2   310488223  124155                                                    11430996   -1.96    0.00  1.0000
   1   2   311236668  152578                                                    12211789   -1.96    0.00  1.0000
   1   2   310728129  108633                                                    11681394   -1.96    0.00  1.0000
   1   2   4 1975419   43470                                                     1723165   -1.28    0.00  1.0000
   1   2   4 1924967   62883                                                     1676065   -1.28    0.00  1.0000
   1   2   4 1872493   51590                                                     1627125   -1.28    0.00  1.0000
   1   2   4 1922234   68540                                                     1673515   -1.28    0.00  1.0000
   1   2   5 1017592   34895                                                      880649   -0.97    0.00  1.0000
   1   2   8 4113066  173130                                                     4104133    0.03    0.00  1.0000
   1   2   9 2341362  140625                                                     2358469    0.08    0.00  1.0000
   1   2  10  714324   79120                                                      710459    0.03    0.00  1.0000
   1   2  10  735256   85188                                                      731334    0.03    0.00  1.0000
   1   2  11  304220   56935                                                      311349    0.09    0.00  1.0000
   1   2  12   82503   30473                                                       91533    0.21    0.00  1.0000
   1   3  -7  122690   38644                                                       66234    1.36    0.00  1.0000
   1   3  -6  487314   77514                                                      654587    1.53    0.00  1.0000
   1   3  -6  465141   66146                                                      628847    1.53    0.00  1.0000
   1   3  -5   18899   17049                                                      -11519    1.89    0.00  1.0000
   1   3  -5   37389   16907                                                        4050    1.89    0.00  1.0000
   1   3  -4  310380   33181                                                      144915    2.43    0.00  1.0000
   1   3  -4  301094   35867                                                      138591    2.43    0.00  1.0000
   1   3  -3 4155662  130740                                                     5092964    3.00    0.00  1.0000
   1   3  -3 3986789  143231                                                     4905826    3.00    0.00  1.0000
   1   3  -217151414  221649                                                    15071963    3.56    0.00  1.0000
   1   3  -217426026  201965                                                    15329461    3.56    0.00  1.0000
   1   3  -1 9529391  158139                                                    11488696    4.16    0.00  1.0000
   1   3  -1 9822755  175112                                                    11810593    4.16    0.00  1.0000
   1   3   023806400  209703                                                    20601814    4.68    0.00  1.0000
   1   3   024061330  237786                                                    20839012    4.68    0.00  1.0000
   1   3   023245454  217453                                                    20080218    4.68    0.00  1.0000
   1   3   1  349510   43685                                                      882678    4.79    0.00  1.0000
   1   3   1  386584   46921                                                      941050    4.79    0.00  1.0000
   1   3   1  377254   51140                                                      926461    4.79    0.00  1.0000
   1   3   2 6986996  130748                                                     8734511    4.29    0.00  1.0000
   1   3   2 7082488  134585                                                     8841240    4.29    0.00  1.0000
   1   3   2 7015576  140372                                                     8766461    4.29    0.00  1.0000
   1   3   316224117  181984                                                    14290471    3.40    0.00  1.0000
   1   3   315922701  172607                                                    14007673    3.40    0.00  1.0000
   1   3   315834308  173522                                                    13924774    3.40    0.00  1.0000
   1   3   415832193  139962                                                    17371342    2.60    0.00  1.0000
   1   3   415924421  211106                                                    17467942    2.60    0.00  1.0000
   1   3   415648541  197770                                                    17178944    2.60    0.00  1.0000
   1   3   5 3557559  106372                                                     3006753    2.09    0.00  1.0000
   1   3   5 3594903   57552                                                     3041093    2.09    0.00  1.0000
   1   3   5 3482862   97306                                                     2938114    2.09    0.00  1.0000
   1   3   5 3406754   87362                                                     2868244    2.09    0.00  1.0000
   1   3   6 3332715  133350                                                     3806396    1.72    0.00  1.0000
   1   3   8   41090   30091                                                       67967    0.81    0.00  1.0000
   1   3   8    3780   23245                                                       14187    0.81    0.00  1.0000
   1   3   9  122488   48475                                                      149502    0.51    0.00  1.0000
   1   3  10  588137   83766                                                      544702    0.40    0.00  1.0000
   1   3  11 1928053  121509                                                     1989912    0.30    0.00  1.0000
   1   3  12  682517   61809                                                      667269    0.13    0.00  1.0000
   1   4  -6 6185872  199128                                                     5767738   -1.18    0.00  1.0000
   1   4  -5 7603655  235748                                                     8164066   -1.37    0.00  1.0000
   1   4  -4 3094522  129195                                                     2660706   -1.76    0.00  1.0000
   1   4  -4 2880498  107209                                                     2462528   -1.76    0.00  1.0000
   1   4  -3  136940   47235                                                      286876   -2.28    0.00  1.0000
   1   4  -3  123492   41312                                                      267253   -2.28    0.00  1.0000
   1   4  -2  880530   68299                                                     1300898   -2.78    0.00  1.0000
   1   4  -2  832529   77478                                                     1242409   -2.78    0.00  1.0000
   1   4  -1  563212   65019                                                      968298   -3.22    0.00  1.0000
   1   4  -1  546051   62766                                                      945753   -3.22    0.00  1.0000
   1   4   0 3672475  126820                                                     4752337   -3.63    0.00  1.0000
   1   4   0 3693919  124439                                                     4776727   -3.63    0.00  1.0000
   1   4   1 7737758  150734                                                     6222354   -3.95    0.00  1.0000
   1   4   1 7298206  133843                                                     5828847   -3.95    0.00  1.0000
   1   4   1 7424683  132050                                                     5941936   -3.95    0.00  1.0000
   1   4   2 3504752  118929                                                     4677758   -4.00    0.00  1.0000
   1   4   2 3498702  112123                                                     4670768   -4.00    0.00  1.0000
   1   4   3  164198   20261                                                       19681   -3.67    0.00  1.0000
   1   4   3  184065   24739                                                       26992   -3.67    0.00  1.0000
   1   4   3  137417   15401                                                       11121   -3.67    0.00  1.0000
   1   4   4  657226   36752                                                      342715   -3.10    0.00  1.0000
   1   4   4  670775   41058                                                      352519   -3.10    0.00  1.0000
   1   4   5   25543   28742                                                      116903   -2.54    0.00  1.0000
   1   4   5   33196   33317                                                      132829   -2.54    0.00  1.0000
   1   4   6 2491808   95245                                                     2036672   -2.08    0.00  1.0000
   1   4   6 2676373  107352                                                     2203850   -2.08    0.00  1.0000
   1   4   7 6410544  204602                                                     7040286   -1.67    0.00  1.0000
   1   4   8 2995201  116717                                                     2685936   -1.26    0.00  1.0000
   1   4   9  364611   59256                                                      450890   -0.93    0.00  1.0000
   1   4   9  478647   72607                                                      576836   -0.93    0.00  1.0000
   1   4  10   63321   32613                                                       92125   -0.71    0.00  1.0000
   1   4  11 1787533  114794                                                     1685795   -0.53    0.00  1.0000
   1   4  12 1420806   90759                                                     1473607   -0.30    0.00  1.0000
   1   4  13  827287   50923                                                      816308   -0.08    0.00  1.0000
   1   5  -5    1273   30357                                                        8368    1.12    0.00  1.0000
   1   5  -5    6622   20385                                                       -1011    1.12    0.00  1.0000
   1   5  -5   21782   29113                                                       48020    1.12    0.00  1.0000
   1   5  -4  993684   95511                                                     1187589    1.28    0.00  1.0000
   1   5  -4 1002851   97272                                                     1197609    1.28    0.00  1.0000
   1   5  -3 3395496  142135                                                     2996803    1.53    0.00  1.0000
   1   5  -3 3417740  139137                                                     3017703    1.53    0.00  1.0000
   1   5  -2  758437   81841                                                     1011851    1.86    0.00  1.0000
   1   5  -2  761554   78005                                                     1015451    1.86    0.00  1.0000
   1   5  -1  824392   61188                                                      561323    2.18    0.00  1.0000
   1   5  -1  745674   56702                                                      496712    2.18    0.00  1.0000
   1   5   0 3796035  123687                                                     3123142    2.49    0.00  1.0000
   1   5   0 3738762  115150                                                     3071212    2.49    0.00  1.0000
   1   5   1 8303577  203779                                                     9508674    2.78    0.00  1.0000
   1   5   1 8410952  191410                                                     9623553    2.78    0.00  1.0000
   1   5   2 5988551  145083                                                     4973745    2.98    0.00  1.0000
   1   5   2 6060818  134446                                                     5039625    2.98    0.00  1.0000
   1   5   3 4645242  153885                                                     5633199    3.00    0.00  1.0000
   1   5   3 4482124  135824                                                     5453421    3.00    0.00  1.0000
   1   5   4 1210622   66420                                                      806772    2.78    0.00  1.0000
   1   5   4 1203009   57009                                                      800559    2.78    0.00  1.0000
   1   5   5 1077826   79145                                                     1470237    2.40    0.00  1.0000
   1   5   5 1127506   90890                                                     1528166    2.40    0.00  1.0000
   1   5   6    5118   39325                                                       45682    1.96    0.00  1.0000
   1   5   6   21175   29271                                                       82814    1.96    0.00  1.0000
   1   5   7 1504714   74139                                                     1242459    1.54    0.00  1.0000
   1   5   7 1421664   93083                                                     1167099    1.54    0.00  1.0000
   1   5   8 1748822  125724                                                     1987392    1.20    0.00  1.0000
   1   5   8 1553914   99527                                                     1779234    1.20    0.00  1.0000
   1   5   9 1911867  102072                                                     1721394    0.97    0.00  1.0000
   1   5  10 2918665  160338                                                     3126722    0.82    0.00  1.0000
   1   5  11  404570   63533                                                      346612    0.65    0.00  1.0000
   1   5  12   37774   24652                                                       27436    0.40    0.00  1.0000
   1   5  13  865707   52034                                                      883673    0.13    0.00  1.0000
   1   6  -4  204648   34149                                                      147323   -0.94    0.00  1.0000
   1   6  -3 1180023   92547                                                     1340268   -0.98    0.00  1.0000
   1   6  -3 1076328   90247                                                     1229599   -0.98    0.00  1.0000
   1   6  -3 1119973  103380                                                     1276218   -0.98    0.00  1.0000
   1   6  -2  301927   43837                                                      221475   -1.09    0.00  1.0000
   1   6  -2  348936   52432                                                      261987   -1.09    0.00  1.0000
   1   6  -2  355130   60952                                                      267358   -1.09    0.00  1.0000
   1   6  -1 5039889  190397                                                     5472221   -1.30    0.00  1.0000
   1   6  -1 5352627  178909                                                     5797898   -1.30    0.00  1.0000
   1   6  -1 5164228  171372                                                     5601749   -1.30    0.00  1.0000
   1   6   0 3252335  120066                                                     2854174   -1.57    0.00  1.0000
   1   6   0 3289347  126220                                                     2888854   -1.57    0.00  1.0000
   1   6   0 3460358  138012                                                     3049252   -1.57    0.00  1.0000
   1   6   1   77729   33978                                                      168963   -1.82    0.00  1.0000
   1   6   1  116321   49111                                                      224042   -1.82    0.00  1.0000
   1   6   2 1674590  111493                                                     2067291   -1.98    0.00  1.0000
   1   6   2 1540193   95651                                                     1917653   -1.98    0.00  1.0000
   1   6   3 4787594  134397                                                     4175073   -1.99    0.00  1.0000
   1   6   3 4818783  153382                                                     4204202   -1.99    0.00  1.0000
   1   6   4 1661143  110287                                                     2034562   -1.89    0.00  1.0000
   1   6   4 1582931   93213                                                     1947902   -1.89    0.00  1.0000
   1   6   5 2984443  109854                                                     2565807   -1.73    0.00  1.0000
   1   6   5 2940417  123161                                                     2524997   -1.73    0.00  1.0000
   1   6   6 4483108  176670                                                     4960405   -1.51    0.00  1.0000
   1   6   6 4711796  141868                                                     5200813   -1.51    0.00  1.0000
   1   6   6 4458801  158474                                                     4934836   -1.51    0.00  1.0000
   1   6   7 1883197   99422                                                     1646635   -1.22    0.00  1.0000
   1   6   7 1859237   87753                                                     1624235   -1.22    0.00  1.0000
   1   6   7 1893804  111592                                                     1656555   -1.22    0.00  1.0000
   1   6   8  279355   59601                                                      354720   -0.92    0.00  1.0000
   1   6   8  180037   45738                                                      241425   -0.92    0.00  1.0000
   1   6   9  261690   60564                                                      316696   -0.71    0.00  1.0000
   1   6  10 3046397  135099                                                     2891994   -0.62    0.00  1.0000
   1   6  11 2565120  138361                                                     2695706   -0.55    0.00  1.0000
   1   6  12 1266240   79913                                                     1203609   -0.39    0.00  1.0000
   1   6  13   64436   14467                                                       69587   -0.14    0.00  1.0000
   1   7  -3   43079   14021                                                       26370    0.62    0.00  1.0000
   1   7  -2   28111   34517                                                       45893    0.64    0.00  1.0000
   1   7  -2    2170   40701                                                      -29108    0.64    0.00  1.0000
   1   7  -1 2062459  119490                                                     1900113    0.79    0.00  1.0000
   1   7  -1 2038859  107043                                                     1877463    0.79    0.00  1.0000
   1   7   0 2658631  135329                                                     2925704    1.10    0.00  1.0000
   1   7   0 2785435  151077                                                     3058652    1.10    0.00  1.0000
   1   7   0 2700916  129323                                                     2970053    1.10    0.00  1.0000
   1   7   1 2346067  105503                                                     2032772    1.46    0.00  1.0000
   1   7   1 2403333  114080                                                     2086101    1.46    0.00  1.0000
   1   7   1 2334830  124161                                                     2022312    1.46    0.00  1.0000
   1   7   2 4044512  179816                                                     4553279    1.69    0.00  1.0000
   1   7   2 3629483  145776                                                     4112233    1.69    0.00  1.0000
   1   7   2 3857192  159707                                                     4354391    1.69    0.00  1.0000
   1   7   3 3793736  129114                                                     3334480    1.67    0.00  1.0000
   1   7   3 3815440  142853                                                     3354830    1.67    0.00  1.0000
   1   7   3 3749739  153499                                                     3293240    1.67    0.00  1.0000
   1   7   4 2617788  134042                                                     2976643    1.48    0.00  1.0000
   1   7   4 2827962  130056                                                     3200491    1.48    0.00  1.0000
   1   7   4 2834251  151440                                                     3207181    1.48    0.00  1.0000
   1   7   5   45757   28381                                                       93499    1.27    0.00  1.0000
   1   7   5   34518   35426                                                       77080    1.27    0.00  1.0000
   1   7   5   28734   21999                                                       68296    1.27    0.00  1.0000
   1   7   6 3312211  129023                                                     3015283    1.15    0.00  1.0000
   1   7   6 3059752  108909                                                     2774635    1.15    0.00  1.0000
   1   7   7 2255943  111261                                                     2487228    1.03    0.00  1.0000
   1   7   7 2084612  120906                                                     2307159    1.03    0.00  1.0000
   1   7   7 2153316  136041                                                     2379409    1.03    0.00  1.0000
   1   7   8 1141139   77238                                                     1017531    0.82    0.00  1.0000
   1   7   8 1197998   92185                                                     1071260    0.82    0.00  1.0000
   1   7   9  570462   80697                                                      631886    0.55    0.00  1.0000
   1   7   9  470093   66594                                                      525996    0.55    0.00  1.0000
   1   7  10   97521   42962                                                      114258    0.35    0.00  1.0000
   1   7  11  570267   64349                                                      538826    0.29    0.00  1.0000
   1   7  12 1058072   68088                                                     1094040    0.24    0.00  1.0000
   1   8  -2 2339152   94078                                                     2422858   -0.37    0.00  1.0000
   1   8  -1  644822   56832                                                      591776   -0.46    0.00  1.0000
   1   8   0   76151   30451                                                       50318   -0.71    0.00  1.0000
   1   8   0   95011   37758                                                       65844   -0.71    0.00  1.0000
   1   8   1  428415   65208                                                      538368   -1.09    0.00  1.0000
   1   8   1  377067   61195                                                      480609   -1.09    0.00  1.0000
   1   8   2  431752   55503                                                      303456   -1.47    0.00  1.0000
   1   8   2  508163   63320                                                      368027   -1.47    0.00  1.0000
   1   8   3  130983   31131                                                       61231   -1.64    0.00  1.0000
   1   8   3  130867   42390                                                       61152   -1.64    0.00  1.0000
   1   8   4   12442   15435                                                      -22262   -1.53    0.00  1.0000
   1   8   4   12442   28936                                                      -51840   -1.53    0.00  1.0000
   1   8   5  218161   51225                                                      312312   -1.26    0.00  1.0000
   1   8   5  212206   56622                                                      305178   -1.26    0.00  1.0000
   1   8   6   65092   32858                                                       32316   -1.04    0.00  1.0000
   1   8   6   70045   30939                                                       35833   -1.04    0.00  1.0000
   1   8   7  122565   34859                                                       80652   -0.91    0.00  1.0000
   1   8   7   50157   30222                                                       24907   -0.91    0.00  1.0000
   1   8   8 2210630  109958                                                     2382539   -0.78    0.00  1.0000
   1   8   8 2234020  135759                                                     2406818   -0.78    0.00  1.0000
   1   8   9 5279072  161972                                                     5097584   -0.55    0.00  1.0000
   1   8  11  396995   48918                                                      385023   -0.13    0.00  1.0000
   1   8  12  122803   21322                                                      118204   -0.09    0.00  1.0000
   1   9   5 4065084  166838                                                     3774626    1.01    0.00  1.0000
   1   9   7  591099   45822                                                      526482    0.59    0.00  1.0000
   1   9   8  189867   40268                                                      220059    0.46    0.00  1.0000
   1   9  11 1404481   72459                                                     1418367    0.08    0.00  1.0000
   2  -9  -8   85490   16047                                                       89187   -0.09    0.00  1.0000
   2  -9  -7   30319    9186                                                       29048   -0.05    0.00  1.0000
   2  -9  -6  127488   25566                                                      129282   -0.03    0.00  1.0000
   2  -9  -5  282360   29147                                                      275205   -0.09    0.00  1.0000
   2  -9  -4   47413   13989                                                       53708   -0.20    0.00  1.0000
   2  -9  -3  185656   22960                                                      169093   -0.27    0.00  1.0000
   2  -8 -10  626656   44306                                                      601038   -0.22    0.00  1.0000
   2  -8  -9  667093   54269                                                      682940   -0.13    0.00  1.0000
   2  -8  -8  195510   35990                                                      196705    0.02    0.00  1.0000
   2  -8  -7  440575   37744                                                      430530    0.10    0.00  1.0000
   2  -8  -7  407142   52135                                                      397487    0.10    0.00  1.0000
   2  -8  -6  306711   40319                                                      315739    0.11    0.00  1.0000
   2  -8  -6  286080   47883                                                      294801    0.11    0.00  1.0000
   2  -8  -5   36807   23505                                                       40256    0.12    0.00  1.0000
   2  -8  -5      79   20695                                                      -37019    0.12    0.00  1.0000
   2  -8  -4   85113   25373                                                       76850    0.20    0.00  1.0000
   2  -8  -4  129654   30796                                                      119407    0.20    0.00  1.0000
   2  -8  -3 1236869   79356                                                     1289828    0.32    0.00  1.0000
   2  -8  -3 1187682   70211                                                     1239589    0.32    0.00  1.0000
   2  -8  -2 1847436   91261                                                     1764064    0.43    0.00  1.0000
   2  -8  -1  482734   50480                                                      531509    0.47    0.00  1.0000
   2  -8   0   45599   17684                                                       32377    0.46    0.00  1.0000
   2  -8   1  113890   24527                                                       94574    0.41    0.00  1.0000
   2  -7 -11   14586   11627                                                       14566    0.00    0.00  1.0000
   2  -7 -10   33935   20850                                                       27567    0.25    0.00  1.0000
   2  -7  -9     622   23435                                                      -21911    0.34    0.00  1.0000
   2  -7  -8  215256   48332                                                      228393    0.19    0.00  1.0000
   2  -7  -8  198326   37184                                                      210944    0.19    0.00  1.0000
   2  -7  -7 1905902   98688                                                     1919253   -0.07    0.00  1.0000
   2  -7  -7 1804323  112689                                                     1817314   -0.07    0.00  1.0000
   2  -7  -6 2443865  113743                                                     2388328   -0.25    0.00  1.0000
   2  -7  -6 2406982  125934                                                     2351869   -0.25    0.00  1.0000
   2  -7  -5  431443   61878                                                      459296   -0.29    0.00  1.0000
   2  -7  -5  411974   52183                                                      439201   -0.29    0.00  1.0000
   2  -7  -4  255843   54980                                                      235965   -0.28    0.00  1.0000
   2  -7  -4  278559   38756                                                      257800   -0.28    0.00  1.0000
   2  -7  -3   16560   24950                                                       11300   -0.31    0.00  1.0000
   2  -7  -3   35851   35422                                                       27882   -0.31    0.00  1.0000
   2  -7  -2  966624   86396                                                     1026451   -0.41    0.00  1.0000
   2  -7  -2 1103752   79942                                                     1167619   -0.41    0.00  1.0000
   2  -7  -1 1517391   99512                                                     1424357   -0.53    0.00  1.0000
   2  -7   0 1393601   95933                                                     1499346   -0.60    0.00  1.0000
   2  -7   0 1415334   97295                                                     1521886   -0.60    0.00  1.0000
   2  -7   1  114779   34309                                                       86271   -0.62    0.00  1.0000
   2  -7   2   14150   28229                                                       25918   -0.58    0.00  1.0000
   2  -7   3   16263   20999                                                        8657   -0.47    0.00  1.0000
   2  -6 -11  414762   41876                                                      428721    0.15    0.00  1.0000
   2  -6 -10  473854   56926                                                      482643   -0.09    0.00  1.0000
   2  -6  -9  207537   55162                                                      186795   -0.32    0.00  1.0000
   2  -6  -8  453047   58060                                                      485580   -0.33    0.00  1.0000
   2  -6  -8  458213   76176                                                      490928   -0.33    0.00  1.0000
   2  -6  -8  410463   74001                                                      441456   -0.33    0.00  1.0000
   2  -6  -7  152817   43417                                                      149427   -0.06    0.00  1.0000
   2  -6  -7  140920   45452                                                      137666   -0.06    0.00  1.0000
   2  -6  -7  158513   40256                                                      155060   -0.06    0.00  1.0000
   2  -6  -6   68620   34393                                                       80077    0.29    0.00  1.0000
   2  -6  -6  127456   41287                                                      142912    0.29    0.00  1.0000
   2  -6  -6  154534   34155                                                      171508    0.29    0.00  1.0000
   2  -6  -5  419117   50367                                                      373169    0.50    0.00  1.0000
   2  -6  -5  479289   61700                                                      430061    0.50    0.00  1.0000
   2  -6  -5  428658   53580                                                      382175    0.50    0.00  1.0000
   2  -6  -4 3839890  161079                                                     3989434    0.52    0.00  1.0000
   2  -6  -4 3754271  156586                                                     3902155    0.52    0.00  1.0000
   2  -6  -3 4067330  162243                                                     3936684    0.45    0.00  1.0000
   2  -6  -3 3838514  149906                                                     3711627    0.45    0.00  1.0000
   2  -6  -2  390652   58789                                                      430737    0.43    0.00  1.0000
   2  -6  -2  308528   49104                                                      344260    0.43    0.00  1.0000
   2  -6  -2  339516   55719                                                      376952    0.43    0.00  1.0000
   2  -6  -1  341386   54883                                                      385102    0.50    0.00  1.0000
   2  -6   0 2809375  138320                                                     2667586    0.59    0.00  1.0000
   2  -6   1 2037115  121376                                                     2170090    0.63    0.00  1.0000
   2  -6   2 1035274   84970                                                      946620    0.61    0.00  1.0000
   2  -6   3  347207   52067                                                      396748    0.56    0.00  1.0000
   2  -6   4  105923   29507                                                      129327    0.47    0.00  1.0000
   2  -5 -12   74400   13159                                                       76495   -0.05    0.00  1.0000
   2  -5 -11   48443   20460                                                       45342   -0.10    0.00  1.0000
   2  -5 -10  207707   42936                                                      210285   -0.04    0.00  1.0000
   2  -5  -9  376005   57822                                                      384961    0.10    0.00  1.0000
   2  -5  -9  320097   54497                                                      328364    0.10    0.00  1.0000
   2  -5  -8 2142668  126883                                                     2106141    0.17    0.00  1.0000
   2  -5  -8 2143152  111652                                                     2106621    0.17    0.00  1.0000
   2  -5  -8 2082227  135417                                                     2046222    0.17    0.00  1.0000
   2  -5  -7 2876717  143803                                                     2887694    0.04    0.00  1.0000
   2  -5  -7 2877874  151021                                                     2888854    0.04    0.00  1.0000
   2  -5  -7 2670599  125234                                                     2681176    0.04    0.00  1.0000
   2  -5  -6  325385   50871                                                      347868   -0.27    0.00  1.0000
   2  -5  -6  323823   54920                                                      346253   -0.27    0.00  1.0000
   2  -5  -6  303531   56977                                                      325259   -0.27    0.00  1.0000
   2  -5  -5    1886   31542                                                      -44396   -0.60    0.00  1.0000
   2  -5  -5   36511   28351                                                       23135   -0.60    0.00  1.0000
   2  -5  -5   16877   22856                                                        8165   -0.60    0.00  1.0000
   2  -5  -4 2232985  113198                                                     2067321   -0.78    0.00  1.0000
   2  -5  -4 2104205  109399                                                     1943482   -0.78    0.00  1.0000
   2  -5  -4 2081790  106750                                                     1921943   -0.78    0.00  1.0000
   2  -5  -3 7915040  220236                                                     8234466   -0.77    0.00  1.0000
   2  -5  -3 7556764  207040                                                     7868949   -0.77    0.00  1.0000
   2  -5  -3 7545622  209510                                                     7857579   -0.77    0.00  1.0000
   2  -5  -2 7715581  197567                                                     7437893   -0.69    0.00  1.0000
   2  -5  -2 7606291  211695                                                     7330594   -0.69    0.00  1.0000
   2  -5  -2 7100281  188690                                                     6833998   -0.69    0.00  1.0000
   2  -5  -1 3854869  142625                                                     4046874   -0.66    0.00  1.0000
   2  -5  -1 4017205  163697                                                     4213162   -0.66    0.00  1.0000
   2  -5   0   39687   36332                                                       22328   -0.70    0.00  1.0000
   2  -5   1  151603   43915                                                      113335   -0.72    0.00  1.0000
   2  -5   2  301785   59743                                                      358359   -0.68    0.00  1.0000
   2  -5   3  637248   69124                                                      569648   -0.60    0.00  1.0000
   2  -5   4  370426   55050                                                      420097   -0.54    0.00  1.0000
   2  -5   5  223032   34064                                                      190420   -0.50    0.00  1.0000
   2  -4 -12  429318   33345                                                      427672   -0.02    0.00  1.0000
   2  -4 -11 1369042   82053                                                     1379408   -0.06    0.00  1.0000
   2  -4 -10  624846   71345                                                      613529   -0.10    0.00  1.0000
   2  -4  -9  118751   53949                                                      124760   -0.12    0.00  1.0000
   2  -4  -9   83917   39982                                                       88980   -0.12    0.00  1.0000
   2  -4  -8  470711   58865                                                      480779   -0.10    0.00  1.0000
   2  -4  -8  425681   64769                                                      435258   -0.10    0.00  1.0000
   2  -4  -7 2016758  116962                                                     2013242   -0.02    0.00  1.0000
   2  -4  -7 2006078  108876                                                     2002572   -0.02    0.00  1.0000
   2  -4  -6 1142331   95002                                                     1116740    0.17    0.00  1.0000
   2  -4  -6 1189780   86436                                                     1163660    0.17    0.00  1.0000
   2  -4  -6 1157016   78876                                                     1131260    0.17    0.00  1.0000
   2  -4  -5 4677762  169961                                                     4821867    0.45    0.00  1.0000
   2  -4  -4 3328127  131312                                                     3122802    0.79    0.00  1.0000
   2  -4  -3   87995   25681                                                       48671    1.05    0.00  1.0000
   2  -4  -2 3271464  130882                                                     3584418    1.16    0.00  1.0000
   2  -4  -1 5888638  158718                                                     5480761    1.18    0.00  1.0000
   2  -4   0 1652170   95343                                                     1879293    1.18    0.00  1.0000
   2  -4   1  829647   70928                                                      680750    1.18    0.00  1.0000
   2  -4   1  810652   58525                                                      663554    1.18    0.00  1.0000
   2  -4   2  273419   50241                                                      365488    1.12    0.00  1.0000
   2  -4   2  304292   55840                                                      401053    1.12    0.00  1.0000
   2  -4   2  289033   65730                                                      383507    1.12    0.00  1.0000
   2  -4   3  231283   50557                                                      304505    0.97    0.00  1.0000
   2  -4   3  181019   62186                                                      246378    0.97    0.00  1.0000
   2  -4   4  830754   76461                                                      727225    0.81    0.00  1.0000
   2  -4   4  938187   93033                                                      827952    0.81    0.00  1.0000
   2  -4   5  584670   84120                                                      665269    0.70    0.00  1.0000
   2  -4   5  522508   65970                                                      598844    0.70    0.00  1.0000
   2  -4   6  897210   61852                                                      812822    0.63    0.00  1.0000
   2  -4   6  891071   61002                                                      806979    0.63    0.00  1.0000
   2  -4   6  966890   76218                                                      879207    0.63    0.00  1.0000
   2  -4   7  492577   44202                                                      542860    0.48    0.00  1.0000
   2  -3 -11      43   20036                                                        -487    0.09    0.00  1.0000
   2  -3 -10    6118   43767                                                        3662    0.29    0.00  1.0000
   2  -3 -10   34688   36334                                                       28617    0.29    0.00  1.0000
   2  -3  -9  819136   85456                                                      764046    0.43    0.00  1.0000
   2  -3  -9  853030   82742                                                      796793    0.43    0.00  1.0000
   2  -3  -8 1524190  114281                                                     1600296    0.42    0.00  1.0000
   2  -3  -8 1477247   96585                                                     1552186    0.42    0.00  1.0000
   2  -3  -7   25618   34916                                                       33099    0.30    0.00  1.0000
   2  -3  -7   10409   32022                                                       15351    0.30    0.00  1.0000
   2  -3  -7    5647   25145                                                        9413    0.30    0.00  1.0000
   2  -3  -6 1380648   84513                                                     1354658    0.15    0.00  1.0000
   2  -3  -513823021  232838                                                    13803875   -0.04    0.00  1.0000
   2  -3  -423664324  335390                                                    23919184   -0.36    0.00  1.0000
   2  -3  -311537963  218485                                                    11126899   -0.84    0.00  1.0000
   2  -3  -2 1015072   72261                                                     1219779   -1.33    0.00  1.0000
   2  -3  -1 3811944  129785                                                     4298011   -1.66    0.00  1.0000
   2  -3   0 4633772  127408                                                     4092433   -1.78    0.00  1.0000
   2  -3   1 3852990  133225                                                     4382621   -1.80    0.00  1.0000
   2  -3   2 2650890   95540                                                     2251900   -1.75    0.00  1.0000
   2  -3   3  639616   59436                                                      840571   -1.61    0.00  1.0000
   2  -3   3  667719   77054                                                      872745   -1.61    0.00  1.0000
   2  -3   4  180260   34233                                                      107119   -1.34    0.00  1.0000
   2  -3   4  115950   46984                                                       59149   -1.34    0.00  1.0000
   2  -3   5  627191   66721                                                      752578   -1.04    0.00  1.0000
   2  -3   5  750331   84012                                                      886940   -1.04    0.00  1.0000
   2  -3   6    3501   29767                                                       -3246   -0.81    0.00  1.0000
   2  -3   6    3017   40225                                                        9265   -0.81    0.00  1.0000
   2  -3   7  265934   49510                                                      219165   -0.66    0.00  1.0000
   2  -3   8 1075452   63704                                                     1147020   -0.47    0.00  1.0000
   2  -3   8 1186097   77244                                                     1261199   -0.47    0.00  1.0000
   2  -2 -11   11633   15312                                                       11049    0.04    0.00  1.0000
   2  -2 -10  853744   81198                                                      822827   -0.23    0.00  1.0000
   2  -2 -10  831441   83661                                                      800934   -0.23    0.00  1.0000
   2  -2  -9 3480572  156941                                                     3632347   -0.55    0.00  1.0000
   2  -2  -9 3556327  162014                                                     3709727   -0.55    0.00  1.0000
   2  -2  -8 4667411  176472                                                     4440580   -0.73    0.00  1.0000
   2  -2  -8 4656327  163629                                                     4429770   -0.73    0.00  1.0000
   2  -2  -7 2183117  121380                                                     2333919   -0.69    0.00  1.0000
   2  -2  -7 2244806   89595                                                     2397688   -0.69    0.00  1.0000
   2  -2  -7 2201601  112974                                                     2353029   -0.69    0.00  1.0000
   2  -2  -6 6568377  170877                                                     6365713   -0.55    0.00  1.0000
   2  -2  -5 2645675  109106                                                     2748195   -0.43    0.00  1.0000
   2  -2  -4 1579517   75822                                                     1628255   -0.26    0.00  1.0000
   2  -2  -312509785  163991                                                    12581086    0.14    0.00  1.0000
   2  -2  -214097399  189360                                                    13656876    0.81    0.00  1.0000
   2  -2  -214294287  216404                                                    13850675    0.81    0.00  1.0000
   2  -2  -1  978189   55153                                                     1208329    1.52    0.00  1.0000
   2  -2  -1  960239   64679                                                     1188369    1.52    0.00  1.0000
   2  -2   0  246966   30183                                                      125690    1.96    0.00  1.0000
   2  -2   0  271781   20637                                                      143571    1.96    0.00  1.0000
   2  -2   1   23287   17843                                                       -2760    2.10    0.00  1.0000
   2  -2   1    1073   15805                                                       14379    2.10    0.00  1.0000
   2  -2   2  889351   65625                                                     1194639    2.06    0.00  1.0000
   2  -2   3 2129837   82487                                                     1733884    1.96    0.00  1.0000
   2  -2   4 2344585  105990                                                     2751625    1.76    0.00  1.0000
   2  -2   4 2118929  125881                                                     2506687    1.76    0.00  1.0000
   2  -2   5 4643373  171087                                                     4212362    1.41    0.00  1.0000
   2  -2   6 1483433  117175                                                     1670585    1.03    0.00  1.0000
   2  -2   7  102387   38327                                                       70849    0.74    0.00  1.0000
   2  -2   8  275871   49202                                                      235189    0.55    0.00  1.0000
   2  -2   9  945138   69844                                                      998037    0.37    0.00  1.0000
   2  -1 -10 1112688   80854                                                     1097800    0.10    0.00  1.0000
   2  -1  -9  525929   70223                                                      571837    0.43    0.00  1.0000
   2  -1  -9  564905   75036                                                      612448    0.43    0.00  1.0000
   2  -1  -8  489730   73600                                                      565889    0.72    0.00  1.0000
   2  -1  -8  549501   76216                                                      630010    0.72    0.00  1.0000
   2  -1  -7 2315443  109528                                                     2134761    0.83    0.00  1.0000
   2  -1  -7 2376550  115602                                                     2193450    0.83    0.00  1.0000
   2  -1  -612094856  233698                                                    12494587    0.78    0.00  1.0000
   2  -1  -511233203  197914                                                    10880701    0.73    0.00  1.0000
   2  -1  -4 1831941   80102                                                     1976702    0.72    0.00  1.0000
   2  -1  -3  115078   27813                                                      145421    0.58    0.00  1.0000
   2  -1  -2 3571303   72570                                                     3550028    0.08    0.00  1.0000
   2  -1  -2 3649605  103670                                                     3628097    0.08    0.00  1.0000
   2  -1  -1 1640427   52664                                                     1507316   -0.73    0.00  1.0000
   2  -1  -1 1570833   63228                                                     1440637   -0.73    0.00  1.0000
   2  -1   0 6696629   78689                                                     7270544   -1.49    0.00  1.0000
   2  -1   0 6420139  101733                                                     6982327   -1.49    0.00  1.0000
   2  -1   0 6338049  132453                                                     6896708   -1.49    0.00  1.0000
   2  -1   1 5197583   72616                                                     4588329   -1.89    0.00  1.0000
   2  -1   1 4827615  106799                                                     4241132   -1.89    0.00  1.0000
   2  -1   1 5013883   74830                                                     4415830   -1.89    0.00  1.0000
   2  -1   1 4966725  109368                                                     4371581   -1.89    0.00  1.0000
   2  -1   2  656804   34231                                                      904274   -1.93    0.00  1.0000
   2  -1   2  601337   58366                                                      838976   -1.93    0.00  1.0000
   2  -1   2  640313   52365                                                      884905   -1.93    0.00  1.0000
   2  -1   3   44910   28345                                                      118757   -1.82    0.00  1.0000
   2  -1   3   57243   38722                                                      138347   -1.82    0.00  1.0000
   2  -1   4   64517   29403                                                      142269   -1.70    0.00  1.0000
   2  -1   4   53375   37978                                                      125458   -1.70    0.00  1.0000
   2  -1   5 1149786   98973                                                     1396467   -1.51    0.00  1.0000
   2  -1   5 1154704   77453                                                     1401887   -1.51    0.00  1.0000
   2  -1   6 2615378  133473                                                     2340289   -1.20    0.00  1.0000
   2  -1   6 2392189  123956                                                     2129431   -1.20    0.00  1.0000
   2  -1   7 2924082  154877                                                     3146842   -0.88    0.00  1.0000
   2  -1   7 2413023  146645                                                     2615756   -0.88    0.00  1.0000
   2  -1   8  632264   72563                                                      559274   -0.65    0.00  1.0000
   2  -1   8  597605   72279                                                      526705   -0.65    0.00  1.0000
   2  -1   9  199806   48161                                                      168472   -0.50    0.00  1.0000
   2  -1  10   12761   16970                                                       18821   -0.34    0.00  1.0000
   2   0  -9 2266046  126219                                                     2196230   -0.32    0.00  1.0000
   2   0  -9 2119748  126686                                                     2052241   -0.32    0.00  1.0000
   2   0  -8 1183411  100200                                                     1270769   -0.54    0.00  1.0000
   2   0  -8 1182233   91896                                                     1269549   -0.54    0.00  1.0000
   2   0  -7 3028832  136246                                                     2858964   -0.68    0.00  1.0000
   2   0  -7 3139522  131629                                                     2966533   -0.68    0.00  1.0000
   2   0  -6   25534   31667                                                       11545   -0.73    0.00  1.0000
   2   0  -5 8356939  177551                                                     8681421   -0.76    0.00  1.0000
   2   0  -416109864  212715                                                    15627258   -0.83    0.00  1.0000
   2   0  -3 3383574   93630                                                     3611867   -0.84    0.00  1.0000
   2   0  -3 3285252   98042                                                     3510258   -0.84    0.00  1.0000
   2   0  -217531352  180067                                                    17889338   -0.58    0.00  1.0000
   2   0  -122460714  215418                                                    22473396    0.02    0.00  1.0000
   2   0   0 7464466  117940                                                     7158245    0.78    0.00  1.0000
   2   0   1 1043912   37807                                                     1253769    1.35    0.00  1.0000
   2   0   1 1033603   53122                                                     1242469    1.35    0.00  1.0000
   2   0   1 1021093   50537                                                     1228749    1.35    0.00  1.0000
   2   0   2 4146038   67268                                                     3702906    1.54    0.00  1.0000
   2   0   2 3944276   90777                                                     3512368    1.54    0.00  1.0000
   2   0   2 4101854   96775                                                     3661157    1.54    0.00  1.0000
   2   0   310877149  131783                                                    11585895    1.45    0.00  1.0000
   2   0   420620156  249119                                                    19757022    1.32    0.00  1.0000
   2   0   5 3198977  138046                                                     3526218    1.23    0.00  1.0000
   2   0   5 3437715  118177                                                     3776656    1.23    0.00  1.0000
   2   0   6  323358   58123                                                      420999    1.10    0.00  1.0000
   2   0   6  346315   65411                                                      447139    1.10    0.00  1.0000
   2   0   7 3656146  158342                                                     3409439    0.90    0.00  1.0000
   2   0   7 3719584  159106                                                     3470708    0.90    0.00  1.0000
   2   0   8 4224400  184830                                                     4434370    0.69    0.00  1.0000
   2   0   8 4093841  184536                                                     4300581    0.69    0.00  1.0000
   2   0   9  681908   76937                                                      617531    0.55    0.00  1.0000
   2   0  10 1136171   81724                                                     1205259    0.44    0.00  1.0000
   2   0  11     436   13661                                                      -14871    0.29    0.00  1.0000
   2   1  -9 1279904   94839                                                     1311918    0.19    0.00  1.0000
   2   1  -8  843614   82912                                                      806845    0.28    0.00  1.0000
   2   1  -7 2636140  135106                                                     2705496    0.29    0.00  1.0000
   2   1  -7 2792356  137318                                                     2863724    0.29    0.00  1.0000
   2   1  -6  599944   63216                                                      567867    0.29    0.00  1.0000
   2   1  -5  526494   53609                                                      491947    0.33    0.00  1.0000
   2   1  -4 3899873  115842                                                     4015214    0.40    0.00  1.0000
   2   1  -312850827  183278                                                    12656085    0.37    0.00  1.0000
   2   1  -313351695  192096                                                    13153181    0.37    0.00  1.0000
   2   1  -218108282  202571                                                    18207536    0.16    0.00  1.0000
   2   1  -218327782  202180                                                    18427634    0.16    0.00  1.0000
   2   1  -154445224  307492                                                    54702204   -0.24    0.00  1.0000
   2   1  -154279308  302813                                                    54535904   -0.24    0.00  1.0000
   2   1   034829448  206267                                                    34237888   -0.69    0.00  1.0000
   2   1   1 3054245   73590                                                     3319390   -1.02    0.00  1.0000
   2   1   1 3038985   68072                                                     3303480   -1.02    0.00  1.0000
   2   1   2  315385   25590                                                      413627   -1.12    0.00  1.0000
   2   1   2  303875   31244                                                      400429   -1.12    0.00  1.0000
   2   1   2  317714   23939                                                      416293   -1.12    0.00  1.0000
   2   1   3  393526   27638                                                      492541   -1.03    0.00  1.0000
   2   1   3  405649   36406                                                      506093   -1.03    0.00  1.0000
   2   1   4 2089236   60624                                                     2277939   -0.88    0.00  1.0000
   2   1   5 4583122  118053                                                     4346291   -0.77    0.00  1.0000
   2   1   7  128292   41804                                                       98015   -0.62    0.00  1.0000
   2   1   8 1507090  108781                                                     1416297   -0.52    0.00  1.0000
   2   1   8 1436103  110534                                                     1347508   -0.52    0.00  1.0000
   2   1   9  222638   53463                                                      253183   -0.43    0.00  1.0000
   2   1   9  253113   51398                                                      285616   -0.43    0.00  1.0000
   2   1  10 1539780  102124                                                     1472177   -0.38    0.00  1.0000
   2   1  11  464816   50122                                                      495395   -0.30    0.00  1.0000
   2   2  -8  122617   42963                                                      125850    0.06    0.00  1.0000
   2   2  -7 1972477  117768                                                     2001282    0.14    0.00  1.0000
   2   2  -6 8449011  222886                                                     8333465    0.27    0.00  1.0000
   2   2  -5 8263059  203092                                                     8420084    0.37    0.00  1.0000
   2   2  -4 2065212   90761                                                     1976652    0.43    0.00  1.0000
   2   2  -3 1845283   77737                                                     1735844    0.56    0.00  1.0000
   2   2  -2  409123   40761                                                      494845    0.88    0.00  1.0000
   2   2  -1  260565   32931                                                      362954    1.28    0.00  1.0000
   2   2  -1  283890   31535                                                      390399    1.28    0.00  1.0000
   2   2   0 1372804   47769                                                     1128250    1.51    0.00  1.0000
   2   2   0 1367973   44476                                                     1123870    1.51    0.00  1.0000
   2   2   1 1726780   50459                                                     1466057    1.42    0.00  1.0000
   2   2   2 8946428  112846                                                     9433145    1.10    0.00  1.0000
   2   2   2 8940964  110120                                                     9427535    1.10    0.00  1.0000
   2   2   2 8794729  111069                                                     9277356    1.10    0.00  1.0000
   2   2   311861553  134713                                                    11478796    0.77    0.00  1.0000
   2   2   312329387  151340                                                    11939092    0.77    0.00  1.0000
   2   2   312373895  140924                                                    11982891    0.77    0.00  1.0000
   2   2   312193816  118949                                                    11805693    0.77    0.00  1.0000
   2   2   4 1068313   40391                                                      986867    0.55    0.00  1.0000
   2   2   4 1048908   50752                                                      968220    0.55    0.00  1.0000
   2   2   4 1129075   39932                                                     1045300    0.55    0.00  1.0000
   2   2   4 1097223   49869                                                     1014661    0.55    0.00  1.0000
   2   2   510632431  134991                                                    10836602    0.43    0.00  1.0000
   2   2   7 4946906  174659                                                     5021545    0.23    0.00  1.0000
   2   2   8  241316   54911                                                      227964    0.19    0.00  1.0000
   2   2   9 1149311   98983                                                     1186569    0.24    0.00  1.0000
   2   2  10  229410   53636                                                      252823    0.33    0.00  1.0000
   2   2  10  195003   41451                                                      216633    0.33    0.00  1.0000
   2   2  11  793162   65517                                                      745984    0.37    0.00  1.0000
   2   3  -7   46301   31139                                                       58942   -0.38    0.00  1.0000
   2   3  -6 1043982   88900                                                     1123370   -0.52    0.00  1.0000
   2   3  -5 2855156  119789                                                     2670226   -0.77    0.00  1.0000
   2   3  -5 2966289  126013                                                     2777735   -0.77    0.00  1.0000
   2   3  -4 4322265  144982                                                     4640498   -1.03    0.00  1.0000
   2   3  -4 4527914  151128                                                     4853496   -1.03    0.00  1.0000
   2   3  -3 1149276   59994                                                      953048   -1.32    0.00  1.0000
   2   3  -3 1102480   66193                                                      910477   -1.32    0.00  1.0000
   2   3  -2 2937939   95520                                                     3375790   -1.70    0.00  1.0000
   2   3  -2 2874098  106303                                                     3307330   -1.70    0.00  1.0000
   2   3  -2 2760364   81230                                                     3185241   -1.70    0.00  1.0000
   2   3  -1 1019117   41432                                                      730432   -2.13    0.00  1.0000
   2   3  -1 1089802   50543                                                      790457   -2.13    0.00  1.0000
   2   3  -1 1077620   39198                                                      780087   -2.13    0.00  1.0000
   2   3   0   30975   18363                                                        6651   -2.38    0.00  1.0000
   2   3   0   33402   12613                                                       10504   -2.38    0.00  1.0000
   2   3   1 1120584   59864                                                     1479947   -2.17    0.00  1.0000
   2   3   1 1080466   47603                                                     1433787   -2.17    0.00  1.0000
   2   3   2  197028   18119                                                      109896   -1.56    0.00  1.0000
   2   3   2  147062   21032                                                       73470   -1.56    0.00  1.0000
   2   3   2  197194   22722                                                      110020   -1.56    0.00  1.0000
   2   3   2  188154   17634                                                      103289   -1.56    0.00  1.0000
   2   3   314221597  183231                                                    14711767   -0.89    0.00  1.0000
   2   3   314015825  181597                                                    14502469   -0.89    0.00  1.0000
   2   3   414589851  210390                                                    14329070   -0.47    0.00  1.0000
   2   3   415077490  200752                                                    14812366   -0.47    0.00  1.0000
   2   3   415112901  189084                                                    14847465   -0.47    0.00  1.0000
   2   3   5 2939258   71846                                                     3021203   -0.33    0.00  1.0000
   2   3   5 3022266  103725                                                     3105352   -0.33    0.00  1.0000
   2   3   6 2050701   62586                                                     2102111   -0.25    0.00  1.0000
   2   3   8 3448394  157650                                                     3451329   -0.01    0.00  1.0000
   2   3   9 4148929  180017                                                     4125253   -0.08    0.00  1.0000
   2   3  10  409532   58988                                                      438023   -0.30    0.00  1.0000
   2   3  11   36923   38177                                                       24044   -0.51    0.00  1.0000
   2   3  12    1623   14480                                                       -5653   -0.55    0.00  1.0000
   2   4  -6 1120771   86531                                                     1207169    0.55    0.00  1.0000
   2   4  -5  178360   37088                                                      134289    0.77    0.00  1.0000
   2   4  -4  844787   63313                                                      695610    1.17    0.00  1.0000
   2   4  -4  825139   67225                                                      677792    1.17    0.00  1.0000
   2   4  -3 1089420   81209                                                     1349218    1.62    0.00  1.0000
   2   4  -3  963563   79812                                                     1208719    1.62    0.00  1.0000
   2   4  -2 3376976  105315                                                     2858344    2.02    0.00  1.0000
   2   4  -2 3303465  107244                                                     2790745    2.02    0.00  1.0000
   2   4  -1 3427407  113811                                                     4096973    2.38    0.00  1.0000
   2   4  -1 3257725  127239                                                     3911254    2.38    0.00  1.0000
   2   4   0 3855929   91181                                                     3140812    2.63    0.00  1.0000
   2   4   0 3852427  106666                                                     3137652    2.63    0.00  1.0000
   2   4   0 3741091   67117                                                     3037253    2.63    0.00  1.0000
   2   4   1 1279101   64354                                                     1741064    2.59    0.00  1.0000
   2   4   1 1264065   75089                                                     1723515    2.59    0.00  1.0000
   2   4   1 1187555   50052                                                     1633975    2.59    0.00  1.0000
   2   4   2    2314   19081                                                       11242    2.11    0.00  1.0000
   2   4   2    5139   20930                                                        6752    2.11    0.00  1.0000
   2   4   2    3120   16857                                                        9635    2.11    0.00  1.0000
   2   4   2    9190   13608                                                       61883    2.11    0.00  1.0000
   2   4   316790370  203131                                                    15996755    1.35    0.00  1.0000
   2   4   317072692  216686                                                    16272353    1.35    0.00  1.0000
   2   4   316758916  229185                                                    15966055    1.35    0.00  1.0000
   2   4   422057268  269036                                                    22525396    0.68    0.00  1.0000
   2   4   421840760  276646                                                    22306598    0.68    0.00  1.0000
   2   4   511967932  150483                                                    11790693    0.35    0.00  1.0000
   2   4   511751315  208562                                                    11575695    0.35    0.00  1.0000
   2   4   511408326  216879                                                    11235298    0.35    0.00  1.0000
   2   4   6 4452398  153884                                                     4536349    0.27    0.00  1.0000
   2   4   6 4366350  143003                                                     4449490    0.27    0.00  1.0000
   2   4   6 4282787   86615                                                     4365131    0.27    0.00  1.0000
   2   4   8 3264152  121573                                                     3293681    0.11    0.00  1.0000
   2   4   9  130195   40670                                                      135074    0.09    0.00  1.0000
   2   4   9  116087   42429                                                      120697    0.09    0.00  1.0000
   2   4  10 1288740  102885                                                     1248909    0.24    0.00  1.0000
   2   4  11 1579319  105061                                                     1667755    0.48    0.00  1.0000
   2   4  12  243911   38679                                                      201679    0.62    0.00  1.0000
   2   5  -5 1259155  104701                                                     1386867   -0.76    0.00  1.0000
   2   5  -4   99972   37857                                                       56620   -1.09    0.00  1.0000
   2   5  -3  628878   74070                                                      821424   -1.56    0.00  1.0000
   2   5  -3  616317   70283                                                      807059   -1.56    0.00  1.0000
   2   5  -2  221148   30246                                                      107241   -1.96    0.00  1.0000
   2   5  -2  319852   33984                                                      178733   -1.96    0.00  1.0000
   2   5  -1   25604   24920                                                       -6218   -2.20    0.00  1.0000
   2   5  -1   25604   21928                                                       -8694   -2.20    0.00  1.0000
   2   5   0 2842450  117810                                                     3445059   -2.34    0.00  1.0000
   2   5   0 2622705  122355                                                     3202691   -2.34    0.00  1.0000
   2   5   1 5725206  132933                                                     4914636   -2.42    0.00  1.0000
   2   5   1 5604531  142328                                                     4802877   -2.42    0.00  1.0000
   2   5   217239340  266918                                                    18652232   -2.29    0.00  1.0000
   2   5   216792610  248125                                                    18187436   -2.29    0.00  1.0000
   2   5   3 8390764  162825                                                     7639181   -1.83    0.00  1.0000
   2   5   3 8154270  165819                                                     7413604   -1.83    0.00  1.0000
   2   5   4  398845   49070                                                      509131   -1.13    0.00  1.0000
   2   5   4  481354   55305                                                      601849   -1.13    0.00  1.0000
   2   5   5 3706929  128327                                                     3851825   -0.51    0.00  1.0000
   2   5   5 3695098  134030                                                     3839765   -0.51    0.00  1.0000
   2   5   6 8482173  202176                                                     8396324   -0.20    0.00  1.0000
   2   5   6 8981998  224236                                                     8893649   -0.20    0.00  1.0000
   2   5   7  868212   81146                                                      889948   -0.16    0.00  1.0000
   2   5   7  823491   74009                                                      844663   -0.16    0.00  1.0000
   2   5   7  886456   63078                                                      908417   -0.16    0.00  1.0000
   2   5   8 1207902   75408                                                     1174529   -0.21    0.00  1.0000
   2   5   9  315367   51350                                                      294773   -0.26    0.00  1.0000
   2   5  10  410183   63679                                                      439349   -0.31    0.00  1.0000
   2   5  10  467238   63304                                                      498333   -0.31    0.00  1.0000
   2   5  11  627948   67239                                                      584991   -0.38    0.00  1.0000
   2   5  12  581934   57047                                                      631335   -0.44    0.00  1.0000
   2   5  13  179613   22110                                                      154228   -0.43    0.00  1.0000
   2   6  -6    3835   11063                                                       12063    0.66    0.00  1.0000
   2   6  -5  273790   33994                                                      220198    0.74    0.00  1.0000
   2   6  -4  127976   42683                                                      178944    0.90    0.00  1.0000
   2   6  -4  185347   45406                                                      245827    0.90    0.00  1.0000
   2   6  -3  883554   75976                                                      726281    1.21    0.00  1.0000
   2   6  -3  955245   75445                                                      791411    1.21    0.00  1.0000
   2   6  -2  847277   88342                                                     1062690    1.52    0.00  1.0000
   2   6  -1  538779   55073                                                      376322    1.66    0.00  1.0000
   2   6  -1  571831   55614                                                      404026    1.66    0.00  1.0000
   2   6  -1  556982   57602                                                      391560    1.66    0.00  1.0000
   2   6   0    3055   16515                                                       30726    1.65    0.00  1.0000
   2   6   0       1   17856                                                       14567    1.65    0.00  1.0000
   2   6   1  409380   60414                                                      578182    1.66    0.00  1.0000
   2   6   1  400213   60043                                                      567277    1.66    0.00  1.0000
   2   6   210891348  217014                                                    10076309    1.73    0.00  1.0000
   2   6   211266328  227690                                                    10437105    1.73    0.00  1.0000
   2   6   311081860  234335                                                    11910592    1.68    0.00  1.0000
   2   6   311115910  235203                                                    11945892    1.68    0.00  1.0000
   2   6   4 3759827  129613                                                     3396439    1.32    0.00  1.0000
   2   6   4 3709622  126102                                                     3348730    1.32    0.00  1.0000
   2   6   5  122582   44255                                                      162362    0.73    0.00  1.0000
   2   6   5  132772   40270                                                      174058    0.73    0.00  1.0000
   2   6   6  741125   73007                                                      766892    0.20    0.00  1.0000
   2   6   6  759361   68418                                                      785441    0.20    0.00  1.0000
   2   6   6  761168   52795                                                      787279    0.20    0.00  1.0000
   2   6   7       0   31818                                                       -4738    0.00    0.00  1.0000
   2   6   7   24578   30283                                                       24566    0.00    0.00  1.0000
   2   6   7    3101   24365                                                        3097    0.00    0.00  1.0000
   2   6   8 4012706  138883                                                     4045274    0.11    0.00  1.0000
   2   6   9 3233754  128773                                                     3145502    0.34    0.00  1.0000
   2   6  10 1907782  109772                                                     2005532    0.48    0.00  1.0000
   2   6  10 2115433  128163                                                     2218300    0.48    0.00  1.0000
   2   6  11  133956   36069                                                      110562    0.46    0.00  1.0000
   2   6  12  103950   27156                                                       88393    0.35    0.00  1.0000
   2   7  -4    1818   12692                                                      -10284   -0.59    0.00  1.0000
   2   7  -3  335371   56064                                                      400620   -0.74    0.00  1.0000
   2   7  -2 1053670   77579                                                      916840   -0.95    0.00  1.0000
   2   7  -2 1100930   80406                                                      960959   -0.95    0.00  1.0000
   2   7  -1 2211456  127257                                                     2449118   -1.07    0.00  1.0000
   2   7  -1 2324328  133936                                                     2567827   -1.07    0.00  1.0000
   2   7   0 2389649  118218                                                     2162241   -1.04    0.00  1.0000
   2   7   0 2579667  124736                                                     2343169   -1.04    0.00  1.0000
   2   7   1 3514292  152335                                                     3778556   -0.95    0.00  1.0000
   2   7   1 3359156  148667                                                     3617628   -0.95    0.00  1.0000
   2   7   1 3519423  152790                                                     3783876   -0.95    0.00  1.0000
   2   7   2   21681   30867                                                        6020   -0.96    0.00  1.0000
   2   7   2   61592   31957                                                       31873   -0.96    0.00  1.0000
   2   7   2    4856   26612                                                      -37082   -0.96    0.00  1.0000
   2   7   3  558760   59320                                                      451912   -1.04    0.00  1.0000
   2   7   3  575015   53961                                                      466543   -1.04    0.00  1.0000
   2   7   3  567760   62507                                                      460010   -1.04    0.00  1.0000
   2   7   4 2105293  118705                                                     2322309   -1.00    0.00  1.0000
   2   7   4 2353461  122885                                                     2582607   -1.00    0.00  1.0000
   2   7   4 2403484   92945                                                     2634996   -1.00    0.00  1.0000
   2   7   4 2194980  121290                                                     2416458   -1.00    0.00  1.0000
   2   7   5 3179344  137809                                                     2990703   -0.74    0.00  1.0000
   2   7   5 3177591  134103                                                     2989003   -0.74    0.00  1.0000
   2   7   5 3565282  108413                                                     3365350   -0.74    0.00  1.0000
   2   7   6  615989   72157                                                      655798   -0.34    0.00  1.0000
   2   7   6  558203   66301                                                      596128   -0.34    0.00  1.0000
   2   7   6  627362   60311                                                      667531   -0.34    0.00  1.0000
   2   7   7 2419205  125378                                                     2403478   -0.07    0.00  1.0000
   2   7   7 2326712  102949                                                     2311289   -0.07    0.00  1.0000
   2   7   7 2510107  140075                                                     2494088   -0.07    0.00  1.0000
   2   7   8   73410   33653                                                       70267   -0.08    0.00  1.0000
   2   7   8  102078   43250                                                       98365   -0.08    0.00  1.0000
   2   7   9  548880   64720                                                      583231   -0.31    0.00  1.0000
   2   7  10 1559360   92383                                                     1462357   -0.54    0.00  1.0000
   2   7  11 1489487   97525                                                     1592446   -0.57    0.00  1.0000
   2   7  12  504551   48948                                                      465538   -0.39    0.00  1.0000
   2   8  -3  421575   41173                                                      460411    0.40    0.00  1.0000
   2   8  -2  219888   30618                                                      180678    0.60    0.00  1.0000
   2   8  -1    3480   35409                                                      -13828    0.81    0.00  1.0000
   2   8   0  558477   68051                                                      663347    0.92    0.00  1.0000
   2   8   0  733982   88504                                                      853548    0.92    0.00  1.0000
   2   8   1 5109334  172131                                                     4806587    0.93    0.00  1.0000
   2   8   1 5160685  178877                                                     4856396    0.93    0.00  1.0000
   2   8   2 3021337  141913                                                     3257071    0.91    0.00  1.0000
   2   8   2 3325442  152587                                                     3572538    0.91    0.00  1.0000
   2   8   3  305539   38321                                                      236873    0.91    0.00  1.0000
   2   8   3  325919   53322                                                      254857    0.91    0.00  1.0000
   2   8   4  635471   67133                                                      537147    0.88    0.00  1.0000
   2   8   4  611337   68579                                                      514977    0.88    0.00  1.0000
   2   8   4  577493   59212                                                      483955    0.88    0.00  1.0000
   2   8   5 2441242  138383                                                     2619866    0.77    0.00  1.0000
   2   8   5 2469451  129972                                                     2649086    0.77    0.00  1.0000
   2   8   5 2430238  100713                                                     2608466    0.77    0.00  1.0000
   2   8   5 2269720  129012                                                     2442068    0.77    0.00  1.0000
   2   8   6  203998   42754                                                      167771    0.58    0.00  1.0000
   2   8   6  159754   43618                                                      127897    0.58    0.00  1.0000
   2   8   6  179424   29123                                                      145558    0.58    0.00  1.0000
   2   8   7 3420188  165846                                                     3529158    0.40    0.00  1.0000
   2   8   7 3463141  154058                                                     3572788    0.40    0.00  1.0000
   2   8   7 3480547  128298                                                     3590468    0.40    0.00  1.0000
   2   8   8 1230124   80387                                                     1177669    0.33    0.00  1.0000
   2   8   8 1363555  101370                                                     1308298    0.33    0.00  1.0000
   2   8   9  670511   69831                                                      717360    0.39    0.00  1.0000
   2   8  10    1288   23659                                                       -9530    0.49    0.00  1.0000
   2   8  11   70008   17944                                                       51830    0.51    0.00  1.0000
   2   8  12     673   14868                                                      -12179    0.36    0.00  1.0000
   2   9  -2  353865   33435                                                      390096   -0.41    0.00  1.0000
   2   9  -1  294760   37276                                                      243932   -0.67    0.00  1.0000
   2   9   0  181357   41520                                                      241611   -0.90    0.00  1.0000
   2   9   1  573345   72729                                                      694930   -1.05    0.00  1.0000
   2   9   2 1150997   84081                                                      980515   -1.14    0.00  1.0000
   2   9   3  993113   93623                                                     1168979   -1.17    0.00  1.0000
   2   9   4  886616   67553                                                      741946   -1.10    0.00  1.0000
   2   9   5  260031   54487                                                      335457   -0.95    0.00  1.0000
   2   9   6 1076335   89550                                                      962521   -0.78    0.00  1.0000
   2   9   6 1243364   87420                                                     1120800   -0.78    0.00  1.0000
   2   9   6 1263950   66866                                                     1140350   -0.78    0.00  1.0000
   2   9   7  699168   55657                                                      623472   -0.64    0.00  1.0000
   2   9   8 1265106   80011                                                     1358788   -0.56    0.00  1.0000
   2   9   9 1721907   85770                                                     1626805   -0.51    0.00  1.0000
   2   9  10  721997   59017                                                      777188   -0.44    0.00  1.0000
   2   9  11  118742   19104                                                      101922   -0.35    0.00  1.0000
   2  10   8  207665   29656                                                      231775    0.35    0.00  1.0000
   3  -8  -8   10242    9588                                                       14026   -0.24    0.00  1.0000
   3  -8  -7  198865   22647                                                      186712   -0.19    0.00  1.0000
   3  -8  -7  251304   29655                                                      237619   -0.19    0.00  1.0000
   3  -8  -6  565883   41430                                                      595878   -0.27    0.00  1.0000
   3  -8  -6  587589   45206                                                      618146   -0.27    0.00  1.0000
   3  -8  -5   93908   21060                                                       75383   -0.44    0.00  1.0000
   3  -8  -4 1698380   75533                                                     1805214   -0.56    0.00  1.0000
   3  -8  -3  356443   38570                                                      314236   -0.50    0.00  1.0000
   3  -8  -2  110227   19846                                                      125929   -0.31    0.00  1.0000
   3  -8  -1   53907   13425                                                       57579   -0.11    0.00  1.0000
   3  -7 -10 1171225   56093                                                     1168419   -0.02    0.00  1.0000
   3  -7  -9  729560   52849                                                      710052    0.16    0.00  1.0000
   3  -7  -8  604899   55125                                                      625962    0.18    0.00  1.0000
   3  -7  -8  640149   48974                                                      661812    0.18    0.00  1.0000
   3  -7  -7 1674872   93072                                                     1655845    0.10    0.00  1.0000
   3  -7  -7 1714436   85217                                                     1695185    0.10    0.00  1.0000
   3  -7  -6 1208188   79958                                                     1222869    0.09    0.00  1.0000
   3  -7  -6 1215623   80666                                                     1230349    0.09    0.00  1.0000
   3  -7  -5 1432100   85696                                                     1388047    0.25    0.00  1.0000
   3  -7  -5 1367914   82469                                                     1324868    0.25    0.00  1.0000
   3  -7  -4 1188710   68742                                                     1112580    0.49    0.00  1.0000
   3  -7  -4 1211013   79208                                                     1134160    0.49    0.00  1.0000
   3  -7  -3 1241971   86778                                                     1341348    0.60    0.00  1.0000
   3  -7  -2  635643   64752                                                      577506    0.51    0.00  1.0000
   3  -7  -1   30863   25950                                                       37223    0.31    0.00  1.0000
   3  -7   0   82016   30912                                                       86683    0.11    0.00  1.0000
   3  -7   1       1    8523                                                      -13260   -0.01    0.00  1.0000
   3  -7   2  140789   21229                                                      136028   -0.09    0.00  1.0000
   3  -6 -11 1611287   65934                                                     1650235    0.21    0.00  1.0000
   3  -6 -10  111841   22924                                                      101227    0.22    0.00  1.0000
   3  -6  -9   94002   28718                                                       89619    0.10    0.00  1.0000
   3  -6  -8  316601   51556                                                      315210   -0.02    0.00  1.0000
   3  -6  -8  308439   44597                                                      307066   -0.02    0.00  1.0000
   3  -6  -7  402862   56295                                                      405122   -0.02    0.00  1.0000
   3  -6  -7  377790   53643                                                      379980   -0.02    0.00  1.0000
   3  -6  -6   77806   33317                                                       77476    0.01    0.00  1.0000
   3  -6  -6   51922   27158                                                       51653    0.01    0.00  1.0000
   3  -6  -6   41121   38732                                                       40882    0.01    0.00  1.0000
   3  -6  -5  791597   75828                                                      799045   -0.06    0.00  1.0000
   3  -6  -5  773186   69152                                                      780547   -0.06    0.00  1.0000
   3  -6  -4   95557   33802                                                      106926   -0.25    0.00  1.0000
   3  -6  -4  125194   41940                                                      138162   -0.25    0.00  1.0000
   3  -6  -3  159824   49096                                                      135821   -0.43    0.00  1.0000
   3  -6  -2 1101180   94126                                                     1174129   -0.47    0.00  1.0000
   3  -6  -1 2119499  120259                                                     2044092   -0.36    0.00  1.0000
   3  -6   0 1191311   93735                                                     1223139   -0.20    0.00  1.0000
   3  -6   1 1963459  110592                                                     1947363   -0.08    0.00  1.0000
   3  -6   2  269048   47030                                                      268983    0.00    0.00  1.0000
   3  -6   3   24359   23127                                                       26313    0.08    0.00  1.0000
   3  -5 -11 1123436   63494                                                     1120880   -0.02    0.00  1.0000
   3  -5 -10  261795   39050                                                      273206   -0.15    0.00  1.0000
   3  -5  -9  100274   46169                                                       92445   -0.18    0.00  1.0000
   3  -5  -8  365085   61742                                                      373122   -0.09    0.00  1.0000
   3  -5  -8  357782   64446                                                      365739   -0.09    0.00  1.0000
   3  -5  -8  431771   73492                                                      440508   -0.09    0.00  1.0000
   3  -5  -7   36792   19488                                                       36949    0.01    0.00  1.0000
   3  -5  -7       0   30715                                                        -162    0.01    0.00  1.0000
   3  -5  -7       0   24170                                                       -7501    0.01    0.00  1.0000
   3  -5  -6  130607   44287                                                      133385    0.05    0.00  1.0000
   3  -5  -6   78409   39401                                                       80565    0.05    0.00  1.0000
   3  -5  -6   97673   47165                                                      100077    0.05    0.00  1.0000
   3  -5  -510727196  261354                                                    10689203    0.08    0.00  1.0000
   3  -5  -510800625  275805                                                    10762502    0.08    0.00  1.0000
   3  -5  -510247542  251920                                                    10210407    0.08    0.00  1.0000
   3  -5  -4 5729490  196714                                                     5778428    0.14    0.00  1.0000
   3  -5  -4 5784277  188018                                                     5833447    0.14    0.00  1.0000
   3  -5  -4 6157635  205417                                                     6208364    0.14    0.00  1.0000
   3  -5  -3 2000323  114599                                                     1954052    0.23    0.00  1.0000
   3  -5  -3 2072566  121664                                                     2025462    0.23    0.00  1.0000
   3  -5  -3 1846226  106585                                                     1801784    0.23    0.00  1.0000
   3  -5  -2   74820   37342                                                       86012    0.27    0.00  1.0000
   3  -5  -2   45326   39957                                                       54122    0.27    0.00  1.0000
   3  -5  -1   12860   36519                                                       17050    0.24    0.00  1.0000
   3  -5  -1   78171   37020                                                       88070    0.24    0.00  1.0000
   3  -5   0   24380   39364                                                       27601    0.14    0.00  1.0000
   3  -5   1 1024856   89618                                                     1031621    0.05    0.00  1.0000
   3  -5   2 1140768   90118                                                     1142150   -0.01    0.00  1.0000
   3  -5   3 1147452   81190                                                     1140580   -0.04    0.00  1.0000
   3  -5   4   73174   29494                                                       76804   -0.09    0.00  1.0000
   3  -5   5   10363   17398                                                       12525   -0.14    0.00  1.0000
   3  -4 -11   94401   18737                                                       86987   -0.17    0.00  1.0000
   3  -4 -10  395200   51042                                                      403857   -0.09    0.00  1.0000
   3  -4  -9  814710   84676                                                      812261   -0.02    0.00  1.0000
   3  -4  -8 1896255  122170                                                     1896733    0.00    0.00  1.0000
   3  -4  -8 1929061  126500                                                     1929543    0.00    0.00  1.0000
   3  -4  -8 2060973  114109                                                     2061471    0.00    0.00  1.0000
   3  -4  -7 1135908  103718                                                     1127630   -0.05    0.00  1.0000
   3  -4  -7 1194167   96840                                                     1185679   -0.05    0.00  1.0000
   3  -4  -7 1164241   89841                                                     1155860   -0.05    0.00  1.0000
   3  -4  -6 4488678  188185                                                     4529909   -0.13    0.00  1.0000
   3  -4  -6 4430218  172907                                                     4471180   -0.13    0.00  1.0000
   3  -4  -6 4565607  164648                                                     4607189   -0.13    0.00  1.0000
   3  -4  -5  158050   45206                                                      169140   -0.19    0.00  1.0000
   3  -4  -5  200427   58221                                                      212892   -0.19    0.00  1.0000
   3  -4  -5  209030   47278                                                      221756   -0.19    0.00  1.0000
   3  -4  -4 1134390   86127                                                     1106740   -0.18    0.00  1.0000
   3  -4  -4 1044151   81854                                                     1017631   -0.18    0.00  1.0000
   3  -4  -4 1060550   89374                                                     1033821   -0.18    0.00  1.0000
   3  -4  -3 4972800  175212                                                     5006205   -0.10    0.00  1.0000
   3  -4  -3 4964298  178143                                                     4997675   -0.10    0.00  1.0000
   3  -4  -2 5082999  175128                                                     5085494    0.01    0.00  1.0000
   3  -4  -2 5109083  181575                                                     5111584    0.01    0.00  1.0000
   3  -4  -1 1521693   96964                                                     1503156    0.10    0.00  1.0000
   3  -4  -1 1394963   99102                                                     1377218    0.10    0.00  1.0000
   3  -4   0 1411320   98767                                                     1439147    0.16    0.00  1.0000
   3  -4   0 1555330   99675                                                     1584536    0.16    0.00  1.0000
   3  -4   1   52998   29021                                                       59233    0.18    0.00  1.0000
   3  -4   1    9522   32463                                                       12265    0.18    0.00  1.0000
   3  -4   1     173   30287                                                       -2121    0.18    0.00  1.0000
   3  -4   2   42972   27701                                                       46643    0.17    0.00  1.0000
   3  -4   2     157   26855                                                      -60133    0.17    0.00  1.0000
   3  -4   2    4964   39907                                                        6203    0.17    0.00  1.0000
   3  -4   3  301136   53713                                                      311624    0.13    0.00  1.0000
   3  -4   3  239258   51265                                                      248617    0.13    0.00  1.0000
   3  -4   4  472835   56380                                                      466141    0.07    0.00  1.0000
   3  -4   4  413932   56912                                                      407670    0.07    0.00  1.0000
   3  -4   5 1344821   77147                                                     1347218    0.01    0.00  1.0000
   3  -4   5 1292429   73442                                                     1294778    0.01    0.00  1.0000
   3  -4   6   22888   16641                                                       23042   -0.01    0.00  1.0000
   3  -3 -11  122234   21954                                                      116172    0.12    0.00  1.0000
   3  -3 -10   19180   32922                                                       22729    0.19    0.00  1.0000
   3  -3  -9  111302   44666                                                      100959    0.22    0.00  1.0000
   3  -3  -9   44206   36832                                                       37781    0.22    0.00  1.0000
   3  -3  -8   76281   38245                                                       68208    0.21    0.00  1.0000
   3  -3  -8   46265   47861                                                       40026    0.21    0.00  1.0000
   3  -3  -7  161499   51229                                                      172503    0.19    0.00  1.0000
   3  -3  -7  156641   30882                                                      167481    0.19    0.00  1.0000
   3  -3  -7  176856   54178                                                      188363    0.19    0.00  1.0000
   3  -3  -7  156155   53051                                                      166979    0.19    0.00  1.0000
   3  -3  -610851221  247710                                                    10750903    0.21    0.00  1.0000
   3  -3  -610236636  170466                                                    10139208    0.21    0.00  1.0000
   3  -3  -610799883  258115                                                    10699803    0.21    0.00  1.0000
   3  -3  -610572222  272792                                                    10473205    0.21    0.00  1.0000
   3  -3  -5 3306314  133751                                                     3385319    0.30    0.00  1.0000
   3  -3  -5 3287774  137541                                                     3366559    0.30    0.00  1.0000
   3  -3  -5 3125514  146919                                                     3202341    0.30    0.00  1.0000
   3  -3  -4 1085832   86881                                                     1030011    0.37    0.00  1.0000
   3  -3  -3     527   28234                                                      -26861    0.32    0.00  1.0000
   3  -3  -2   19632   29437                                                       21313    0.08    0.00  1.0000
   3  -3  -1   10325   26480                                                       13602   -0.22    0.00  1.0000
   3  -3   0 5697083  173929                                                     5549360   -0.43    0.00  1.0000
   3  -3   1 2859871  132389                                                     2979033   -0.48    0.00  1.0000
   3  -3   1 2925034  129331                                                     3045533   -0.48    0.00  1.0000
   3  -3   2  595783   62171                                                      549468   -0.42    0.00  1.0000
   3  -3   2  695611   64231                                                      645490   -0.42    0.00  1.0000
   3  -3   2  633475   61457                                                      585688   -0.42    0.00  1.0000
   3  -3   2  631971   65829                                                      584242   -0.42    0.00  1.0000
   3  -3   3 1370487   96025                                                     1317288   -0.32    0.00  1.0000
   3  -3   3 1480562   92855                                                     1425247   -0.32    0.00  1.0000
   3  -3   3 1708973   95241                                                     1649505   -0.32    0.00  1.0000
   3  -3   3 1548162  111952                                                     1491587   -0.32    0.00  1.0000
   3  -3   4 2415321  120327                                                     2454878   -0.17    0.00  1.0000
   3  -3   4 2892222  123481                                                     2935494   -0.17    0.00  1.0000
   3  -3   4 2618526  147171                                                     2659706   -0.17    0.00  1.0000
   3  -3   4 2611441  127535                                                     2652566   -0.17    0.00  1.0000
   3  -3   5 3343929  140729                                                     3341430   -0.01    0.00  1.0000
   3  -3   5 3488590  162111                                                     3486039   -0.01    0.00  1.0000
   3  -3   6  358301   50509                                                      348093    0.12    0.00  1.0000
   3  -3   6  369152   60231                                                      358790    0.12    0.00  1.0000
   3  -3   7  357579   48379                                                      371009    0.15    0.00  1.0000
   3  -2 -11   62477   18575                                                       59083    0.10    0.00  1.0000
   3  -2 -10  303440   43107                                                      303816    0.00    0.00  1.0000
   3  -2  -9 1596020  114119                                                     1616545   -0.11    0.00  1.0000
   3  -2  -9 1568944  107969                                                     1589296   -0.11    0.00  1.0000
   3  -2  -8  901868   82144                                                      875898   -0.19    0.00  1.0000
   3  -2  -8 1000497   93753                                                      973133   -0.19    0.00  1.0000
   3  -2  -7 1546474   75737                                                     1581356   -0.19    0.00  1.0000
   3  -2  -7 1450014  109738                                                     1483797   -0.19    0.00  1.0000
   3  -2  -7 1465723  109596                                                     1499686   -0.19    0.00  1.0000
   3  -2  -6 5852628  133137                                                     5910017   -0.16    0.00  1.0000
   3  -2  -6 6040057  185678                                                     6098355   -0.16    0.00  1.0000
   3  -2  -6 6384766  196583                                                     6444702   -0.16    0.00  1.0000
   3  -2  -5 7176771  185709                                                     7095515   -0.21    0.00  1.0000
   3  -2  -5 6934858  199762                                                     6854988   -0.21    0.00  1.0000
   3  -2  -4 8068455  209915                                                     8223755   -0.37    0.00  1.0000
   3  -2  -3 2776128  117957                                                     2647296   -0.54    0.00  1.0000
   3  -2  -2   57690   25059                                                       42154   -0.51    0.00  1.0000
   3  -2  -1   34206   30080                                                       40419   -0.22    0.00  1.0000
   3  -2   0 4314647  142020                                                     4362581    0.16    0.00  1.0000
   3  -2   1 1995187   96199                                                     1910993    0.41    0.00  1.0000
   3  -2   2 6053400  172859                                                     6225684    0.48    0.00  1.0000
   3  -2   3 6025904  171681                                                     5874167    0.43    0.00  1.0000
   3  -2   3 5617928  183818                                                     5471451    0.43    0.00  1.0000
   3  -2   4 6969586  193563                                                     7097626    0.33    0.00  1.0000
   3  -2   4 6703633  216510                                                     6829218    0.33    0.00  1.0000
   3  -2   5  272286   42873                                                      258540    0.18    0.00  1.0000
   3  -2   5  183073   56425                                                      171833    0.18    0.00  1.0000
   3  -2   6   19627   32978                                                       19667    0.00    0.00  1.0000
   3  -2   7  339177   56746                                                      327434   -0.14    0.00  1.0000
   3  -2   8  240682   39250                                                      251249   -0.15    0.00  1.0000
   3  -2   8  240375   34216                                                      250936   -0.15    0.00  1.0000
   3  -2   9  129045   21554                                                      125106   -0.08    0.00  1.0000
   3  -1 -10   25634   22814                                                       22195   -0.15    0.00  1.0000
   3  -1  -9  781312   81196                                                      795496   -0.11    0.00  1.0000
   3  -1  -9  868589   89303                                                      883541   -0.11    0.00  1.0000
   3  -1  -8 1684935  113708                                                     1673045   -0.06    0.00  1.0000
   3  -1  -8 1760057  114329                                                     1747904   -0.06    0.00  1.0000
   3  -1  -713455598  220107                                                    13477378   -0.04    0.00  1.0000
   3  -1  -712934328  294539                                                    12955683   -0.04    0.00  1.0000
   3  -1  -712494700  288935                                                    12515687   -0.04    0.00  1.0000
   3  -1  -6 1701882   74954                                                     1688805   -0.07    0.00  1.0000
   3  -1  -6 1699051  103661                                                     1685985   -0.07    0.00  1.0000
   3  -1  -6 1928605  104949                                                     1914683   -0.07    0.00  1.0000
   3  -1  -6 1806829  113727                                                     1793354   -0.07    0.00  1.0000
   3  -1  -5  142189   41458                                                      148535   -0.11    0.00  1.0000
   3  -1  -4 1505388   84104                                                     1519236   -0.08    0.00  1.0000
   3  -1  -3 2879772  114334                                                     2902244    0.09    0.00  1.0000
   3  -1  -3 2829031   86722                                                     2851304    0.09    0.00  1.0000
   3  -1  -115001956  124487                                                    15175063    0.31    0.00  1.0000
   3  -1   0 4045840   71167                                                     4012994    0.11    0.00  1.0000
   3  -1   0 4315968  101205                                                     4282041    0.11    0.00  1.0000
   3  -1   1  773873   35218                                                      754041   -0.16    0.00  1.0000
   3  -1   1  696061   56205                                                      677260   -0.16    0.00  1.0000
   3  -1   2 2077128   91995                                                     2009402   -0.33    0.00  1.0000
   3  -1   3 1952138   95314                                                     2028262   -0.37    0.00  1.0000
   3  -1   3 1910085  105721                                                     1985392   -0.37    0.00  1.0000
   3  -1   4 3330887  145615                                                     3234081   -0.37    0.00  1.0000
   3  -1   4 3538093  129647                                                     3438299   -0.37    0.00  1.0000
   3  -1   5  145895   42479                                                      164579   -0.33    0.00  1.0000
   3  -1   5   77058   38073                                                       90787   -0.33    0.00  1.0000
   3  -1   5   85857   35238                                                      100318   -0.33    0.00  1.0000
   3  -1   6  563391   65917                                                      541358   -0.20    0.00  1.0000
   3  -1   7  366050   62707                                                      367013   -0.01    0.00  1.0000
   3  -1   8   30671   26012                                                       27977    0.12    0.00  1.0000
   3  -1   9  386624   48188                                                      395406    0.10    0.00  1.0000
   3  -1   9  354505   46566                                                      362917    0.10    0.00  1.0000
   3   0  -9  566139   75420                                                      581529    0.14    0.00  1.0000
   3   0  -9  529063   67934                                                      543944    0.14    0.00  1.0000
   3   0  -8  440582   69803                                                      419834    0.22    0.00  1.0000
   3   0  -8  517253   65697                                                      494752    0.22    0.00  1.0000
   3   0  -7 5847379  193034                                                     5743118    0.30    0.00  1.0000
   3   0  -7 5498994  192318                                                     5397901    0.30    0.00  1.0000
   3   0  -6 4088975  120583                                                     4195612    0.36    0.00  1.0000
   3   0  -6 4097089  157025                                                     4203832    0.36    0.00  1.0000
   3   0  -6 3884105  155588                                                     3988054    0.36    0.00  1.0000
   3   0  -5 4599031  154624                                                     4459660    0.45    0.00  1.0000
   3   0  -4 1357422   82519                                                     1458817    0.59    0.00  1.0000
   3   0  -3   53336   26354                                                       79049    0.69    0.00  1.0000
   3   0  -3   25913   26160                                                       44593    0.69    0.00  1.0000
   3   0  -2  375809   34706                                                      318685    0.67    0.00  1.0000
   3   0  -2  310759   31722                                                      259027    0.67    0.00  1.0000
   3   0  -2  330651   39293                                                      277215    0.67    0.00  1.0000
   3   0  -115571106  164691                                                    15881656    0.54    0.00  1.0000
   3   0  -116069691  230230                                                    16385152    0.54    0.00  1.0000
   3   0   0 6728970  143030                                                     6566381    0.43    0.00  1.0000
   3   0   0 6935753  100729                                                     6770668    0.43    0.00  1.0000
   3   0   0 6732271  127486                                                     6569641    0.43    0.00  1.0000
   3   0   1 8009253  111795                                                     8183466    0.42    0.00  1.0000
   3   0   1 7866961  148246                                                     8039627    0.42    0.00  1.0000
   3   0   1 8098419  127340                                                     8273596    0.42    0.00  1.0000
   3   0   2 2108922   58548                                                     2017822    0.44    0.00  1.0000
   3   0   2 2085397   84221                                                     1994812    0.44    0.00  1.0000
   3   0   2 2216787   57867                                                     2123361    0.44    0.00  1.0000
   3   0   3 1441953   54712                                                     1512926    0.40    0.00  1.0000
   3   0   3 1367117   82292                                                     1436247    0.40    0.00  1.0000
   3   0   3 1486029   77673                                                     1558066    0.40    0.00  1.0000
   3   0   4 1510380   95624                                                     1570906    0.34    0.00  1.0000
   3   0   4 1724353   88191                                                     1788984    0.34    0.00  1.0000
   3   0   5  500180   65035                                                      471181    0.29    0.00  1.0000
   3   0   5  547094   54834                                                      516745    0.29    0.00  1.0000
   3   0   6 1342114  103562                                                     1379758    0.22    0.00  1.0000
   3   0   6 1167531  100292                                                     1202659    0.22    0.00  1.0000
   3   0   7 1331961  106127                                                     1319298    0.08    0.00  1.0000
   3   0   7 1164307  102793                                                     1152470    0.08    0.00  1.0000
   3   0   7 1287066   95752                                                     1274619    0.08    0.00  1.0000
   3   0   8  789003   83116                                                      775068   -0.11    0.00  1.0000
   3   0   8  761821   74842                                                      748129   -0.11    0.00  1.0000
   3   0   8  823109   75183                                                      808875   -0.11    0.00  1.0000
   3   0   9 1098325   78995                                                     1127540   -0.19    0.00  1.0000
   3   0  10  760794   56708                                                      775764   -0.12    0.00  1.0000
   3   0  10  650866   53995                                                      664718   -0.12    0.00  1.0000
   3   1  -8 4518432  179080                                                     4587129   -0.22    0.00  1.0000
   3   1  -8 4840959  185315                                                     4912056   -0.22    0.00  1.0000
   3   1  -7  216851   57740                                                      243519   -0.38    0.00  1.0000
   3   1  -7  229732   53940                                                      257159   -0.38    0.00  1.0000
   3   1  -6 1550411   98077                                                     1451407   -0.56    0.00  1.0000
   3   1  -6 1586495  101048                                                     1486327   -0.56    0.00  1.0000
   3   1  -5 4948131  160685                                                     5179713   -0.71    0.00  1.0000
   3   1  -4 3633010  120886                                                     3389609   -0.89    0.00  1.0000
   3   1  -3  611063   56839                                                      747818   -1.15    0.00  1.0000
   3   1  -2 6754670  138419                                                     6246234   -1.37    0.00  1.0000
   3   1  -2 6634770  129991                                                     6130955   -1.37    0.00  1.0000
   3   1  -2 6666279  136330                                                     6161244   -1.37    0.00  1.0000
   3   1  -1  868344   52923                                                     1073320   -1.43    0.00  1.0000
   3   1  -1  771088   54412                                                      964870   -1.43    0.00  1.0000
   3   1  -1  849592   52691                                                     1052461   -1.43    0.00  1.0000
   3   1   0  815304   44460                                                      653110   -1.30    0.00  1.0000
   3   1   0  881471   39176                                                      712467   -1.30    0.00  1.0000
   3   1   0  884707   45393                                                      715377   -1.30    0.00  1.0000
   3   1   1 4186382  100477                                                     3869705   -1.08    0.00  1.0000
   3   1   1 4016078   85656                                                     3706037   -1.08    0.00  1.0000
   3   1   1 4322727   71870                                                     4000834   -1.08    0.00  1.0000
   3   1   1 3980827   89028                                                     3672177   -1.08    0.00  1.0000
   3   1   2 6451861  114069                                                     6775818   -0.87    0.00  1.0000
   3   1   2 5909238  127976                                                     6219444   -0.87    0.00  1.0000
   3   1   2 6305542  136284                                                     6625850   -0.87    0.00  1.0000
   3   1   2 6062607  108006                                                     6376762   -0.87    0.00  1.0000
   3   1   314057934  161227                                                    13708776   -0.64    0.00  1.0000
   3   1   313904920  142677                                                    13557677   -0.64    0.00  1.0000
   3   1   4 1518634   76617                                                     1591486   -0.40    0.00  1.0000
   3   1   4 1409706   57018                                                     1479927   -0.40    0.00  1.0000
   3   1   5 1358676   60219                                                     1327688   -0.18    0.00  1.0000
   3   1   5 1547156   82593                                                     1514076   -0.18    0.00  1.0000
   3   1   6       8   28946                                                       -3965   -0.04    0.00  1.0000
   3   1   7 2032880  128054                                                     2022002    0.05    0.00  1.0000
   3   1   7 2072265  125019                                                     2061281    0.05    0.00  1.0000
   3   1   8 3737850  170697                                                     3777446    0.14    0.00  1.0000
   3   1   8 3625091  165111                                                     3664087    0.14    0.00  1.0000
   3   1   9 6548628  222583                                                     6474552    0.20    0.00  1.0000
   3   1   9 6126629  177258                                                     6054985    0.20    0.00  1.0000
   3   1   9 6176782  187000                                                     6104845    0.20    0.00  1.0000
   3   1   9 6259413  204018                                                     6186994    0.20    0.00  1.0000
   3   1  10   27970   28670                                                       31657    0.17    0.00  1.0000
   3   1  11      21    7118                                                       -5773    0.06    0.00  1.0000
   3   2  -8 5415378  191861                                                     5329712    0.25    0.00  1.0000
   3   2  -7 1600043  112730                                                     1659015    0.32    0.00  1.0000
   3   2  -6  965681   84054                                                      895043    0.50    0.00  1.0000
   3   2  -6  946140   78127                                                      876234    0.50    0.00  1.0000
   3   2  -5    2915   34862                                                      -24366    0.74    0.00  1.0000
   3   2  -5   40348   31413                                                       64773    0.74    0.00  1.0000
   3   2  -4  388048   56069                                                      481101    0.97    0.00  1.0000
   3   2  -3 1155356   68253                                                      974313    1.21    0.00  1.0000
   3   2  -217906594  250052                                                    18818930    1.46    0.00  1.0000
   3   2  -217956246  210303                                                    18869830    1.46    0.00  1.0000
   3   2  -1 7503446  118510                                                     6856168    1.66    0.00  1.0000
   3   2  -1 7564315  140058                                                     6914358    1.66    0.00  1.0000
   3   2  -1 7534233  138347                                                     6885598    1.66    0.00  1.0000
   3   2   0 5789767  109746                                                     6395922    1.69    0.00  1.0000
   3   2   0 5856604  116582                                                     6466162    1.69    0.00  1.0000
   3   2   0 5750421  125195                                                     6354563    1.69    0.00  1.0000
   3   2   1  227505   22717                                                      134622    1.52    0.00  1.0000
   3   2   1  187552   18838                                                      104328    1.52    0.00  1.0000
   3   2   1  203571   22836                                                      116361    1.52    0.00  1.0000
   3   2   2  268193   29414                                                      367797    1.22    0.00  1.0000
   3   2   2  241434   31141                                                      336340    1.22    0.00  1.0000
   3   2   2  251956   29546                                                      348739    1.22    0.00  1.0000
   3   2   3 4534219  104131                                                     4808707    0.87    0.00  1.0000
   3   2   3 4664121  101324                                                     4942455    0.87    0.00  1.0000
   3   2   3 4776719  112840                                                     5058344    0.87    0.00  1.0000
   3   2   3 4526393   92108                                                     4800647    0.87    0.00  1.0000
   3   2   4  744884   40765                                                      681889    0.51    0.00  1.0000
   3   2   4  739270   47922                                                      676518    0.51    0.00  1.0000
   3   2   5 4019626   96324                                                     4069383    0.17    0.00  1.0000
   3   2   5 4239466  124498                                                     4290561    0.17    0.00  1.0000
   3   2   6 4846774  115451                                                     4875796   -0.09    0.00  1.0000
   3   2   7 1567665  104128                                                     1529656   -0.21    0.00  1.0000
   3   2   8  360683   61994                                                      378472   -0.20    0.00  1.0000
   3   2   8  241744   51446                                                      256346   -0.20    0.00  1.0000
   3   2   9 3824017  174487                                                     3859085   -0.12    0.00  1.0000
   3   2   9 3744036  164518                                                     3778736   -0.12    0.00  1.0000
   3   2  10  661829   62742                                                      659250   -0.02    0.00  1.0000
   3   2  10  613864   63862                                                      611380   -0.02    0.00  1.0000
   3   2  10  693301   72220                                                      690662   -0.02    0.00  1.0000
   3   2  11  641866   45795                                                      634073    0.07    0.00  1.0000
   3   2  11  552060   42260                                                      544835    0.07    0.00  1.0000
   3   3  -7  602901   65592                                                      573468   -0.26    0.00  1.0000
   3   3  -6 1991738  122487                                                     2057091   -0.32    0.00  1.0000
   3   3  -5 1969726  109099                                                     1870873   -0.49    0.00  1.0000
   3   3  -4  610160   67014                                                      693470   -0.71    0.00  1.0000
   3   3  -3 1066357   70522                                                      934530   -0.91    0.00  1.0000
   3   3  -3 1025743   58033                                                      896535   -0.91    0.00  1.0000
   3   3  -2 1467933   75246                                                     1281808   -1.09    0.00  1.0000
   3   3  -2 1357709   62464                                                     1178949   -1.09    0.00  1.0000
   3   3  -1  769397   64628                                                      944165   -1.30    0.00  1.0000
   3   3  -1  698105   51141                                                      865003   -1.30    0.00  1.0000
   3   3   0 4762609  115185                                                     4301081   -1.49    0.00  1.0000
   3   3   0 4934565  105667                                                     4464570   -1.49    0.00  1.0000
   3   3   1 3175327   97389                                                     3588478   -1.55    0.00  1.0000
   3   3   1 2955137   89250                                                     3354150   -1.55    0.00  1.0000
   3   3   2 6895330  126227                                                     6377862   -1.38    0.00  1.0000
   3   3   2 7016911   98879                                                     6494811   -1.38    0.00  1.0000
   3   3   2 6928415  117121                                                     6409682   -1.38    0.00  1.0000
   3   3   3    2487   14083                                                       14510   -1.02    0.00  1.0000
   3   3   3    5544   17772                                                      -11299   -1.02    0.00  1.0000
   3   3   3     652   12424                                                        2735   -1.02    0.00  1.0000
   3   3   4  414341   34631                                                      361315   -0.59    0.00  1.0000
   3   3   4  507580   40658                                                      448696   -0.59    0.00  1.0000
   3   3   4  456692   33217                                                      400931   -0.59    0.00  1.0000
   3   3   5 1508483   60475                                                     1474787   -0.19    0.00  1.0000
   3   3   5 1495416   74099                                                     1461867   -0.19    0.00  1.0000
   3   3   6 8163152  140758                                                     8129337    0.08    0.00  1.0000
   3   3   8 8899909  245314                                                     8825770    0.17    0.00  1.0000
   3   3   9  323542   63296                                                      318717    0.06    0.00  1.0000
   3   3  10  156593   40423                                                      152014   -0.08    0.00  1.0000
   3   3  11  476846   51858                                                      495900   -0.19    0.00  1.0000
   3   3  11  531237   61214                                                      551339   -0.19    0.00  1.0000
   3   4  -6  809441   75150                                                      771641    0.29    0.00  1.0000
   3   4  -5  633585   77460                                                      670388    0.31    0.00  1.0000
   3   4  -4  693711   71315                                                      650195    0.37    0.00  1.0000
   3   4  -3 8526896  215195                                                     8704111    0.42    0.00  1.0000
   3   4  -2 6042461  168540                                                     5876077    0.47    0.00  1.0000
   3   4  -2 5875796  126398                                                     5711739    0.47    0.00  1.0000
   3   4  -1 5219752  160663                                                     5419501    0.60    0.00  1.0000
   3   4  -1 5303901  119517                                                     5505240    0.60    0.00  1.0000
   3   4   0    2107   23793                                                         237    0.84    0.00  1.0000
   3   4   0    3757   15009                                                       -3350    0.84    0.00  1.0000
   3   4   1 1162349   63028                                                      992140    1.13    0.00  1.0000
   3   4   1 1227328   50801                                                     1052241    1.13    0.00  1.0000
   3   4   214789388  182008                                                    15501560    1.26    0.00  1.0000
   3   4   214614660  221393                                                    15322661    1.26    0.00  1.0000
   3   4   3 7267748  133966                                                     6851278    1.08    0.00  1.0000
   3   4   3 7534429  150836                                                     7110276    1.08    0.00  1.0000
   3   4   412479115  213453                                                    12808484    0.64    0.00  1.0000
   3   4   5 4685237  113147                                                     4633818    0.16    0.00  1.0000
   3   4   5 4817056  139649                                                     4764917    0.16    0.00  1.0000
   3   4   6    8077   17810                                                        6654   -0.11    0.00  1.0000
   3   4   6   46078   25495                                                       42584   -0.11    0.00  1.0000
   3   4   7 1065255   51948                                                     1044631   -0.14    0.00  1.0000
   3   4   7  978685   63353                                                      958920   -0.14    0.00  1.0000
   3   4   8 7643253  180673                                                     7650701   -0.02    0.00  1.0000
   3   4   8 7962955  231526                                                     7970558   -0.02    0.00  1.0000
   3   4   9   77626   45441                                                       81680    0.10    0.00  1.0000
   3   4  10  248183   51179                                                      236986    0.16    0.00  1.0000
   3   4  11     159   20568                                                       -2601    0.17    0.00  1.0000
   3   4  12   13711   23074                                                       10966    0.17    0.00  1.0000
   3   4  12   45992   16961                                                       40838    0.17    0.00  1.0000
   3   5  -5  360391   66229                                                      388677   -0.32    0.00  1.0000
   3   5  -4  136339   45127                                                      124442   -0.23    0.00  1.0000
   3   5  -3 1007461   86484                                                      994222   -0.09    0.00  1.0000
   3   5  -2  181449   47298                                                      179813    0.03    0.00  1.0000
   3   5  -1 1107658   85368                                                     1115870    0.05    0.00  1.0000
   3   5   0 1172806   82937                                                     1184189   -0.07    0.00  1.0000
   3   5   0 1157650   52592                                                     1168959   -0.07    0.00  1.0000
   3   5   1 3396682  125472                                                     3303750   -0.35    0.00  1.0000
   3   5   1 3399733   85476                                                     3306760   -0.35    0.00  1.0000
   3   5   2   95204   32227                                                       68252   -0.65    0.00  1.0000
   3   5   2   99347   16239                                                       71767   -0.65    0.00  1.0000
   3   5   3   57339   23327                                                       46963   -0.76    0.00  1.0000
   3   5   3   77242   29450                                                       65540   -0.76    0.00  1.0000
   3   5   4 2884129  109320                                                     2748995   -0.55    0.00  1.0000
   3   5   4 2629536   96236                                                     2500577   -0.55    0.00  1.0000
   3   5   5 8977710  204220                                                     9040438   -0.14    0.00  1.0000
   3   5   5 8429168  195203                                                     8489953   -0.14    0.00  1.0000
   3   5   6 8379901  148873                                                     8454193    0.18    0.00  1.0000
   3   5   6 9104946  218647                                                     9182377    0.18    0.00  1.0000
   3   5   7 4616071  130262                                                     4556889    0.19    0.00  1.0000
   3   5   8 2984208  113614                                                     2996923   -0.05    0.00  1.0000
   3   5   8 3170386  152237                                                     3183491   -0.05    0.00  1.0000
   3   5   9 1492593   90524                                                     1438907   -0.30    0.00  1.0000
   3   5   9 1367515  104161                                                     1316148   -0.30    0.00  1.0000
   3   5  10 1728599   90553                                                     1803214   -0.39    0.00  1.0000
   3   5  10 1773956  113117                                                     1849533   -0.39    0.00  1.0000
   3   5  11  207188   33653                                                      187821   -0.30    0.00  1.0000
   3   5  12  220792   35327                                                      233160   -0.18    0.00  1.0000
   3   5  12  181280   28391                                                      192502   -0.18    0.00  1.0000
   3   6  -6   10358   17400                                                        9163    0.12    0.00  1.0000
   3   6  -4 1658298  111669                                                     1672435    0.08    0.00  1.0000
   3   6  -3  312362   51394                                                      319553   -0.09    0.00  1.0000
   3   6  -2   16769   29480                                                       12290   -0.26    0.00  1.0000
   3   6  -1 2018398  116514                                                     1947063   -0.35    0.00  1.0000
   3   6   0 2699605  131036                                                     2782455   -0.34    0.00  1.0000
   3   6   1 5768154  178598                                                     5680899   -0.25    0.00  1.0000
   3   6   2 1756429   99989                                                     1771354   -0.08    0.00  1.0000
   3   6   3 4803403  157785                                                     4840866    0.12    0.00  1.0000
   3   6   4  629290   57264                                                      605552    0.21    0.00  1.0000
   3   6   4  650289   60147                                                      626154    0.21    0.00  1.0000
   3   6   5 2190632  109988                                                     2166081    0.11    0.00  1.0000
   3   6   5 2477894   89478                                                     2451778    0.11    0.00  1.0000
   3   6   5 2190139  105968                                                     2165591    0.11    0.00  1.0000
   3   6   6 6548798  193324                                                     6523891   -0.07    0.00  1.0000
   3   6   6 6901727  157284                                                     6876158   -0.07    0.00  1.0000
   3   6   6 6516387  194094                                                     6491541   -0.07    0.00  1.0000
   3   6   712147341  275550                                                    12208489   -0.12    0.00  1.0000
   3   6   712184348  219524                                                    12245589   -0.12    0.00  1.0000
   3   6   8   26351   31125                                                       26286    0.07    0.00  1.0000
   3   6   9   87551   41293                                                       72257    0.38    0.00  1.0000
   3   6   9   46564   32842                                                       35601    0.38    0.00  1.0000
   3   6  10   97724   32287                                                       73264    0.58    0.00  1.0000
   3   6  10   93945   31648                                                       69997    0.58    0.00  1.0000
   3   6  11   18633   14487                                                        9802    0.54    0.00  1.0000
   3   6  12   93130   29307                                                       78012    0.36    0.00  1.0000
   3   6  12   98935   21227                                                       83333    0.36    0.00  1.0000
   3   7  -5     179   16736                                                       -4027    0.18    0.00  1.0000
   3   7  -4  777944   66210                                                      800435    0.17    0.00  1.0000
   3   7  -3  366625   52954                                                      347286    0.22    0.00  1.0000
   3   7  -3  247549   51634                                                      231704    0.22    0.00  1.0000
   3   7  -2 1188535   98936                                                     1236609    0.30    0.00  1.0000
   3   7  -2 1307891   98803                                                     1358298    0.30    0.00  1.0000
   3   7  -1  702904   73562                                                      662650    0.34    0.00  1.0000
   3   7  -1  748326   73622                                                      706773    0.34    0.00  1.0000
   3   7   0  257773   44494                                                      281844    0.32    0.00  1.0000
   3   7   0  256832   46695                                                      280860    0.32    0.00  1.0000
   3   7   1 2615264  135584                                                     2687046    0.30    0.00  1.0000
   3   7   1 2754588  129974                                                     2828245    0.30    0.00  1.0000
   3   7   2 3505689  147572                                                     3423999    0.30    0.00  1.0000
   3   7   2 3636598  109343                                                     3553388    0.30    0.00  1.0000
   3   7   2 3601676  141508                                                     3518868    0.30    0.00  1.0000
   3   7   3 7909460  218748                                                     8013657    0.25    0.00  1.0000
   3   7   3 7911069  210226                                                     8015278    0.25    0.00  1.0000
   3   7   3 8320950  167796                                                     8427814    0.25    0.00  1.0000
   3   7   4 6379642  185171                                                     6334933    0.12    0.00  1.0000
   3   7   4 6365522  190758                                                     6320863    0.12    0.00  1.0000
   3   7   4 6489806  187029                                                     6444712    0.12    0.00  1.0000
   3   7   5 2262725  117476                                                     2256250   -0.03    0.00  1.0000
   3   7   5 2423670   94541                                                     2416968   -0.03    0.00  1.0000
   3   7   5 2274412  114553                                                     2267920   -0.03    0.00  1.0000
   3   7   6  315903   49347                                                      325142   -0.11    0.00  1.0000
   3   7   6  292190   54050                                                      301078   -0.11    0.00  1.0000
   3   7   6  340486   41923                                                      350075   -0.11    0.00  1.0000
   3   7   7 4561979  174235                                                     4606669   -0.14    0.00  1.0000
   3   7   7 4627978  143477                                                     4672988   -0.14    0.00  1.0000
   3   7   7 4899994  190381                                                     4946305   -0.14    0.00  1.0000
   3   7   8  444829   54694                                                      422802   -0.23    0.00  1.0000
   3   7   9 1004642   77941                                                     1065920   -0.41    0.00  1.0000
   3   7  10  204304   41278                                                      167618   -0.59    0.00  1.0000
   3   7  10  290961   45221                                                      246835   -0.59    0.00  1.0000
   3   7  11  838896   69038                                                      921975   -0.61    0.00  1.0000
   3   7  12  918272   55853                                                      856411   -0.45    0.00  1.0000
   3   7  12  957592   52490                                                      894398   -0.45    0.00  1.0000
   3   8  -4   64354   14611                                                       55090   -0.26    0.00  1.0000
   3   8  -3  288615   40454                                                      305318   -0.21    0.00  1.0000
   3   8  -2 1306323   89250                                                     1276588   -0.18    0.00  1.0000
   3   8  -1 1008427   87539                                                     1031611   -0.16    0.00  1.0000
   3   8  -1 1087747   89742                                                     1111820   -0.16    0.00  1.0000
   3   8   0 2444338  127521                                                     2416068   -0.12    0.00  1.0000
   3   8   0 2616337  135275                                                     2587087   -0.12    0.00  1.0000
   3   8   1 1762232  117367                                                     1781824   -0.10    0.00  1.0000
   3   8   1 1900370  117487                                                     1920713   -0.10    0.00  1.0000
   3   8   2 5022399  182729                                                     4983675   -0.12    0.00  1.0000
   3   8   2 5278111  182627                                                     5238413   -0.12    0.00  1.0000
   3   8   3  809387   79018                                                      829047   -0.15    0.00  1.0000
   3   8   3  843901   57665                                                      863972   -0.15    0.00  1.0000
   3   8   3  772436   77139                                                      791644   -0.15    0.00  1.0000
   3   8   4 1905074  112847                                                     1928333   -0.12    0.00  1.0000
   3   8   4 2156798   88570                                                     2181540   -0.12    0.00  1.0000
   3   8   4 2115774  122534                                                     2140281   -0.12    0.00  1.0000
   3   8   5 5880690  198116                                                     5884197    0.01    0.00  1.0000
   3   8   5 5787088  149743                                                     5790568    0.01    0.00  1.0000
   3   8   6 5446378  190923                                                     5390661    0.16    0.00  1.0000
   3   8   6 5471757  149725                                                     5415911    0.16    0.00  1.0000
   3   8   6 5160394  191293                                                     5106164    0.16    0.00  1.0000
   3   8   7 1180902   91806                                                     1137640    0.28    0.00  1.0000
   3   8   7 1260978   78771                                                     1216259    0.28    0.00  1.0000
   3   8   7 1435996  100992                                                     1388247    0.28    0.00  1.0000
   3   8   8  405722   54927                                                      438778    0.35    0.00  1.0000
   3   8   8  394566   51672                                                      427173    0.35    0.00  1.0000
   3   8   9  446903   54069                                                      405862    0.43    0.00  1.0000
   3   8  10    1404   27949                                                        -720    0.51    0.00  1.0000
   3   8  10    9064   19339                                                       17076    0.51    0.00  1.0000
   3   8  11  193368   31364                                                      161840    0.52    0.00  1.0000
   3   9  -2  268926   34331                                                      263307    0.07    0.00  1.0000
   3   9  -1   11998   24821                                                       12806    0.05    0.00  1.0000
   3   9   0  949639   75643                                                      957078    0.05    0.00  1.0000
   3   9   1  423867   63213                                                      417615    0.07    0.00  1.0000
   3   9   2  554334   61268                                                      562477    0.08    0.00  1.0000
   3   9   2  678602   75843                                                      687609    0.08    0.00  1.0000
   3   9   3   26357   35216                                                       24868    0.07    0.00  1.0000
   3   9   3   18787   25424                                                       17533    0.07    0.00  1.0000
   3   9   4  282815   34885                                                      280735    0.03    0.00  1.0000
   3   9   4  310903   47560                                                      308722    0.03    0.00  1.0000
   3   9   4  272929   53816                                                      270886    0.03    0.00  1.0000
   3   9   5  524791   68271                                                      520970   -0.04    0.00  1.0000
   3   9   5  606464   50779                                                      602357   -0.04    0.00  1.0000
   3   9   6 4846705  177065                                                     4879336   -0.10    0.00  1.0000
   3   9   6 5008573  140473                                                     5041745   -0.10    0.00  1.0000
   3   9   7  386910   49317                                                      373286   -0.15    0.00  1.0000
   3   9   7  389027   55177                                                      375365   -0.15    0.00  1.0000
   3   9   8 1345322   83516                                                     1379858   -0.20    0.00  1.0000
   3   9   9  454218   50269                                                      427462   -0.28    0.00  1.0000
   3   9  10  562819   53466                                                      602081   -0.35    0.00  1.0000
   3   9  10  658208   54260                                                      700613   -0.35    0.00  1.0000
   3  10   0   11433   14011                                                       13868   -0.16    0.00  1.0000
   3  10   1   91468   26338                                                       83034   -0.20    0.00  1.0000
   3  10   2  526680   53125                                                      504445   -0.21    0.00  1.0000
   3  10   6 1370114   64912                                                     1366968    0.02    0.00  1.0000
   3  10   7       1   16877                                                      -11317   -0.02    0.00  1.0000
   3  10   8    2209    9196                                                        2467   -0.04    0.00  1.0000
   3  10   9       1   23886                                                      -27011    0.02    0.00  1.0000
   3  10  10  813909   48172                                                      797028    0.13    0.00  1.0000
   4  -7  -7   45219   16271                                                       46299    0.03    0.00  1.0000
   4  -7  -6  426423   42415                                                      431633   -0.05    0.00  1.0000
   4  -7  -5 1980645   80800                                                     1945072   -0.17    0.00  1.0000
   4  -7  -4   19702   14663                                                       23993   -0.21    0.00  1.0000
   4  -7  -3  228169   33858                                                      217533   -0.16    0.00  1.0000
   4  -7  -2   45199   22843                                                       48450   -0.10    0.00  1.0000
   4  -7  -1   25861   16096                                                       23472   -0.10    0.00  1.0000
   4  -6  -9 1167967   59369                                                     1114670    0.34    0.00  1.0000
   4  -6  -8 3696846  124826                                                     3763896    0.24    0.00  1.0000
   4  -6  -7 1754430   88514                                                     1728394    0.14    0.00  1.0000
   4  -6  -7 1829543   88187                                                     1802954    0.14    0.00  1.0000
   4  -6  -6   70805   36703                                                       78711    0.20    0.00  1.0000
   4  -6  -6  215708   32160                                                      229352    0.20    0.00  1.0000
   4  -6  -5 2319844  114993                                                     2409888    0.40    0.00  1.0000
   4  -6  -4  107747   36851                                                       82140    0.57    0.00  1.0000
   4  -6  -3  260757   48906                                                      307685    0.61    0.00  1.0000
   4  -6  -2  300638   50638                                                      258523    0.55    0.00  1.0000
   4  -6  -1  492945   58286                                                      546647    0.51    0.00  1.0000
   4  -6   0  380477   49183                                                      335579    0.52    0.00  1.0000
   4  -6   1   17523   25605                                                        9263    0.50    0.00  1.0000
   4  -6   2   15869   16144                                                       12542    0.41    0.00  1.0000
   4  -5 -10 1031874   63787                                                     1083180   -0.34    0.00  1.0000
   4  -5  -9   18179   12250                                                        9426   -0.52    0.00  1.0000
   4  -5  -8  951682   74280                                                      878472   -0.53    0.00  1.0000
   4  -5  -8  983922   68074                                                      909458   -0.53    0.00  1.0000
   4  -5  -7 1287405   93210                                                     1359368   -0.43    0.00  1.0000
   4  -5  -7 1285828   88542                                                     1357748   -0.43    0.00  1.0000
   4  -5  -6 2083366  114184                                                     1997602   -0.41    0.00  1.0000
   4  -5  -6 2055372  110261                                                     1970192   -0.41    0.00  1.0000
   4  -5  -5  156604   41663                                                      126333   -0.56    0.00  1.0000
   4  -5  -5  141987   35835                                                      113239   -0.56    0.00  1.0000
   4  -5  -5  103813   28097                                                       79463   -0.56    0.00  1.0000
   4  -5  -4  272715   50465                                                      217864   -0.76    0.00  1.0000
   4  -5  -4  272396   56632                                                      217579   -0.76    0.00  1.0000
   4  -5  -3       0   31810                                                        4009   -0.88    0.00  1.0000
   4  -5  -3   33903   29716                                                       61480   -0.88    0.00  1.0000
   4  -5  -2   60891   32270                                                       96088   -0.87    0.00  1.0000
   4  -5  -2   94296   52996                                                      137126   -0.87    0.00  1.0000
   4  -5  -1  802498   83379                                                      697048   -0.84    0.00  1.0000
   4  -5   0 2662782  137346                                                     2866364   -0.84    0.00  1.0000
   4  -5   1  847558   73625                                                      738840   -0.84    0.00  1.0000
   4  -5   2  461107   58477                                                      538675   -0.76    0.00  1.0000
   4  -5   3   15058   16611                                                       27027   -0.57    0.00  1.0000
   4  -4 -11  199843   26538                                                      206852    0.11    0.00  1.0000
   4  -4 -10 2091247   94769                                                     2033852    0.27    0.00  1.0000
   4  -4  -9 2861950  132549                                                     2982163    0.48    0.00  1.0000
   4  -4  -8  468875   57575                                                      409979    0.61    0.00  1.0000
   4  -4  -7   87829   33950                                                       63384    0.61    0.00  1.0000
   4  -4  -7   11178   29609                                                        3737    0.61    0.00  1.0000
   4  -4  -7   75168   34288                                                       52703    0.61    0.00  1.0000
   4  -4  -6 4438371  176615                                                     4614538    0.57    0.00  1.0000
   4  -4  -6 4171313  184437                                                     4342151    0.57    0.00  1.0000
   4  -4  -6 3985789  162438                                                     4152823    0.57    0.00  1.0000
   4  -4  -5  280247   52727                                                      237034    0.59    0.00  1.0000
   4  -4  -5  331168   51816                                                      284037    0.59    0.00  1.0000
   4  -4  -5  272083   55386                                                      229530    0.59    0.00  1.0000
   4  -4  -4 1557194  121833                                                     1682815    0.68    0.00  1.0000
   4  -4  -4 1820280  116911                                                     1955902    0.68    0.00  1.0000
   4  -4  -4 1629822  113036                                                     1758284    0.68    0.00  1.0000
   4  -4  -3 1809313  116351                                                     1660405    0.78    0.00  1.0000
   4  -4  -3 1811099  116044                                                     1662115    0.78    0.00  1.0000
   4  -4  -2 1893075  122948                                                     2065351    0.84    0.00  1.0000
   4  -4  -2 2016066  127451                                                     2193730    0.84    0.00  1.0000
   4  -4  -2 1860166   95942                                                     2030972    0.84    0.00  1.0000
   4  -4  -1  757329   77336                                                      648571    0.89    0.00  1.0000
   4  -4  -1  836678   60932                                                      722149    0.89    0.00  1.0000
   4  -4  -1  726808   72126                                                      620350    0.89    0.00  1.0000
   4  -4   0  529700   65134                                                      434442    0.94    0.00  1.0000
   4  -4   0  414529   54108                                                      330804    0.94    0.00  1.0000
   4  -4   0  446114   57146                                                      359082    0.94    0.00  1.0000
   4  -4   1  388674   66756                                                      480477    0.96    0.00  1.0000
   4  -4   1  311155   51345                                                      393803    0.96    0.00  1.0000
   4  -4   1  327085   57318                                                      411700    0.96    0.00  1.0000
   4  -4   2  979930   69080                                                      856623    0.89    0.00  1.0000
   4  -4   3  589608   57563                                                      672796    0.72    0.00  1.0000
   4  -4   4  330037   44549                                                      287811    0.52    0.00  1.0000
   4  -4   4  414469   36487                                                      366976    0.52    0.00  1.0000
   4  -4   5   34146   18490                                                       44221    0.35    0.00  1.0000
   4  -3 -11  993159   55441                                                     1004511   -0.08    0.00  1.0000
   4  -3 -10  172813   38114                                                      180218   -0.12    0.00  1.0000
   4  -3  -9 2983898  140428                                                     2923624   -0.24    0.00  1.0000
   4  -3  -8 2209788  129829                                                     2293279   -0.38    0.00  1.0000
   4  -3  -8 2065388  133733                                                     2146131   -0.38    0.00  1.0000
   4  -3  -7  841008   54997                                                      778693   -0.48    0.00  1.0000
   4  -3  -7  867532   83505                                                      804223   -0.48    0.00  1.0000
   4  -3  -7  846417   84125                                                      783898   -0.48    0.00  1.0000
   4  -3  -7  825916   86362                                                      764173   -0.48    0.00  1.0000
   4  -3  -6 1676300   72588                                                     1582916   -0.50    0.00  1.0000
   4  -3  -6 1710481  118645                                                     1616135   -0.50    0.00  1.0000
   4  -3  -6 1678811  107704                                                     1585356   -0.50    0.00  1.0000
   4  -3  -6 1669415  104839                                                     1576226   -0.50    0.00  1.0000
   4  -3  -5   98709   40777                                                       78061   -0.48    0.00  1.0000
   4  -3  -5   33813   33833                                                       22229   -0.48    0.00  1.0000
   4  -3  -5   61572   35817                                                       45519   -0.48    0.00  1.0000
   4  -3  -4   62904   30497                                                       48547   -0.42    0.00  1.0000
   4  -3  -4   44504   44703                                                       32574   -0.42    0.00  1.0000
   4  -3  -4   81117   34675                                                       64690   -0.42    0.00  1.0000
   4  -3  -3  335049   55987                                                      365972   -0.36    0.00  1.0000
   4  -3  -3  330322   56338                                                      361031   -0.36    0.00  1.0000
   4  -3  -3  362412   60682                                                      394545   -0.36    0.00  1.0000
   4  -3  -2 1354043   97146                                                     1293588   -0.36    0.00  1.0000
   4  -3  -2 1395441  104711                                                     1334058   -0.36    0.00  1.0000
   4  -3  -2 1430117   80714                                                     1367968   -0.36    0.00  1.0000
   4  -3  -1 3576409  157314                                                     3712056   -0.49    0.00  1.0000
   4  -3  -1 3601086  163293                                                     3737196   -0.49    0.00  1.0000
   4  -3  -1 3353713  130401                                                     3485108   -0.49    0.00  1.0000
   4  -3   0  526569   66028                                                      454506   -0.71    0.00  1.0000
   4  -3   0  533933   54613                                                      461349   -0.71    0.00  1.0000
   4  -3   0  513155   67868                                                      442049   -0.71    0.00  1.0000
   4  -3   1  469961   59904                                                      562791   -0.89    0.00  1.0000
   4  -3   1  455890   63211                                                      547383   -0.89    0.00  1.0000
   4  -3   2  268611   58235                                                      342050   -0.92    0.00  1.0000
   4  -3   2  321199   61721                                                      401092   -0.92    0.00  1.0000
   4  -3   2  328115   57329                                                      408816   -0.92    0.00  1.0000
   4  -3   3 1758653  101261                                                     1606876   -0.80    0.00  1.0000
   4  -3   3 1827418  105005                                                     1672635   -0.80    0.00  1.0000
   4  -3   3 1711038   99348                                                     1561376   -0.80    0.00  1.0000
   4  -3   4 2894415  133042                                                     3060252   -0.66    0.00  1.0000
   4  -3   5 1012432   70247                                                      933087   -0.55    0.00  1.0000
   4  -3   6  724466   56788                                                      783137   -0.46    0.00  1.0000
   4  -2 -10  248168   46165                                                      252870    0.06    0.00  1.0000
   4  -2  -9   98916   47157                                                      103837    0.11    0.00  1.0000
   4  -2  -8 1013174   89859                                                      986043    0.19    0.00  1.0000
   4  -2  -8  966156   96524                                                      939667    0.19    0.00  1.0000
   4  -2  -7 6167520  150460                                                     6267903    0.28    0.00  1.0000
   4  -2  -7 6143684  212191                                                     6243874    0.28    0.00  1.0000
   4  -2  -6 1052536   61883                                                      998174    0.37    0.00  1.0000
   4  -2  -6  963633   80715                                                      911649    0.37    0.00  1.0000
   4  -2  -6  996589   93978                                                      943711    0.37    0.00  1.0000
   4  -2  -6  976448   81672                                                      924115    0.37    0.00  1.0000
   4  -2  -5 4434533  126310                                                     4572789    0.45    0.00  1.0000
   4  -2  -5 4296142  162856                                                     4432240    0.45    0.00  1.0000
   4  -2  -5 4362572  179292                                                     4499709    0.45    0.00  1.0000
   4  -2  -5 4435026  164416                                                     4573289    0.45    0.00  1.0000
   4  -2  -4 2280882   95188                                                     2184660    0.44    0.00  1.0000
   4  -2  -4 2565806  115325                                                     2463688    0.44    0.00  1.0000
   4  -2  -4 2485407  132067                                                     2384919    0.44    0.00  1.0000
   4  -2  -4 2461855  114767                                                     2361849    0.44    0.00  1.0000
   4  -2  -3 1146125   94406                                                     1193189    0.30    0.00  1.0000
   4  -2  -3 1075671   79056                                                     1121280    0.30    0.00  1.0000
   4  -2  -2   10205   29201                                                       11526    0.09    0.00  1.0000
   4  -2  -1 5270403  181285                                                     5267253    0.01    0.00  1.0000
   4  -2   0 3807425  155544                                                     3857395    0.18    0.00  1.0000
   4  -2   0 3525328  136120                                                     3573418    0.18    0.00  1.0000
   4  -2   1 4453900  155646                                                     4303941    0.49    0.00  1.0000
   4  -2   1 4633234  164743                                                     4480260    0.49    0.00  1.0000
   4  -2   2 1063834   86720                                                     1177969    0.74    0.00  1.0000
   4  -2   2  947276   94239                                                     1055141    0.74    0.00  1.0000
   4  -2   2 1142190   94278                                                     1260349    0.74    0.00  1.0000
   4  -2   3   62852   35211                                                       36779    0.81    0.00  1.0000
   4  -2   3   59171   32667                                                       33976    0.81    0.00  1.0000
   4  -2   4  316491   45767                                                      256023    0.78    0.00  1.0000
   4  -2   4  331465   53460                                                      269508    0.78    0.00  1.0000
   4  -2   5  252922   57826                                                      310921    0.75    0.00  1.0000
   4  -2   5  239265   44922                                                      295758    0.75    0.00  1.0000
   4  -2   6 1553477   87304                                                     1423237    0.73    0.00  1.0000
   4  -2   7  782443   61173                                                      866363    0.64    0.00  1.0000
   4  -2   8  164389   25120                                                      139540    0.44    0.00  1.0000
   4  -1 -10 4069719  139331                                                     4065133   -0.02    0.00  1.0000
   4  -1  -9 1428764  102847                                                     1441137   -0.07    0.00  1.0000
   4  -1  -8  232050   74095                                                      221140   -0.16    0.00  1.0000
   4  -1  -8  270849   52439                                                      259052   -0.16    0.00  1.0000
   4  -1  -8  264312   56990                                                      252660   -0.16    0.00  1.0000
   4  -1  -7 1225899   71972                                                     1189409   -0.23    0.00  1.0000
   4  -1  -7 1241614   99517                                                     1204889   -0.23    0.00  1.0000
   4  -1  -7 1099890  101171                                                     1065340   -0.23    0.00  1.0000
   4  -1  -7 1199888  107330                                                     1163790   -0.23    0.00  1.0000
   4  -1  -6  654152   52187                                                      619268   -0.30    0.00  1.0000
   4  -1  -6  648156   79213                                                      613434   -0.30    0.00  1.0000
   4  -1  -6  611510   71646                                                      577799   -0.30    0.00  1.0000
   4  -1  -6  657140   82651                                                      622175   -0.30    0.00  1.0000
   4  -1  -6  631925   72546                                                      597648   -0.30    0.00  1.0000
   4  -1  -5  153376   39306                                                      129348   -0.44    0.00  1.0000
   4  -1  -5   85650   40452                                                       67948   -0.44    0.00  1.0000
   4  -1  -5  106300   34520                                                       86464   -0.44    0.00  1.0000
   4  -1  -4 2167263  123538                                                     2306979   -0.64    0.00  1.0000
   4  -1  -3 5947240  182407                                                     5685589   -0.75    0.00  1.0000
   4  -1  -2 6303240  190936                                                     6531611   -0.62    0.00  1.0000
   4  -1  -1   40452   30410                                                       31099   -0.34    0.00  1.0000
   4  -1  -1   77790   21383                                                       64584   -0.34    0.00  1.0000
   4  -1   0   27556   12816                                                       31334   -0.16    0.00  1.0000
   4  -1   0   26166   22403                                                       29850   -0.16    0.00  1.0000
   4  -1   0   36671   35365                                                       41011   -0.16    0.00  1.0000
   4  -1   1 2980172   80585                                                     3035013   -0.22    0.00  1.0000
   4  -1   1 2875777  127669                                                     2929654   -0.22    0.00  1.0000
   4  -1   2 5183653  165698                                                     5043175   -0.43    0.00  1.0000
   4  -1   2 5115937  164297                                                     4976385   -0.43    0.00  1.0000
   4  -1   3 5881296  186941                                                     6092195   -0.59    0.00  1.0000
   4  -1   3 5713668  192130                                                     5921567   -0.59    0.00  1.0000
   4  -1   4 1569082   99711                                                     1451947   -0.66    0.00  1.0000
   4  -1   4 1817266  101497                                                     1691035   -0.66    0.00  1.0000
   4  -1   4 1541768  100506                                                     1425677   -0.66    0.00  1.0000
   4  -1   5  746731   79355                                                      837127   -0.70    0.00  1.0000
   4  -1   5  781834   77591                                                      874270   -0.70    0.00  1.0000
   4  -1   5  771641   79144                                                      863490   -0.70    0.00  1.0000
   4  -1   6  298526   55771                                                      361726   -0.76    0.00  1.0000
   4  -1   6  378897   62673                                                      449715   -0.76    0.00  1.0000
   4  -1   7  837173   66418                                                      741570   -0.74    0.00  1.0000
   4  -1   7  800733   69543                                                      707298   -0.74    0.00  1.0000
   4  -1   8  760774   61746                                                      834777   -0.57    0.00  1.0000
   4  -1   9  160003   24669                                                      142429   -0.31    0.00  1.0000
   4   0  -9 1127547   86424                                                     1136280   -0.06    0.00  1.0000
   4   0  -8 3110219  154356                                                     3117152    0.03    0.00  1.0000
   4   0  -8 3321096  156569                                                     3328260    0.03    0.00  1.0000
   4   0  -7   42528   30698                                                       38896    0.13    0.00  1.0000
   4   0  -7   63749   34995                                                       59286    0.13    0.00  1.0000
   4   0  -7   55037   33842                                                       50895    0.13    0.00  1.0000
   4   0  -7   13308   41172                                                       11310    0.13    0.00  1.0000
   4   0  -6 1815845   88557                                                     1852323    0.19    0.00  1.0000
   4   0  -6 1854570  115650                                                     1891433    0.19    0.00  1.0000
   4   0  -6 2050102  131471                                                     2088851    0.19    0.00  1.0000
   4   0  -5  860299   56950                                                      826154    0.26    0.00  1.0000
   4   0  -5  733415   81912                                                      701915    0.26    0.00  1.0000
   4   0  -5  815966   75628                                                      782721    0.26    0.00  1.0000
   4   0  -5  765536   82689                                                      733345    0.26    0.00  1.0000
   4   0  -5  748353   66162                                                      716530    0.26    0.00  1.0000
   4   0  -4  565165   62976                                                      616175    0.46    0.00  1.0000
   4   0  -4  478246   64870                                                      525259    0.46    0.00  1.0000
   4   0  -3    3188   33057                                                      -20263    0.78    0.00  1.0000
   4   0  -3   24627   23840                                                       23743    0.78    0.00  1.0000
   4   0  -2 4899748  149638                                                     4577119    1.02    0.00  1.0000
   4   0  -1 4316832   90959                                                     4625458    1.00    0.00  1.0000
   4   0  -1 4627784  140460                                                     4947145    1.00    0.00  1.0000
   4   0  -1 4653938  153739                                                     4974185    1.00    0.00  1.0000
   4   0   0 8083568  187311                                                     7765580    0.78    0.00  1.0000
   4   0   0 7480858  114211                                                     7175075    0.78    0.00  1.0000
   4   0   0 7972484  161253                                                     7656710    0.78    0.00  1.0000
   4   0   1  500104   34863                                                      559077    0.56    0.00  1.0000
   4   0   1  554873   58131                                                      616904    0.56    0.00  1.0000
   4   0   1  513798   43393                                                      573551    0.56    0.00  1.0000
   4   0   2 1585760   61134                                                     1675175    0.48    0.00  1.0000
   4   0   2 1524024   90210                                                     1611705    0.48    0.00  1.0000
   4   0   3 5655298  119745                                                     5489111    0.48    0.00  1.0000
   4   0   3 6043699  172322                                                     5871857    0.48    0.00  1.0000
   4   0   4 2504300  129647                                                     2611596    0.46    0.00  1.0000
   4   0   4 2675735  123085                                                     2786605    0.46    0.00  1.0000
   4   0   5 3576463  160998                                                     3457489    0.44    0.00  1.0000
   4   0   5 3765359  143865                                                     3643257    0.44    0.00  1.0000
   4   0   6  420155   70387                                                      466974    0.48    0.00  1.0000
   4   0   6  442402   64565                                                      490412    0.48    0.00  1.0000
   4   0   7    8285   35179                                                       17315    0.56    0.00  1.0000
   4   0   8  523066   57855                                                      469570    0.52    0.00  1.0000
   4   0   8  449089   51821                                                      399625    0.52    0.00  1.0000
   4   0   9  559368   51465                                                      594093    0.31    0.00  1.0000
   4   1  -8  256922   53833                                                      270223    0.18    0.00  1.0000
   4   1  -7  614469   73987                                                      627912    0.12    0.00  1.0000
   4   1  -7  573619   80313                                                      586611    0.12    0.00  1.0000
   4   1  -6 1148618   74738                                                     1151530    0.02    0.00  1.0000
   4   1  -6 1209501  101389                                                     1212489    0.02    0.00  1.0000
   4   1  -6 1015363   85117                                                     1018101    0.02    0.00  1.0000
   4   1  -5 3836431  117672                                                     3846535   -0.04    0.00  1.0000
   4   1  -5 4025843  165055                                                     4036194   -0.04    0.00  1.0000
   4   1  -5 3683745  152706                                                     3693647   -0.04    0.00  1.0000
   4   1  -5 3642601  169752                                                     3652447   -0.04    0.00  1.0000
   4   1  -4 2522854  121452                                                     2501357   -0.09    0.00  1.0000
   4   1  -4 2390583  123122                                                     2369659   -0.09    0.00  1.0000
   4   1  -3   97992   29491                                                       85673   -0.28    0.00  1.0000
   4   1  -3  104253   33962                                                       91534   -0.28    0.00  1.0000
   4   1  -211812388  203441                                                    12117590   -0.61    0.00  1.0000
   4   1  -211643960  223332                                                    11946992   -0.61    0.00  1.0000
   4   1  -1 6618529  159901                                                     6285923   -0.90    0.00  1.0000
   4   1  -1 6725192  157058                                                     6389882   -0.90    0.00  1.0000
   4   1   0 9726766  195716                                                    10180508   -0.99    0.00  1.0000
   4   1   010062097  169368                                                    10523505   -0.99    0.00  1.0000
   4   1   1 9312165  144749                                                     8923689   -0.88    0.00  1.0000
   4   1   1 9706262  189278                                                     9309566   -0.88    0.00  1.0000
   4   1   1 9301939  162288                                                     8913679   -0.88    0.00  1.0000
   4   1   2 9792633  155874                                                    10129408   -0.73    0.00  1.0000
   4   1   2 9456575  184170                                                     9787571   -0.73    0.00  1.0000
   4   1   2 9909546  201423                                                    10248307   -0.73    0.00  1.0000
   4   1   2 9729610  159870                                                    10065309   -0.73    0.00  1.0000
   4   1   3 3010304   85189                                                     2856534   -0.62    0.00  1.0000
   4   1   3 2884618  111416                                                     2734135   -0.62    0.00  1.0000
   4   1   3 3280606  116821                                                     3119992   -0.62    0.00  1.0000
   4   1   3 3270300   80625                                                     3109942   -0.62    0.00  1.0000
   4   1   4  719207   49391                                                      781979   -0.50    0.00  1.0000
   4   1   4  629564   68054                                                      688379   -0.50    0.00  1.0000
   4   1   4  722519   65759                                                      785433   -0.50    0.00  1.0000
   4   1   5 2972601  141970                                                     3063622   -0.36    0.00  1.0000
   4   1   5 3054140  129513                                                     3146392   -0.36    0.00  1.0000
   4   1   5 3022239  133669                                                     3114012   -0.36    0.00  1.0000
   4   1   6 3539952  163934                                                     3461349   -0.29    0.00  1.0000
   4   1   6 3803469  143422                                                     3721977   -0.29    0.00  1.0000
   4   1   6 3372076  141798                                                     3295370   -0.29    0.00  1.0000
   4   1   7 2099111  135588                                                     2171990   -0.34    0.00  1.0000
   4   1   7 2090677  115962                                                     2163411   -0.34    0.00  1.0000
   4   1   8  694077   75572                                                      643971   -0.42    0.00  1.0000
   4   1   8  643509   66164                                                      595298   -0.42    0.00  1.0000
   4   1   9     681   29859                                                      -12699   -0.36    0.00  1.0000
   4   1  10  350334   38752                                                      338932   -0.13    0.00  1.0000
   4   2  -7  218779   45838                                                      201322   -0.26    0.00  1.0000
   4   2  -6   86519   43999                                                       78299   -0.20    0.00  1.0000
   4   2  -6   46724   35324                                                       40738   -0.20    0.00  1.0000
   4   2  -6  109289   26011                                                      100025   -0.20    0.00  1.0000
   4   2  -5  571995   54787                                                      581733   -0.09    0.00  1.0000
   4   2  -5  623708   73013                                                      633874   -0.09    0.00  1.0000
   4   2  -5  722797   75049                                                      733737   -0.09    0.00  1.0000
   4   2  -5  661012   63345                                                      671477   -0.09    0.00  1.0000
   4   2  -4 3722530  145476                                                     3713966   -0.03    0.00  1.0000
   4   2  -4 3649126  146031                                                     3640647   -0.03    0.00  1.0000
   4   2  -4 3274652  128458                                                     3266621   -0.03    0.00  1.0000
   4   2  -316129526  276141                                                    16123854    0.01    0.00  1.0000
   4   2  -315186165  260258                                                    15180662    0.01    0.00  1.0000
   4   2  -215936646  254600                                                    16022555    0.15    0.00  1.0000
   4   2  -215343763  228725                                                    15428060    0.15    0.00  1.0000
   4   2  -215620903  257922                                                    15705958    0.15    0.00  1.0000
   4   2  -116931792  216289                                                    16690749    0.40    0.00  1.0000
   4   2  -116840240  255440                                                    16599850    0.40    0.00  1.0000
   4   2  -117113688  230268                                                    16871348    0.40    0.00  1.0000
   4   2   0  301011   37114                                                      354852    0.65    0.00  1.0000
   4   2   0  314174   42654                                                      369131    0.65    0.00  1.0000
   4   2   1 4740388  124708                                                     4977165    0.74    0.00  1.0000
   4   2   1 4443241  121222                                                     4672568    0.74    0.00  1.0000
   4   2   2 7097178  136348                                                     6833668    0.69    0.00  1.0000
   4   2   2 7227254  150084                                                     6961317    0.69    0.00  1.0000
   4   2   2 7069469  137683                                                     6806479    0.69    0.00  1.0000
   4   2   3 1217581   64298                                                     1314998    0.60    0.00  1.0000
   4   2   3 1197743   71341                                                     1294378    0.60    0.00  1.0000
   4   2   3 1282679   74161                                                     1382618    0.60    0.00  1.0000
   4   2   3 1259009   58791                                                     1358038    0.60    0.00  1.0000
   4   2   4 2025247   75248                                                     1918793    0.52    0.00  1.0000
   4   2   4 2050220   96046                                                     1943102    0.52    0.00  1.0000
   4   2   4 2179663   91835                                                     2069171    0.52    0.00  1.0000
   4   2   5    1721   14422                                                        4281    0.44    0.00  1.0000
   4   2   5    1015   27949                                                      -10297    0.44    0.00  1.0000
   4   2   5    1015   32016                                                      -17393    0.44    0.00  1.0000
   4   2   6  303352   37646                                                      332083    0.35    0.00  1.0000
   4   2   6  301462   55140                                                      330105    0.35    0.00  1.0000
   4   2   6  266149   56320                                                      293101    0.35    0.00  1.0000
   4   2   7 1368166  105927                                                     1313008    0.33    0.00  1.0000
   4   2   7 1280931   88832                                                     1227579    0.33    0.00  1.0000
   4   2   8 1354774  116099                                                     1420977    0.39    0.00  1.0000
   4   2   8 1268053   94447                                                     1332128    0.39    0.00  1.0000
   4   2   9     927   30920                                                       -6735    0.42    0.00  1.0000
   4   2   9     927   26383                                                      -18578    0.42    0.00  1.0000
   4   2  10 1066353   63858                                                     1112210    0.30    0.00  1.0000
   4   2  10  998198   62716                                                     1042581    0.30    0.00  1.0000
   4   3  -7 1731369  109271                                                     1764224    0.17    0.00  1.0000
   4   3  -6 2779142  137769                                                     2728755    0.21    0.00  1.0000
   4   3  -5 1488262  106414                                                     1516716    0.16    0.00  1.0000
   4   3  -4      35   27890                                                      -57674    0.08    0.00  1.0000
   4   3  -4      35   30535                                                      -18717    0.08    0.00  1.0000
   4   3  -4      35   20503                                                      -29255    0.08    0.00  1.0000
   4   3  -3 3500056  137834                                                     3490508    0.04    0.00  1.0000
   4   3  -3 3138132  119259                                                     3129092    0.04    0.00  1.0000
   4   3  -2 1384438   87713                                                     1382358   -0.01    0.00  1.0000
   4   3  -2 1330787   76262                                                     1328748   -0.01    0.00  1.0000
   4   3  -1 3799314  121895                                                     3838265   -0.14    0.00  1.0000
   4   3  -1 3554738  117817                                                     3592418   -0.14    0.00  1.0000
   4   3   0 3421353  104445                                                     3332980   -0.33    0.00  1.0000
   4   3   0 3242731  107092                                                     3156712   -0.33    0.00  1.0000
   4   3   1 1931065   67091                                                     2028832   -0.48    0.00  1.0000
   4   3   1 1992003   78475                                                     2091281   -0.48    0.00  1.0000
   4   3   1 1986284   84306                                                     2085421   -0.48    0.00  1.0000
   4   3   2  204088   28819                                                      237379   -0.49    0.00  1.0000
   4   3   2  200283   24793                                                      233274   -0.49    0.00  1.0000
   4   3   2  187852   31420                                                      219843   -0.49    0.00  1.0000
   4   3   3 2032332   74621                                                     1949902   -0.40    0.00  1.0000
   4   3   3 2123071   77372                                                     2038801   -0.40    0.00  1.0000
   4   3   3 2079136   74299                                                     1995752   -0.40    0.00  1.0000
   4   3   412420753  199433                                                    12593686   -0.34    0.00  1.0000
   4   3   412458988  196963                                                    12632186   -0.34    0.00  1.0000
   4   3   412807388  204410                                                    12982982   -0.34    0.00  1.0000
   4   3   413064041  174069                                                    13241380   -0.34    0.00  1.0000
   4   3   5 4959392  123022                                                     4848656   -0.34    0.00  1.0000
   4   3   5 5086943  138344                                                     4974785   -0.34    0.00  1.0000
   4   3   6 1094743   61074                                                     1154430   -0.39    0.00  1.0000
   4   3   8    1099   37104                                                      -17881   -0.46    0.00  1.0000
   4   3   9  351511   44117                                                      312320   -0.47    0.00  1.0000
   4   3   9  349764   59355                                                      310674   -0.47    0.00  1.0000
   4   3   9  325139   51653                                                      287491   -0.47    0.00  1.0000
   4   3  10 1159500   78301                                                     1096240   -0.41    0.00  1.0000
   4   3  11 1306818   64832                                                     1349308   -0.25    0.00  1.0000
   4   4  -6 1187939   94303                                                     1199269   -0.07    0.00  1.0000
   4   4  -5 2169322  127133                                                     2140031   -0.14    0.00  1.0000
   4   4  -4 2866277  138473                                                     2900404   -0.14    0.00  1.0000
   4   4  -3  417535   57887                                                      408146   -0.10    0.00  1.0000
   4   4  -3  360355   40586                                                      351636   -0.10    0.00  1.0000
   4   4  -2  352958   54718                                                      358658   -0.07    0.00  1.0000
   4   4  -2  330551   39206                                                      336068   -0.07    0.00  1.0000
   4   4  -1 1653831   95389                                                     1657525   -0.02    0.00  1.0000
   4   4  -1 1449069   75360                                                     1452527   -0.02    0.00  1.0000
   4   4   0 4900306  146229                                                     4924656    0.08    0.00  1.0000
   4   4   0 4709076  126156                                                     4732947    0.08    0.00  1.0000
   4   4   1 4224959  126122                                                     4165432    0.20    0.00  1.0000
   4   4   1 4098287  114785                                                     4039664    0.20    0.00  1.0000
   4   4   2  877871   59476                                                      914903    0.27    0.00  1.0000
   4   4   2  881727   54426                                                      918840    0.27    0.00  1.0000
   4   4   3 2893424   99539                                                     2835984    0.23    0.00  1.0000
   4   4   3 3079268   92094                                                     3020003    0.23    0.00  1.0000
   4   4   4   85838   22212                                                       79690    0.15    0.00  1.0000
   4   4   5 2302999   90563                                                     2329619    0.12    0.00  1.0000
   4   4   5 2327716  102237                                                     2354479    0.12    0.00  1.0000
   4   4   6 7988503  157662                                                     7904308    0.21    0.00  1.0000
   4   4   7 7090673  150851                                                     7229505    0.36    0.00  1.0000
   4   4  10   44442   33868                                                       30180    0.51    0.00  1.0000
   4   4  11   17648   20926                                                       10958    0.39    0.00  1.0000
   4   5  -5  196887   55169                                                      202891    0.09    0.00  1.0000
   4   5  -4 2742087  144537                                                     2706176    0.15    0.00  1.0000
   4   5  -3 2149140  127975                                                     2173250    0.11    0.00  1.0000
   4   5  -2 3922773  165507                                                     3908385    0.05    0.00  1.0000
   4   5  -1 1006141   87062                                                     1009981    0.03    0.00  1.0000
   4   5  -1  894972   58942                                                      898594    0.03    0.00  1.0000
   4   5   0   66430   37107                                                       67483    0.03    0.00  1.0000
   4   5   0   98584   28716                                                       99866    0.03    0.00  1.0000
   4   5   1 4298866  146329                                                     4299451    0.00    0.00  1.0000
   4   5   1 4175106  113128                                                     4175682    0.00    0.00  1.0000
   4   5   2 8134655  192077                                                     8104227   -0.07    0.00  1.0000
   4   5   2 8437965  156678                                                     8406974   -0.07    0.00  1.0000
   4   5   315180435  256588                                                    15251962   -0.13    0.00  1.0000
   4   5   316373769  215455                                                    16448051   -0.13    0.00  1.0000
   4   5   4 3454136  125358                                                     3426039   -0.10    0.00  1.0000
   4   5   5  716300   55284                                                      720797   -0.04    0.00  1.0000
   4   5   5  749259   64851                                                      753857   -0.04    0.00  1.0000
   4   5   6  379217   38593                                                      377424   -0.02    0.00  1.0000
   4   5   6  402633   53290                                                      400784   -0.02    0.00  1.0000
   4   5   6  418188   46184                                                      416304   -0.02    0.00  1.0000
   4   5   7  483750   41084                                                      496423   -0.12    0.00  1.0000
   4   5   7  422617   47718                                                      434467   -0.12    0.00  1.0000
   4   5   8  857566   59127                                                      814927   -0.32    0.00  1.0000
   4   5  10 2573794  144346                                                     2708256   -0.57    0.00  1.0000
   4   5  11  604198   60264                                                      549663   -0.49    0.00  1.0000
   4   5  12   38530   16247                                                       29523   -0.34    0.00  1.0000
   4   6  -7  671654   39662                                                      658321    0.11    0.00  1.0000
   4   6  -6  818533   54293                                                      823969    0.04    0.00  1.0000
   4   6  -4   61934   25834                                                       68990   -0.19    0.00  1.0000
   4   6  -3   10211   37633                                                        8554   -0.14    0.00  1.0000
   4   6  -2 1304297  103749                                                     1308528   -0.03    0.00  1.0000
   4   6  -2  963217   71635                                                      966853   -0.03    0.00  1.0000
   4   6  -1 2857413  146572                                                     2869394    0.05    0.00  1.0000
   4   6  -1 2558100  109480                                                     2569437    0.05    0.00  1.0000
   4   6   0 2797332  140577                                                     2784805    0.05    0.00  1.0000
   4   6   0 2632439  106668                                                     2620286    0.05    0.00  1.0000
   4   6   0 2535965   85477                                                     2524037    0.05    0.00  1.0000
   4   6   1 1093334   85514                                                     1100830    0.05    0.00  1.0000
   4   6   1 1009248   65065                                                     1016451    0.05    0.00  1.0000
   4   6   1 1218975   65883                                                     1226889    0.05    0.00  1.0000
   4   6   1 1093693   57064                                                     1101190    0.05    0.00  1.0000
   4   6   1  970888   75738                                                      977952    0.05    0.00  1.0000
   4   6   2 1490680   96035                                                     1471967    0.11    0.00  1.0000
   4   6   2 1601615   84635                                                     1582216    0.11    0.00  1.0000
   4   6   2 1727293   75939                                                     1707145    0.11    0.00  1.0000
   4   6   2 1567708   66369                                                     1548516    0.11    0.00  1.0000
   4   6   3  246111   44824                                                      232056    0.20    0.00  1.0000
   4   6   3  253968   33283                                                      239687    0.20    0.00  1.0000
   4   6   3  303346   42468                                                      287719    0.20    0.00  1.0000
   4   6   4 2103486   89380                                                     2154031    0.24    0.00  1.0000
   4   6   4 1947525   81530                                                     1996172    0.24    0.00  1.0000
   4   6   5 4601140  159765                                                     4546269    0.18    0.00  1.0000
   4   6   5 4938006  134150                                                     4881156    0.18    0.00  1.0000
   4   6   6 2314152   91976                                                     2329189    0.07    0.00  1.0000
   4   6   6 2471619  123450                                                     2487158    0.07    0.00  1.0000
   4   6   6 2583361   98549                                                     2599247    0.07    0.00  1.0000
   4   6   6 2283532  111724                                                     2298469    0.07    0.00  1.0000
   4   6   7    8862   18231                                                        8550    0.03    0.00  1.0000
   4   6   7    2243   22518                                                        2086    0.03    0.00  1.0000
   4   6   8   95740   34977                                                      102176    0.14    0.00  1.0000
   4   6   9 1056561   75094                                                     1107220    0.33    0.00  1.0000
   4   6  10 1350237   73572                                                     1271109    0.48    0.00  1.0000
   4   6  10 1393246   99005                                                     1312848    0.48    0.00  1.0000
   4   6  11 1521180   93753                                                     1604856    0.46    0.00  1.0000
   4   6  12 1116312   58315                                                     1069350    0.31    0.00  1.0000
   4   7  -5  573890   48495                                                      568828    0.05    0.00  1.0000
   4   7  -4  170468   37708                                                      179503    0.15    0.00  1.0000
   4   7  -3  468104   59472                                                      454014    0.14    0.00  1.0000
   4   7  -2      19   17348                                                      -42448    0.06    0.00  1.0000
   4   7  -2   29431   37423                                                       30915    0.06    0.00  1.0000
   4   7  -1  525046   67091                                                      525717    0.01    0.00  1.0000
   4   7  -1  477402   52912                                                      478042    0.01    0.00  1.0000
   4   7  -1  556582   66760                                                      557273    0.01    0.00  1.0000
   4   7   0 2316185  132173                                                     2313709    0.01    0.00  1.0000
   4   7   0 2146173   97422                                                     2143791    0.01    0.00  1.0000
   4   7   0 2304138  120333                                                     2301669    0.01    0.00  1.0000
   4   7   1 3582400  162325                                                     3579968   -0.01    0.00  1.0000
   4   7   1 3664257  124276                                                     3661797   -0.01    0.00  1.0000
   4   7   1 3574247  148153                                                     3571818   -0.01    0.00  1.0000
   4   7   2 7196632  220844                                                     7246945   -0.13    0.00  1.0000
   4   7   2 7462621  174062                                                     7513853   -0.13    0.00  1.0000
   4   7   2 6777184  196682                                                     6826009   -0.13    0.00  1.0000
   4   7   3 1146741   90102                                                     1099910   -0.30    0.00  1.0000
   4   7   3 1187505   70824                                                     1139840   -0.30    0.00  1.0000
   4   7   3 1045996   76113                                                     1001291   -0.30    0.00  1.0000
   4   7   4    5151   18145                                                       10094   -0.41    0.00  1.0000
   4   7   4   18326   26256                                                       26955   -0.41    0.00  1.0000
   4   7   4   31238   28317                                                       42263   -0.41    0.00  1.0000
   4   7   5  488045   62296                                                      524682   -0.35    0.00  1.0000
   4   7   5  531626   51796                                                      569835   -0.35    0.00  1.0000
   4   7   6 1009429   82305                                                      979952   -0.20    0.00  1.0000
   4   7   6  981167   67269                                                      952109   -0.20    0.00  1.0000
   4   7   7  532818   67494                                                      542910   -0.09    0.00  1.0000
   4   7   7  594858   55671                                                      605519   -0.09    0.00  1.0000
   4   7   7  541947   61854                                                      552125   -0.09    0.00  1.0000
   4   7   8 5263860  151793                                                     5220563   -0.13    0.00  1.0000
   4   7   8 5071350  169546                                                     5028855   -0.13    0.00  1.0000
   4   7   9 1665460   89647                                                     1718304   -0.28    0.00  1.0000
   4   7   9 1636203  100674                                                     1688585   -0.28    0.00  1.0000
   4   7  10   42222   28331                                                       30949   -0.41    0.00  1.0000
   4   7  10   48743   26289                                                       36566   -0.41    0.00  1.0000
   4   7  11  333047   40153                                                      301148   -0.39    0.00  1.0000
   4   7  12  438565   39394                                                      460215   -0.22    0.00  1.0000
   4   8  -4  290664   36352                                                      292016    0.02    0.00  1.0000
   4   8  -3 1191199   74949                                                     1193449   -0.01    0.00  1.0000
   4   8  -2 1279384   87618                                                     1280828    0.01    0.00  1.0000
   4   8  -1  420153   63353                                                      420213    0.00    0.00  1.0000
   4   8  -1  557160   71828                                                      557230    0.00    0.00  1.0000
   4   8   0   42865   17740                                                       40319   -0.09    0.00  1.0000
   4   8   0   36159   34029                                                       33824   -0.09    0.00  1.0000
   4   8   1   17247   36656                                                       20191   -0.15    0.00  1.0000
   4   8   1    3485   14698                                                        4870   -0.15    0.00  1.0000
   4   8   1   41044   34521                                                       45525   -0.15    0.00  1.0000
   4   8   2  761862   80162                                                      769942   -0.06    0.00  1.0000
   4   8   2  935736   63879                                                      944687   -0.06    0.00  1.0000
   4   8   2  857580   84332                                                      866151   -0.06    0.00  1.0000
   4   8   3  883171   85343                                                      905087    0.16    0.00  1.0000
   4   8   3  830987   60339                                                      852249    0.16    0.00  1.0000
   4   8   3  802856   78668                                                      823758    0.16    0.00  1.0000
   4   8   4 1539220  105791                                                     1477597    0.35    0.00  1.0000
   4   8   4 1613728   80829                                                     1550616    0.35    0.00  1.0000
   4   8   4 1550447   98028                                                     1488597    0.35    0.00  1.0000
   4   8   5  862206   84050                                                      909117    0.34    0.00  1.0000
   4   8   5  958767   69880                                                     1008201    0.34    0.00  1.0000
   4   8   6   99913   38895                                                       91623    0.18    0.00  1.0000
   4   8   6   52559   23627                                                       46596    0.18    0.00  1.0000
   4   8   7  126135   43706                                                      128523    0.05    0.00  1.0000
   4   8   7  141768   38658                                                      144299    0.05    0.00  1.0000
   4   8   8 2183914  104638                                                     2198730    0.07    0.00  1.0000
   4   8   9 2557705  104719                                                     2504187    0.23    0.00  1.0000
   4   8  10 2123342   94114                                                     2205130    0.38    0.00  1.0000
   4   8  11  813455   46463                                                      764051    0.38    0.00  1.0000
   4   9  -3    3333    4895                                                        3819   -0.07    0.00  1.0000
   4   9  -2  191768   31659                                                      188697   -0.05    0.00  1.0000
   4   9  -1  662103   61405                                                      667628   -0.05    0.00  1.0000
   4   9   0 1160641   87023                                                     1161860    0.01    0.00  1.0000
   4   9   1 1978068  110869                                                     1956502    0.11    0.00  1.0000
   4   9   2   44151   17733                                                       48375    0.14    0.00  1.0000
   4   9   2   42533   29068                                                       46680    0.14    0.00  1.0000
   4   9   3  466619   60358                                                      469357    0.03    0.00  1.0000
   4   9   3  606753   48051                                                      609875    0.03    0.00  1.0000
   4   9   3  491455   60874                                                      494265    0.03    0.00  1.0000
   4   9   4 1940399  117575                                                     1966702   -0.13    0.00  1.0000
   4   9   4 2074666   87810                                                     2101861   -0.13    0.00  1.0000
   4   9   4 1938820  109300                                                     1965112   -0.13    0.00  1.0000
   4   9   5 1688276  106767                                                     1655885   -0.17    0.00  1.0000
   4   9   5 1760686   84137                                                     1727604   -0.17    0.00  1.0000
   4   9   6  525830   59284                                                      531670   -0.06    0.00  1.0000
   4   9   6  548958   51494                                                      554925   -0.06    0.00  1.0000
   4   9   7 2384040  102872                                                     2404788    0.09    0.00  1.0000
   4   9   8  150639   34619                                                      144633    0.11    0.00  1.0000
   4   9   9   48736   26896                                                       49851   -0.03    0.00  1.0000
   4   9  10  376874   42252                                                      358690   -0.21    0.00  1.0000
   4  10  -1   27551   13987                                                       28452   -0.04    0.00  1.0000
   4  10   0  183446   32473                                                      181707   -0.03    0.00  1.0000
   4  10   1 1212765   73784                                                     1217699   -0.03    0.00  1.0000
   4  10   2  640512   61778                                                      634274   -0.05    0.00  1.0000
   4  10   3  424007   52118                                                      428888   -0.05    0.00  1.0000
   4  10   4   90668   18159                                                       90230   -0.01    0.00  1.0000
   4  10   5   19804   12672                                                       20016    0.01    0.00  1.0000
   4  10   6   94172   22525                                                       96295   -0.05    0.00  1.0000
   4  10   7 2755725   94897                                                     2720095   -0.15    0.00  1.0000
   4  10   8 1523059   72007                                                     1557156   -0.19    0.00  1.0000
   4  10   9  583411   42566                                                      570379   -0.12    0.00  1.0000
   4  10  10  129766   21564                                                      129482    0.01    0.00  1.0000
   4  11   7      87   11308                                                      -27623    0.13    0.00  1.0000
   4  11   8  243678   24364                                                      233987    0.14    0.00  1.0000
   5  -6  -6   29270   19424                                                       38801    0.36    0.00  1.0000
   5  -6  -5   92472   26737                                                      105229    0.28    0.00  1.0000
   5  -6  -4 1402773   70359                                                     1371858    0.18    0.00  1.0000
   5  -6  -3  205821   30864                                                      214525    0.13    0.00  1.0000
   5  -6  -2   48873   20606                                                       52845    0.12    0.00  1.0000
   5  -6  -1  109196   17138                                                      104203    0.11    0.00  1.0000
   5  -5  -8  573437   42501                                                      572127   -0.01    0.00  1.0000
   5  -5  -7     178   17398                                                       -8694   -0.18    0.00  1.0000
   5  -5  -7     178   23872                                                       -3054   -0.18    0.00  1.0000
   5  -5  -6  179539   39360                                                      197545   -0.29    0.00  1.0000
   5  -5  -5     320   26216                                                       -6604   -0.25    0.00  1.0000
   5  -5  -4  753085   69089                                                      771530   -0.15    0.00  1.0000
   5  -5  -3  882231   70947                                                      868685   -0.10    0.00  1.0000
   5  -5  -2  908745   71627                                                      925716   -0.12    0.00  1.0000
   5  -5  -1 1325783   78403                                                     1303958   -0.13    0.00  1.0000
   5  -5   0  453269   45970                                                      460174   -0.07    0.00  1.0000
   5  -5   1  212641   29821                                                      214398    0.03    0.00  1.0000
   5  -4  -9     448   10285                                                      -24843   -0.29    0.00  1.0000
   5  -4  -8  266294   39715                                                      240155   -0.36    0.00  1.0000
   5  -4  -7 1062191   79535                                                     1106280   -0.29    0.00  1.0000
   5  -4  -7 1117186   81456                                                     1162390   -0.29    0.00  1.0000
   5  -4  -6 1941929  103460                                                     1903003   -0.19    0.00  1.0000
   5  -4  -6 2238195  113670                                                     2196390   -0.19    0.00  1.0000
   5  -4  -5 3810167  154112                                                     3860825   -0.18    0.00  1.0000
   5  -4  -4  244149   53393                                                      228327   -0.22    0.00  1.0000
   5  -4  -4  352674   53943                                                      333605   -0.22    0.00  1.0000
   5  -4  -4  275965   60461                                                      259128   -0.22    0.00  1.0000
   5  -4  -3     244   15741                                                       -8889   -0.21    0.00  1.0000
   5  -4  -3   70541   39919                                                       62490   -0.21    0.00  1.0000
   5  -4  -3     244   47903                                                      -11843   -0.21    0.00  1.0000
   5  -4  -2   33124   36803                                                       35814   -0.10    0.00  1.0000
   5  -4  -2    8203   38992                                                        9567   -0.10    0.00  1.0000
   5  -4  -1  237286   40145                                                      239465    0.03    0.00  1.0000
   5  -4  -1  252907   35880                                                      255157    0.03    0.00  1.0000
   5  -4   0  486063   59721                                                      480341    0.06    0.00  1.0000
   5  -4   0  474423   45775                                                      468770    0.06    0.00  1.0000
   5  -4   1 1672329   94876                                                     1664985   -0.04    0.00  1.0000
   5  -4   1 1757803   79303                                                     1750274   -0.04    0.00  1.0000
   5  -4   2  750253   63652                                                      770527   -0.16    0.00  1.0000
   5  -4   2  856411   54994                                                      878062   -0.16    0.00  1.0000
   5  -4   3   18488   15770                                                       22689   -0.20    0.00  1.0000
   5  -4   3   21707   10800                                                       26241   -0.20    0.00  1.0000
   5  -3 -10 1052841   54902                                                     1012951    0.27    0.00  1.0000
   5  -3  -9 1357213   81242                                                     1439177    0.48    0.00  1.0000
   5  -3  -8  271470   44180                                                      221164    0.70    0.00  1.0000
   5  -3  -7     240   19980                                                        2535    0.80    0.00  1.0000
   5  -3  -7    2216   21603                                                       10191    0.80    0.00  1.0000
   5  -3  -7    1332   36335                                                        8041    0.80    0.00  1.0000
   5  -3  -6   20396   38429                                                       38872    0.75    0.00  1.0000
   5  -3  -6   21957   29032                                                       41017    0.75    0.00  1.0000
   5  -3  -6     856   32658                                                        6945    0.75    0.00  1.0000
   5  -3  -6   35821   30444                                                       59354    0.75    0.00  1.0000
   5  -3  -5 2140505   90109                                                     2000932    0.67    0.00  1.0000
   5  -3  -5 2005457  119967                                                     1870433    0.67    0.00  1.0000
   5  -3  -5 2138405  116986                                                     1998902    0.67    0.00  1.0000
   5  -3  -5 1795799  117939                                                     1668155    0.67    0.00  1.0000
   5  -3  -4 1988970  132875                                                     2118711    0.62    0.00  1.0000
   5  -3  -4 2060930  104228                                                     2192960    0.62    0.00  1.0000
   5  -3  -4 2143530  124303                                                     2278139    0.62    0.00  1.0000
   5  -3  -3 1972937  125211                                                     1857113    0.58    0.00  1.0000
   5  -3  -3 1935837  105812                                                     1821124    0.58    0.00  1.0000
   5  -3  -3 2045859  114584                                                     1927883    0.58    0.00  1.0000
   5  -3  -2 1579163   87975                                                     1661875    0.45    0.00  1.0000
   5  -3  -2 1584135  119012                                                     1666975    0.45    0.00  1.0000
   5  -3  -2 1453588  103060                                                     1532986    0.45    0.00  1.0000
   5  -3  -1  127658   54660                                                      115474    0.24    0.00  1.0000
   5  -3  -1  126901   41246                                                      114754    0.24    0.00  1.0000
   5  -3  -1   88324   25095                                                       78241    0.24    0.00  1.0000
   5  -3   0   30788   35417                                                       32104    0.05    0.00  1.0000
   5  -3   0      15   23699                                                       -9565    0.05    0.00  1.0000
   5  -3   0      15    5792                                                        -831    0.05    0.00  1.0000
   5  -3   1  244971   51058                                                      243115   -0.03    0.00  1.0000
   5  -3   1  167178   48859                                                      165645   -0.03    0.00  1.0000
   5  -3   1  274595   45880                                                      272630   -0.03    0.00  1.0000
   5  -3   2  374187   55461                                                      373915    0.00    0.00  1.0000
   5  -3   2  317303   44296                                                      317052    0.00    0.00  1.0000
   5  -3   3   48041   31801                                                       50071    0.06    0.00  1.0000
   5  -3   3  119791   30190                                                      122985    0.06    0.00  1.0000
   5  -3   4  797539   57895                                                      787403    0.08    0.00  1.0000
   5  -3   5  122523   22450                                                      123999    0.03    0.00  1.0000
   5  -2  -9  758604   61848                                                      707522   -0.41    0.00  1.0000
   5  -2  -8  748419   72105                                                      837966   -0.69    0.00  1.0000
   5  -2  -7  713875   52092                                                      602641   -0.95    0.00  1.0000
   5  -2  -7  825275   74913                                                      705324   -0.95    0.00  1.0000
   5  -2  -7  821791   88075                                                      702104   -0.95    0.00  1.0000
   5  -2  -6 1171354   70539                                                     1338708   -1.03    0.00  1.0000
   5  -2  -6 1238033  102763                                                     1409927   -1.03    0.00  1.0000
   5  -2  -6 1073202  106018                                                     1233629   -1.03    0.00  1.0000
   5  -2  -6 1405085  106043                                                     1587846   -1.03    0.00  1.0000
   5  -2  -5     550   25617                                                        2062   -0.94    0.00  1.0000
   5  -2  -5    4548   32721                                                       18211   -0.94    0.00  1.0000
   5  -2  -5    4099   19675                                                       17296   -0.94    0.00  1.0000
   5  -2  -4  109875   39668                                                       75614   -0.78    0.00  1.0000
   5  -2  -4    3252   57426                                                      -16374   -0.78    0.00  1.0000
   5  -2  -4    3252   40224                                                      -14986   -0.78    0.00  1.0000
   5  -2  -3    2336   21442                                                       -7220   -0.66    0.00  1.0000
   5  -2  -3   41889   34398                                                       31706   -0.66    0.00  1.0000
   5  -2  -3    2336   32307                                                       -6789   -0.66    0.00  1.0000
   5  -2  -2  343851   45265                                                      295774   -0.59    0.00  1.0000
   5  -2  -2  390073   61889                                                      338750   -0.59    0.00  1.0000
   5  -2  -2  397230   50337                                                      345422   -0.59    0.00  1.0000
   5  -2  -1 1610375  102368                                                     1704345   -0.50    0.00  1.0000
   5  -2  -1 1527773   96303                                                     1619335   -0.50    0.00  1.0000
   5  -2  -1 1734929  121175                                                     1832414   -0.50    0.00  1.0000
   5  -2   0 2995206  139187                                                     2904414   -0.36    0.00  1.0000
   5  -2   0 2894323  125828                                                     2805085   -0.36    0.00  1.0000
   5  -2   0 3267350  155979                                                     3172491   -0.36    0.00  1.0000
   5  -2   1  152414   47165                                                      162842   -0.18    0.00  1.0000
   5  -2   1  168878   53165                                                      179845   -0.18    0.00  1.0000
   5  -2   1  129636   31467                                                      139266   -0.18    0.00  1.0000
   5  -2   2 2125352  124856                                                     2129001   -0.02    0.00  1.0000
   5  -2   2 2346195  121422                                                     2350029   -0.02    0.00  1.0000
   5  -2   2 2437691  132913                                                     2441598   -0.02    0.00  1.0000
   5  -2   3 2914637  134852                                                     2929724    0.06    0.00  1.0000
   5  -2   3 3130637  138327                                                     3146272    0.06    0.00  1.0000
   5  -2   4 3817396  144692                                                     3803386    0.05    0.00  1.0000
   5  -2   5 1474305   85446                                                     1477607    0.02    0.00  1.0000
   5  -2   6  252784   32497                                                      249946    0.04    0.00  1.0000
   5  -2   7   22688   13746                                                       24968    0.10    0.00  1.0000
   5  -1  -9   10051   33310                                                       15649    0.34    0.00  1.0000
   5  -1  -8  356731   54126                                                      310374    0.55    0.00  1.0000
   5  -1  -7 1037594   69433                                                     1163860    0.83    0.00  1.0000
   5  -1  -7 1003949   93152                                                     1128210    0.83    0.00  1.0000
   5  -1  -7  943489  106476                                                     1064060    0.83    0.00  1.0000
   5  -1  -6 3803810  116065                                                     3515848    1.04    0.00  1.0000
   5  -1  -6 3857640  154717                                                     3567608    1.04    0.00  1.0000
   5  -1  -6 3593791  176557                                                     3314050    1.04    0.00  1.0000
   5  -1  -5 1823501  114249                                                     2038392    1.06    0.00  1.0000
   5  -1  -5 1991393   99578                                                     2215690    1.06    0.00  1.0000
   5  -1  -5 1827085  115163                                                     2042182    1.06    0.00  1.0000
   5  -1  -5 1741805  133085                                                     1951963    1.06    0.00  1.0000
   5  -1  -4  862414   74703                                                      742982    0.92    0.00  1.0000
   5  -1  -4  789403   68589                                                      675331    0.92    0.00  1.0000
   5  -1  -4  720848   78546                                                      612038    0.92    0.00  1.0000
   5  -1  -4  858213   74926                                                      739083    0.92    0.00  1.0000
   5  -1  -3  189108   43234                                                      236095    0.70    0.00  1.0000
   5  -1  -3  127027   61769                                                      166006    0.70    0.00  1.0000
   5  -1  -3  209707   59373                                                      259049    0.70    0.00  1.0000
   5  -1  -3  247997   51829                                                      301427    0.70    0.00  1.0000
   5  -1  -2  386675   69019                                                      437351    0.54    0.00  1.0000
   5  -1  -2  324567   46236                                                      371126    0.54    0.00  1.0000
   5  -1  -2  415652   58874                                                      468135    0.54    0.00  1.0000
   5  -1  -2  393049   59146                                                      444128    0.54    0.00  1.0000
   5  -1  -1 1302558   79708                                                     1220779    0.50    0.00  1.0000
   5  -1  -1 1577795  109334                                                     1487657    0.50    0.00  1.0000
   5  -1  -1 1528918   86780                                                     1440207    0.50    0.00  1.0000
   5  -1  -1 1475367   84448                                                     1388247    0.50    0.00  1.0000
   5  -1   0 3944254  148090                                                     4095553    0.52    0.00  1.0000
   5  -1   0 4279776  155161                                                     4437320    0.52    0.00  1.0000
   5  -1   0 4557508  186357                                                     4720037    0.52    0.00  1.0000
   5  -1   0 4479121  147539                                                     4640258    0.52    0.00  1.0000
   5  -1   1 4403559  157229                                                     4259292    0.48    0.00  1.0000
   5  -1   1 4545310  174733                                                     4398720    0.48    0.00  1.0000
   5  -1   2 2129639  119918                                                     2198200    0.32    0.00  1.0000
   5  -1   2 2420943  131523                                                     2494008    0.32    0.00  1.0000
   5  -1   3 3228248  142501                                                     3192701    0.14    0.00  1.0000
   5  -1   3 3462868  150297                                                     3426049    0.14    0.00  1.0000
   5  -1   4  213103   42315                                                      216877    0.06    0.00  1.0000
   5  -1   4  143739   48033                                                      146842    0.06    0.00  1.0000
   5  -1   5  673186   73451                                                      684444    0.09    0.00  1.0000
   5  -1   6 1009236   73914                                                      990983    0.13    0.00  1.0000
   5  -1   7  498413   48207                                                      502852    0.04    0.00  1.0000
   5  -1   8   55673   11609                                                       55064   -0.11    0.00  1.0000
   5   0  -8  685299   71193                                                      617588   -0.58    0.00  1.0000
   5   0  -7  545655   56752                                                      629570   -0.75    0.00  1.0000
   5   0  -7  485333   65636                                                      564645   -0.75    0.00  1.0000
   5   0  -7  430174   57567                                                      505018   -0.75    0.00  1.0000
   5   0  -6  190325   44899                                                      254231   -0.93    0.00  1.0000
   5   0  -6  230201   55204                                                      300023   -0.93    0.00  1.0000
   5   0  -6  133761   65570                                                      188081   -0.93    0.00  1.0000
   5   0  -5  341958   42599                                                      257296   -1.07    0.00  1.0000
   5   0  -5  328950   68547                                                      246028   -1.07    0.00  1.0000
   5   0  -4  612050   71491                                                      741693   -1.09    0.00  1.0000
   5   0  -4  368167   60996                                                      470102   -1.09    0.00  1.0000
   5   0  -4  512483   76364                                                      631638   -1.09    0.00  1.0000
   5   0  -4  462401   63341                                                      575894   -1.09    0.00  1.0000
   5   0  -3 1796407   95198                                                     1614835   -0.96    0.00  1.0000
   5   0  -3 2013024  115725                                                     1820534   -0.96    0.00  1.0000
   5   0  -3 1992506  114620                                                     1801024   -0.96    0.00  1.0000
   5   0  -3 1971825   97954                                                     1781364   -0.96    0.00  1.0000
   5   0  -2 3262537  152052                                                     3456159   -0.73    0.00  1.0000
   5   0  -2 3315514  128080                                                     3510679   -0.73    0.00  1.0000
   5   0  -2 3307020  144739                                                     3501938   -0.73    0.00  1.0000
   5   0  -1 3472328  145343                                                     3330110   -0.53    0.00  1.0000
   5   0  -1 3523258  124126                                                     3379990   -0.53    0.00  1.0000
   5   0  -1 3465834  130720                                                     3323750   -0.53    0.00  1.0000
   5   0   0    7332   12183                                                       14275   -0.47    0.00  1.0000
   5   0   0    1886   25868                                                        5967   -0.47    0.00  1.0000
   5   0   0    1156   14018                                                       -5774   -0.47    0.00  1.0000
   5   0   0    1156   33269                                                      -25557   -0.47    0.00  1.0000
   5   0   1 3427749   91718                                                     3561408   -0.49    0.00  1.0000
   5   0   1 3412043  135623                                                     3545398   -0.49    0.00  1.0000
   5   0   1 3377621  149099                                                     3510308   -0.49    0.00  1.0000
   5   0   1 3496173  132201                                                     3631147   -0.49    0.00  1.0000
   5   0   2 3064940   89252                                                     2948233   -0.46    0.00  1.0000
   5   0   2 2723985  124669                                                     2614026   -0.46    0.00  1.0000
   5   0   2 3170226  140070                                                     3051512   -0.46    0.00  1.0000
   5   0   2 2990745  119380                                                     2875474   -0.46    0.00  1.0000
   5   0   3 4521314  172798                                                     4624318   -0.33    0.00  1.0000
   5   0   3 4974223  179172                                                     5082234   -0.33    0.00  1.0000
   5   0   3 4559759  152757                                                     4663198   -0.33    0.00  1.0000
   5   0   4 1173750   96286                                                     1141120   -0.21    0.00  1.0000
   5   0   4 1134902   90146                                                     1102820   -0.21    0.00  1.0000
   5   0   4 1277004   82442                                                     1242959   -0.21    0.00  1.0000
   5   0   5    8715   36551                                                       11810   -0.21    0.00  1.0000
   5   0   5     242   23773                                                      -27763   -0.21    0.00  1.0000
   5   0   6   99678   40262                                                      113449   -0.29    0.00  1.0000
   5   0   7  635184   58006                                                      605072   -0.26    0.00  1.0000
   5   0   8  413914   45421                                                      420562   -0.07    0.00  1.0000
   5   1  -7 1316404  109374                                                     1214359    0.62    0.00  1.0000
   5   1  -7 1335642   99692                                                     1232839    0.62    0.00  1.0000
   5   1  -7 1026348   79283                                                      936484    0.62    0.00  1.0000
   5   1  -6  391974   53749                                                      456335    0.68    0.00  1.0000
   5   1  -6  369337   59914                                                      431883    0.68    0.00  1.0000
   5   1  -6  293566   54920                                                      349592    0.68    0.00  1.0000
   5   1  -6  374628   78806                                                      437603    0.68    0.00  1.0000
   5   1  -5  378513   45276                                                      313550    0.76    0.00  1.0000
   5   1  -5  417571   59855                                                      349186    0.76    0.00  1.0000
   5   1  -5  308222   57462                                                      249899    0.76    0.00  1.0000
   5   1  -5  330396   47194                                                      269904    0.76    0.00  1.0000
   5   1  -4  214354   42969                                                      278271    0.89    0.00  1.0000
   5   1  -4  224316   59148                                                      289606    0.89    0.00  1.0000
   5   1  -4  277029   49100                                                      349123    0.89    0.00  1.0000
   5   1  -4  305367   58307                                                      380851    0.89    0.00  1.0000
   5   1  -3 1043080   81894                                                     1194599    0.99    0.00  1.0000
   5   1  -3 1032738   90896                                                     1183529    0.99    0.00  1.0000
   5   1  -3  960859   87158                                                     1106490    0.99    0.00  1.0000
   5   1  -3 1002123   76721                                                     1150740    0.99    0.00  1.0000
   5   1  -2 6078277  182252                                                     5743428    0.95    0.00  1.0000
   5   1  -2 5800519  176161                                                     5473521    0.95    0.00  1.0000
   5   1  -110940678  245084                                                    11313298    0.77    0.00  1.0000
   5   1  -111374225  176083                                                    11754094    0.77    0.00  1.0000
   5   1  -111144157  245428                                                    11520196    0.77    0.00  1.0000
   5   1   0 5406465  116816                                                     5211363    0.58    0.00  1.0000
   5   1   0 5538596  169377                                                     5341102    0.58    0.00  1.0000
   5   1   0 5530480  155837                                                     5333132    0.58    0.00  1.0000
   5   1   1  306538   33133                                                      348524    0.51    0.00  1.0000
   5   1   1  265455   47757                                                      304619    0.51    0.00  1.0000
   5   1   1  255048   42537                                                      293463    0.51    0.00  1.0000
   5   1   2   59807   31158                                                       43551    0.49    0.00  1.0000
   5   1   2   74353   18096                                                       56079    0.49    0.00  1.0000
   5   1   2   47470   30075                                                       33127    0.49    0.00  1.0000
   5   1   2  124001   23637                                                      100027    0.49    0.00  1.0000
   5   1   2   66271   23334                                                       49091    0.49    0.00  1.0000
   5   1   3 2282366   80983                                                     2190980    0.42    0.00  1.0000
   5   1   3 2296164  115020                                                     2204500    0.42    0.00  1.0000
   5   1   3 2378601  112560                                                     2285289    0.42    0.00  1.0000
   5   1   4 4488784  124533                                                     4575629    0.28    0.00  1.0000
   5   1   4 4327266  166757                                                     4412540    0.28    0.00  1.0000
   5   1   4 4492668  163764                                                     4579549    0.28    0.00  1.0000
   5   1   4 4031826  153156                                                     4114153    0.28    0.00  1.0000
   5   1   5 1667008  119928                                                     1628055    0.21    0.00  1.0000
   5   1   5 1835216  106653                                                     1794334    0.21    0.00  1.0000
   5   1   5 1830907  105297                                                     1790074    0.21    0.00  1.0000
   5   1   6  252338   71575                                                      272695    0.27    0.00  1.0000
   5   1   6  272163   53359                                                      293288    0.27    0.00  1.0000
   5   1   6  199238   48263                                                      217369    0.27    0.00  1.0000
   5   1   7   61706   43835                                                       74842    0.35    0.00  1.0000
   5   1   7   74114   36550                                                       88451    0.35    0.00  1.0000
   5   1   8   48933   37544                                                       57288    0.25    0.00  1.0000
   5   1   9       0   17826                                                      -14982    0.01    0.00  1.0000
   5   2  -6  876700   93214                                                      837121   -0.29    0.00  1.0000
   5   2  -6  630383   66746                                                      596891   -0.29    0.00  1.0000
   5   2  -5  949975   68388                                                      989268   -0.27    0.00  1.0000
   5   2  -5 1012086   94928                                                     1052631   -0.27    0.00  1.0000
   5   2  -5 1032886   93693                                                     1073840   -0.27    0.00  1.0000
   5   2  -5  852742   80745                                                      889990   -0.27    0.00  1.0000
   5   2  -4 1895825   84724                                                     1827714   -0.34    0.00  1.0000
   5   2  -4 1974628  122379                                                     1905103   -0.34    0.00  1.0000
   5   2  -4 1796297  102554                                                     1730015   -0.34    0.00  1.0000
   5   2  -3 1280085   90665                                                     1369828   -0.54    0.00  1.0000
   5   2  -3 1142802   84918                                                     1227679   -0.54    0.00  1.0000
   5   2  -2  625166   56795                                                      542640   -0.74    0.00  1.0000
   5   2  -2  747483   68146                                                      656971   -0.74    0.00  1.0000
   5   2  -1  650614   53135                                                      558277   -0.82    0.00  1.0000
   5   2  -1  562390   55290                                                      476789   -0.82    0.00  1.0000
   5   2   0 6503462  174966                                                     6785699   -0.75    0.00  1.0000
   5   2   0 6253658  173588                                                     6530481   -0.75    0.00  1.0000
   5   2   1 6027732  136643                                                     5790018   -0.67    0.00  1.0000
   5   2   1 6274403  161775                                                     6031826   -0.67    0.00  1.0000
   5   2   1 5999121  154252                                                     5761978   -0.67    0.00  1.0000
   5   2   2 9071453  173016                                                     9360575   -0.65    0.00  1.0000
   5   2   2 9044480  205566                                                     9333175   -0.65    0.00  1.0000
   5   2   2 8808916  180367                                                     9093858   -0.65    0.00  1.0000
   5   2   3 1200470   61272                                                     1102710   -0.63    0.00  1.0000
   5   2   3 1284692   78627                                                     1183489   -0.63    0.00  1.0000
   5   2   3 1310587   89783                                                     1208349   -0.63    0.00  1.0000
   5   2   3 1182375   58766                                                     1085370   -0.63    0.00  1.0000
   5   2   4  448801   40151                                                      401613   -0.50    0.00  1.0000
   5   2   4  434651   46299                                                      388233   -0.50    0.00  1.0000
   5   2   4  363407   48061                                                      321076   -0.50    0.00  1.0000
   5   2   4  476766   54704                                                      428090   -0.50    0.00  1.0000
   5   2   4  371422   49931                                                      328613   -0.50    0.00  1.0000
   5   2   5 2107449   88564                                                     2177990   -0.33    0.00  1.0000
   5   2   5 2038671  122319                                                     2108061   -0.33    0.00  1.0000
   5   2   5 1948805  114637                                                     2016662   -0.33    0.00  1.0000
   5   2   5 1980264  110222                                                     2048662   -0.33    0.00  1.0000
   5   2   5 1942180  116301                                                     2009922   -0.33    0.00  1.0000
   5   2   6 3149115  154957                                                     3076932   -0.28    0.00  1.0000
   5   2   6 3008780  145435                                                     2938234   -0.28    0.00  1.0000
   5   2   6 2935178  137311                                                     2865504   -0.28    0.00  1.0000
   5   2   6 3240257  135071                                                     3167031   -0.28    0.00  1.0000
   5   2   7 1526049  121183                                                     1591266   -0.36    0.00  1.0000
   5   2   7 1452396  113801                                                     1516036   -0.36    0.00  1.0000
   5   2   7 1563707  102167                                                     1629715   -0.36    0.00  1.0000
   5   2   8 1270759   95284                                                     1208529   -0.38    0.00  1.0000
   5   2   8 1342369   82700                                                     1278388   -0.38    0.00  1.0000
   5   2   9  335806   48859                                                      354164   -0.22    0.00  1.0000
   5   2   9  306493   39066                                                      324042   -0.22    0.00  1.0000
   5   3  -6   44443   38413                                                       43163    0.04    0.00  1.0000
   5   3  -5       2   29131                                                       -7210    0.02    0.00  1.0000
   5   3  -5   32756   28330                                                       33264    0.02    0.00  1.0000
   5   3  -4 1649515   82517                                                     1651905    0.01    0.00  1.0000
   5   3  -4 1543374   94038                                                     1545686    0.01    0.00  1.0000
   5   3  -3 5430332  130262                                                     5386261    0.13    0.00  1.0000
   5   3  -3 5694149  184568                                                     5649019    0.13    0.00  1.0000
   5   3  -3 5483639  171787                                                     5439351    0.13    0.00  1.0000
   5   3  -2 8580583  203714                                                     8743411    0.38    0.00  1.0000
   5   3  -2 8619347  212957                                                     8782540    0.38    0.00  1.0000
   5   3  -1 2548069  111528                                                     2403978    0.63    0.00  1.0000
   5   3   0  200356   38319                                                      154523    0.75    0.00  1.0000
   5   3   1  367284   52044                                                      436667    0.75    0.00  1.0000
   5   3   2 6098077  144076                                                     5832257    0.75    0.00  1.0000
   5   3   2 6160938  149507                                                     5893737    0.75    0.00  1.0000
   5   3   3 5806927  151610                                                     6076895    0.76    0.00  1.0000
   5   3   3 5744975  151794                                                     6013516    0.76    0.00  1.0000
   5   3   3 5839098  142343                                                     6109805    0.76    0.00  1.0000
   5   3   4 1393435   67814                                                     1273679    0.71    0.00  1.0000
   5   3   4 1411799   76856                                                     1291238    0.71    0.00  1.0000
   5   3   4 1370922   88603                                                     1252159    0.71    0.00  1.0000
   5   3   4 1462722   61452                                                     1339958    0.71    0.00  1.0000
   5   3   5   22390   16548                                                       36119    0.57    0.00  1.0000
   5   3   5   22793   30332                                                       36631    0.57    0.00  1.0000
   5   3   5   43325   28479                                                       61815    0.57    0.00  1.0000
   5   3   5   46684   29809                                                       65818    0.57    0.00  1.0000
   5   3   6  295794   41464                                                      331035    0.43    0.00  1.0000
   5   3   6  330133   54957                                                      367308    0.43    0.00  1.0000
   5   3   6  261647   56008                                                      294850    0.43    0.00  1.0000
   5   3   6  287944   61646                                                      322728    0.43    0.00  1.0000
   5   3   7   50003   40035                                                       39253    0.42    0.00  1.0000
   5   3   7   61706   22678                                                       49723    0.42    0.00  1.0000
   5   3   7   24141   38161                                                       16790    0.42    0.00  1.0000
   5   3   8  184291   47426                                                      214361    0.47    0.00  1.0000
   5   3   8  240027   52007                                                      274187    0.47    0.00  1.0000
   5   3   8  198991   47826                                                      230194    0.47    0.00  1.0000
   5   3   9  628054   59965                                                      583489    0.39    0.00  1.0000
   5   3  10  849938   56119                                                      869350    0.14    0.00  1.0000
   5   4  -5 1096759   94056                                                     1080530   -0.11    0.00  1.0000
   5   4  -4   23372   34292                                                       24634   -0.06    0.00  1.0000
   5   4  -4   65454   22772                                                       67555   -0.06    0.00  1.0000
   5   4  -3  669074   55339                                                      675186   -0.05    0.00  1.0000
   5   4  -3  806706   81419                                                      813417   -0.05    0.00  1.0000
   5   4  -3  767560   63415                                                      774106   -0.05    0.00  1.0000
   5   4  -2 4588198  165071                                                     4529299   -0.19    0.00  1.0000
   5   4  -2 4224329  106494                                                     4167823   -0.19    0.00  1.0000
   5   4  -2 4270086  144676                                                     4213272   -0.19    0.00  1.0000
   5   4  -1 6221428  179600                                                     6378052   -0.43    0.00  1.0000
   5   4  -1 6101438  173255                                                     6256554   -0.43    0.00  1.0000
   5   4   0 1964908   92865                                                     1839853   -0.62    0.00  1.0000
   5   4   0 1829191   88126                                                     1708604   -0.62    0.00  1.0000
   5   4   1 1634788   85956                                                     1764654   -0.69    0.00  1.0000
   5   4   1 1745658   90227                                                     1879773   -0.69    0.00  1.0000
   5   4   2  704047   55252                                                      787199   -0.66    0.00  1.0000
   5   4   2  662393   57876                                                      743117   -0.66    0.00  1.0000
   5   4   3 3832130  114245                                                     3649087   -0.65    0.00  1.0000
   5   4   4 3858112  131051                                                     4048963   -0.66    0.00  1.0000
   5   4   4 3737270  115076                                                     3925145   -0.66    0.00  1.0000
   5   4   4 3864009  158863                                                     4055003   -0.66    0.00  1.0000
   5   4   4 4108293  117555                                                     4305161   -0.66    0.00  1.0000
   5   4   5 3431160  112078                                                     3264401   -0.63    0.00  1.0000
   5   4   5 3417934  152783                                                     3251501   -0.63    0.00  1.0000
   5   4   6 1810978   85034                                                     1918173   -0.54    0.00  1.0000
   5   4   6 1831355  110250                                                     1939142   -0.54    0.00  1.0000
   5   4   6 1874043  136238                                                     1983062   -0.54    0.00  1.0000
   5   4   7 2508631   94668                                                     2400668   -0.47    0.00  1.0000
   5   4   7 2102581  115205                                                     2003842   -0.47    0.00  1.0000
   5   4   7 2161665  140304                                                     2061531   -0.47    0.00  1.0000
   5   4   8  372634   59537                                                      415052   -0.46    0.00  1.0000
   5   4   8  531861   81231                                                      582316   -0.46    0.00  1.0000
   5   4   9   39577   37901                                                       52871   -0.43    0.00  1.0000
   5   4  10  348118   45783                                                      326165   -0.26    0.00  1.0000
   5   4  11  386825   36866                                                      387692   -0.01    0.00  1.0000
   5   5  -6  159545   25284                                                      143016    0.29    0.00  1.0000
   5   5  -5 1243270   77216                                                     1297608    0.33    0.00  1.0000
   5   5  -4 2997526  143606                                                     2933574    0.26    0.00  1.0000
   5   5  -3 4194312  171810                                                     4238282    0.15    0.00  1.0000
   5   5  -2  717027   78092                                                      700630    0.13    0.00  1.0000
   5   5  -2  794980   54252                                                      777710    0.13    0.00  1.0000
   5   5  -2  632024   53271                                                      616635    0.13    0.00  1.0000
   5   5  -1 1039086   86589                                                     1001691    0.25    0.00  1.0000
   5   5  -1  950427   70109                                                      914678    0.25    0.00  1.0000
   5   5  -1 1055788   58726                                                     1018091    0.25    0.00  1.0000
   5   5  -1  994597   67865                                                      958018    0.25    0.00  1.0000
   5   5   0 2256366  118762                                                     2348039    0.42    0.00  1.0000
   5   5   0 2261915  107432                                                     2353699    0.42    0.00  1.0000
   5   5   0 2138794   82679                                                     2228070    0.42    0.00  1.0000
   5   5   0 2238693  100636                                                     2330009    0.42    0.00  1.0000
   5   5   110419433  229635                                                    10188208    0.50    0.00  1.0000
   5   5   110654942  217378                                                    10421106    0.50    0.00  1.0000
   5   5   110286951  197975                                                    10057209    0.50    0.00  1.0000
   5   5   2 7287453  187599                                                     7475443    0.48    0.00  1.0000
   5   5   2 7284729  176839                                                     7472683    0.48    0.00  1.0000
   5   5   2 6974017  163195                                                     7157945    0.48    0.00  1.0000
   5   5   3 1188034   72073                                                     1118750    0.44    0.00  1.0000
   5   5   3 1276566   72416                                                     1204709    0.44    0.00  1.0000
   5   5   3 1080063   65500                                                     1014051    0.44    0.00  1.0000
   5   5   3 1071869   76463                                                     1006111    0.44    0.00  1.0000
   5   5   3 1202913   64562                                                     1133190    0.44    0.00  1.0000
   5   5   4  100426   35361                                                       79955    0.47    0.00  1.0000
   5   5   4   87825   30145                                                       68756    0.47    0.00  1.0000
   5   5   4   61494   40573                                                       45727    0.47    0.00  1.0000
   5   5   4  135211   40840                                                      111271    0.47    0.00  1.0000
   5   5   5 1042995   71990                                                     1122500    0.53    0.00  1.0000
   5   5   5 1146755   81687                                                     1230049    0.53    0.00  1.0000
   5   5   5 1201851   69178                                                     1287088    0.53    0.00  1.0000
   5   5   5 1066366   84835                                                     1146740    0.53    0.00  1.0000
   5   5   6  346921   39773                                                      302452    0.54    0.00  1.0000
   5   5   6  381794   42372                                                      335070    0.54    0.00  1.0000
   5   5   6  328531   59413                                                      285297    0.54    0.00  1.0000
   5   5   7  627252   52571                                                      685819    0.50    0.00  1.0000
   5   5   7  647975   99746                                                      707480    0.50    0.00  1.0000
   5   5   8  675003   46329                                                      623577    0.44    0.00  1.0000
   5   5   8  668421   64126                                                      617251    0.44    0.00  1.0000
   5   5   8  696287   93875                                                      644041    0.44    0.00  1.0000
   5   5   9  680760   93900                                                      726629    0.38    0.00  1.0000
   5   5  10  239160   45648                                                      220342    0.27    0.00  1.0000
   5   5  11   17698   16158                                                       19942    0.11    0.00  1.0000
   5   6  -6  850305   51339                                                      797455   -0.40    0.00  1.0000
   5   6  -4  649877   52841                                                      699565   -0.42    0.00  1.0000
   5   6  -3 1466283  104415                                                     1411467   -0.31    0.00  1.0000
   5   6  -3 1483527   84441                                                     1428387   -0.31    0.00  1.0000
   5   6  -2  950330   91014                                                      985438   -0.25    0.00  1.0000
   5   6  -2  902523   72412                                                      936746   -0.25    0.00  1.0000
   5   6  -1   86401   27839                                                       75288   -0.27    0.00  1.0000
   5   6  -1   81186   26810                                                       70426   -0.27    0.00  1.0000
   5   6  -1   51410   12364                                                       42922   -0.27    0.00  1.0000
   5   6   0  372169   58832                                                      405085   -0.36    0.00  1.0000
   5   6   0  314941   57115                                                      345277   -0.36    0.00  1.0000
   5   6   0  326512   48737                                                      357388   -0.36    0.00  1.0000
   5   6   0  350969   40601                                                      382955   -0.36    0.00  1.0000
   5   6   1 1343583   99462                                                     1414087   -0.41    0.00  1.0000
   5   6   1 1360223   86799                                                     1431157   -0.41    0.00  1.0000
   5   6   1 1429452   76137                                                     1502146   -0.41    0.00  1.0000
   5   6   1 1354705   73726                                                     1425497   -0.41    0.00  1.0000
   5   6   1 1371045   87341                                                     1442257   -0.41    0.00  1.0000
   5   6   2 3362333  137700                                                     3261301   -0.38    0.00  1.0000
   5   6   2 3230448  120885                                                     3131432   -0.38    0.00  1.0000
   5   6   2 3372588  105974                                                     3271400   -0.38    0.00  1.0000
   5   6   2 3152518  103229                                                     3054712   -0.38    0.00  1.0000
   5   6   3 2083826  112128                                                     2154071   -0.33    0.00  1.0000
   5   6   3 2305817  103867                                                     2379679   -0.33    0.00  1.0000
   5   6   3 2347448   92821                                                     2421968   -0.33    0.00  1.0000
   5   6   3 2329639   91714                                                     2403878   -0.33    0.00  1.0000
   5   6   4 1099370   76830                                                     1047011   -0.35    0.00  1.0000
   5   6   4 1299162   74208                                                     1242189   -0.35    0.00  1.0000
   5   6   4 1156540   72193                                                     1102820   -0.35    0.00  1.0000
   5   6   4  954751   74356                                                      906001   -0.35    0.00  1.0000
   5   6   5  451731   53771                                                      494769   -0.43    0.00  1.0000
   5   6   5  451703   58621                                                      494740   -0.43    0.00  1.0000
   5   6   5  494869   51962                                                      539869   -0.43    0.00  1.0000
   5   6   5  576141   63025                                                      624619   -0.43    0.00  1.0000
   5   6   5  389320   59224                                                      429344   -0.43    0.00  1.0000
   5   6   6 1055534   62762                                                      982083   -0.50    0.00  1.0000
   5   6   6 1116894   76102                                                     1041301   -0.50    0.00  1.0000
   5   6   6 1207585   65076                                                     1128930   -0.50    0.00  1.0000
   5   6   6 1046708   85179                                                      973570   -0.50    0.00  1.0000
   5   6   7   45954   22887                                                       62326   -0.49    0.00  1.0000
   5   6   7   40921   26355                                                       56440   -0.49    0.00  1.0000
   5   6   7   34051   36939                                                       48317   -0.49    0.00  1.0000
   5   6   8  840622   63098                                                      894669   -0.40    0.00  1.0000
   5   6   8  973483  102857                                                     1031581   -0.40    0.00  1.0000
   5   6   9 2444038  138841                                                     2377719   -0.29    0.00  1.0000
   5   6  10 1775694  108772                                                     1814853   -0.20    0.00  1.0000
   5   6  11 1537777   76812                                                     1515996   -0.12    0.00  1.0000
   5   7  -5  472954   40573                                                      436899    0.37    0.00  1.0000
   5   7  -4  205482   42787                                                      231686    0.39    0.00  1.0000
   5   7  -3  225951   33695                                                      252135    0.37    0.00  1.0000
   5   7  -3  350222   51259                                                      382645    0.37    0.00  1.0000
   5   7  -2 2204511  120601                                                     2129201    0.35    0.00  1.0000
   5   7  -2 2037855   90982                                                     1965472    0.35    0.00  1.0000
   5   7  -1 1418911  109487                                                     1486207    0.38    0.00  1.0000
   5   7  -1 1335868   82135                                                     1401187    0.38    0.00  1.0000
   5   7  -1 1418433   96388                                                     1485717    0.38    0.00  1.0000
   5   7   0 3045479  150439                                                     2927704    0.47    0.00  1.0000
   5   7   0 2920178  115783                                                     2804875    0.47    0.00  1.0000
   5   7   0 3126184  134711                                                     3006843    0.47    0.00  1.0000
   5   7   1  353285   62118                                                      401310    0.54    0.00  1.0000
   5   7   1  364421   54100                                                      413174    0.54    0.00  1.0000
   5   7   1  372027   55945                                                      421270    0.54    0.00  1.0000
   5   7   2   48194   41490                                                       66461    0.53    0.00  1.0000
   5   7   2   43568   26617                                                       61007    0.53    0.00  1.0000
   5   7   2   30463   21749                                                       45282    0.53    0.00  1.0000
   5   7   3  357701   46275                                                      319308    0.45    0.00  1.0000
   5   7   3  412836   47891                                                      371510    0.45    0.00  1.0000
   5   7   4 1242769   94295                                                     1308078    0.40    0.00  1.0000
   5   7   4 1521209   84728                                                     1593376    0.40    0.00  1.0000
   5   7   5 1073508   80605                                                     1012701    0.41    0.00  1.0000
   5   7   5 1232251   72855                                                     1167039    0.41    0.00  1.0000
   5   7   6 2137221   96749                                                     2233600    0.45    0.00  1.0000
   5   7   6 2311323  128658                                                     2411508    0.45    0.00  1.0000
   5   7   6 2569364  105134                                                     2674936    0.45    0.00  1.0000
   5   7   6 2299311  115438                                                     2399238    0.45    0.00  1.0000
   5   7   7 1514776   93718                                                     1438687    0.43    0.00  1.0000
   5   7   7 1545380   82116                                                     1468517    0.43    0.00  1.0000
   5   7   7 1413619   89433                                                     1340148    0.43    0.00  1.0000
   5   7   8  416156   48152                                                      447367    0.33    0.00  1.0000
   5   7   8  338427   55096                                                      366628    0.33    0.00  1.0000
   5   7   9   12126   20359                                                       15064    0.18    0.00  1.0000
   5   7   9   10315   34902                                                       13036    0.18    0.00  1.0000
   5   7  10  351724   34638                                                      346627    0.06    0.00  1.0000
   5   7  10  385770   46677                                                      380431    0.06    0.00  1.0000
   5   7  11 2754727   94130                                                     2753175   -0.01    0.00  1.0000
   5   8  -4  377337   35079                                                      357731   -0.22    0.00  1.0000
   5   8  -3  181401   34959                                                      197432   -0.25    0.00  1.0000
   5   8  -2     362   10839                                                      -19169   -0.26    0.00  1.0000
   5   8  -1     350   11583                                                       -5215   -0.26    0.00  1.0000
   5   8  -1    4514   23497                                                        2453   -0.26    0.00  1.0000
   5   8   0 3576339  162760                                                     3657287   -0.29    0.00  1.0000
   5   8   0 3303453  112785                                                     3381269   -0.29    0.00  1.0000
   5   8   0 3446159  146017                                                     3525628   -0.29    0.00  1.0000
   5   8   1 5443664  198665                                                     5312902   -0.39    0.00  1.0000
   5   8   1 5230758  144002                                                     5102594   -0.39    0.00  1.0000
   5   8   1 5266082  175457                                                     5137484   -0.39    0.00  1.0000
   5   8   2 2885838  151725                                                     3007243   -0.49    0.00  1.0000
   5   8   2 2844903  111662                                                     2965453   -0.49    0.00  1.0000
   5   8   2 2716096  133300                                                     2833914   -0.49    0.00  1.0000
   5   8   3  556598   64645                                                      502164   -0.52    0.00  1.0000
   5   8   3  515690   47990                                                      463347   -0.52    0.00  1.0000
   5   8   3  422572   56067                                                      375322   -0.52    0.00  1.0000
   5   8   4   13724   27119                                                       22520   -0.47    0.00  1.0000
   5   8   4    1175   18942                                                       -2983   -0.47    0.00  1.0000
   5   8   5  334460   42505                                                      300609   -0.41    0.00  1.0000
   5   8   5  324837   55608                                                      291490   -0.41    0.00  1.0000
   5   8   6   30091   19310                                                       26442   -0.39    0.00  1.0000
   5   8   6    2358   26173                                                        1012   -0.39    0.00  1.0000
   5   8   7  738461   76673                                                      784622   -0.36    0.00  1.0000
   5   8   7  780012   65306                                                      827435   -0.36    0.00  1.0000
   5   8   8 2094127   93013                                                     2031512   -0.30    0.00  1.0000
   5   8   9 1757321   83826                                                     1791444   -0.18    0.00  1.0000
   5   8   9 1682789   82161                                                     1716185   -0.18    0.00  1.0000
   5   8  10 1201202   63266                                                     1196259   -0.03    0.00  1.0000
   5   8  10 1288468   62642                                                     1283348   -0.03    0.00  1.0000
   5   9  -2  350572   39124                                                      365583    0.17    0.00  1.0000
   5   9  -1 1049244   67466                                                     1030201    0.13    0.00  1.0000
   5   9   0  266758   38065                                                      269282    0.03    0.00  1.0000
   5   9   1  147994   26563                                                      148355   -0.01    0.00  1.0000
   5   9   1  281587   40402                                                      282084   -0.01    0.00  1.0000
   5   9   2   53250   21002                                                       55596    0.07    0.00  1.0000
   5   9   2   54475   34843                                                       56847    0.07    0.00  1.0000
   5   9   3  181239   31494                                                      193904    0.20    0.00  1.0000
   5   9   3  156757   60795                                                      168550    0.20    0.00  1.0000
   5   9   3  202473   49651                                                      215848    0.20    0.00  1.0000
   5   9   4  628439   72003                                                      595757    0.29    0.00  1.0000
   5   9   4  565702   49715                                                      534716    0.29    0.00  1.0000
   5   9   5 1619061  115221                                                     1673335    0.29    0.00  1.0000
   5   9   5 1749011   85015                                                     1805404    0.29    0.00  1.0000
   5   9   6  216694   36342                                                      199170    0.26    0.00  1.0000
   5   9   7  113692   32867                                                      101081    0.26    0.00  1.0000
   5   9   8  959431   64184                                                      999725    0.28    0.00  1.0000
   5   9   9 1213548   65174                                                     1172799    0.26    0.00  1.0000
   5   9  10 2594593   85919                                                     2633926    0.17    0.00  1.0000
   5  10   0  510542   41462                                                      502685   -0.08    0.00  1.0000
   5  10   1    9706   19244                                                        9122    0.05    0.00  1.0000
   5  10   2  300867   40107                                                      291773    0.11    0.00  1.0000
   5  10   3  533459   37820                                                      540527    0.07    0.00  1.0000
   5  10   4   25327   16768                                                       26305   -0.04    0.00  1.0000
   5  10   5  488663   39348                                                      476296   -0.12    0.00  1.0000
   5  10   6 1807198   75131                                                     1836764   -0.15    0.00  1.0000
   5  10   7 2650078   89198                                                     2609526   -0.17    0.00  1.0000
   5  10   8 1025187   57372                                                     1057150   -0.22    0.00  1.0000
   5  10   9   79509   22291                                                       69648   -0.25    0.00  1.0000
   5  10  10 1103685   47821                                                     1070340   -0.22    0.00  1.0000
   5  11   6   83263   12073                                                       78403    0.12    0.00  1.0000
   5  11   7  448457   30235                                                      463952    0.16    0.00  1.0000
   5  11   8  819860   40511                                                      795650    0.19    0.00  1.0000
   6  -5  -5  224292   26808                                                      233982    0.14    0.00  1.0000
   6  -5  -4  692792   43121                                                      675208    0.15    0.00  1.0000
   6  -5  -3  583491   41503                                                      605198    0.19    0.00  1.0000
   6  -5  -2  419636   29736                                                      400059    0.21    0.00  1.0000
   6  -4  -6  343906   39571                                                      317703   -0.31    0.00  1.0000
   6  -4  -5  228741   38771                                                      251149   -0.31    0.00  1.0000
   6  -4  -4   74505   33069                                                       87355   -0.31    0.00  1.0000
   6  -4  -3  721757   57857                                                      677360   -0.37    0.00  1.0000
   6  -4  -2 2196032   74046                                                     2286279   -0.41    0.00  1.0000
   6  -4  -2 2273528   97233                                                     2365339   -0.41    0.00  1.0000
   6  -4  -1  710586   48013                                                      669986   -0.34    0.00  1.0000
   6  -4  -1  833709   54219                                                      789683   -0.34    0.00  1.0000
   6  -4   0  213658   36818                                                      222054   -0.12    0.00  1.0000
   6  -4   0  344700   35839                                                      355343   -0.12    0.00  1.0000
   6  -3  -7  208983   42246                                                      192478    0.25    0.00  1.0000
   6  -3  -6  959215   59867                                                      998854    0.28    0.00  1.0000
   6  -3  -6 1113502   79181                                                     1156180    0.28    0.00  1.0000
   6  -3  -5 2347278   81189                                                     2293839    0.24    0.00  1.0000
   6  -3  -5 2708806  119532                                                     2651376    0.24    0.00  1.0000
   6  -3  -4 1804870   82827                                                     1846143    0.21    0.00  1.0000
   6  -3  -4 1579262   96053                                                     1617885    0.21    0.00  1.0000
   6  -3  -3  661242   66747                                                      629484    0.27    0.00  1.0000
   6  -3  -3  647719   59763                                                      616291    0.27    0.00  1.0000
   6  -3  -2  210750   58618                                                      185541    0.39    0.00  1.0000
   6  -3  -2  344280   47099                                                      311836    0.39    0.00  1.0000
   6  -3  -1  524911   69349                                                      567386    0.40    0.00  1.0000
   6  -3  -1  649047   63609                                                      696186    0.40    0.00  1.0000
   6  -3   0  668918   53808                                                      646780    0.19    0.00  1.0000
   6  -3   0  581622   58555                                                      560991    0.19    0.00  1.0000
   6  -3   1  269508   37876                                                      261088   -0.11    0.00  1.0000
   6  -3   1  312701   38349                                                      303626   -0.11    0.00  1.0000
   6  -3   2   16945   21625                                                       22340   -0.27    0.00  1.0000
   6  -3   3  354801   32721                                                      338337   -0.19    0.00  1.0000
   6  -2  -8  593060   48600                                                      626209   -0.29    0.00  1.0000
   6  -2  -7   64479   46531                                                       55259   -0.27    0.00  1.0000
   6  -2  -7   41679   15216                                                       34332   -0.27    0.00  1.0000
   6  -2  -6   27182   30716                                                       21514   -0.25    0.00  1.0000
   6  -2  -6   22395   30057                                                       17281   -0.25    0.00  1.0000
   6  -2  -5 1365115   68546                                                     1399357   -0.20    0.00  1.0000
   6  -2  -5 1144745   86101                                                     1176119   -0.20    0.00  1.0000
   6  -2  -4 1634510  114469                                                     1609515   -0.14    0.00  1.0000
   6  -2  -4 2027842   94651                                                     1999992   -0.14    0.00  1.0000
   6  -2  -4 1758957  104867                                                     1733024   -0.14    0.00  1.0000
   6  -2  -3 2469921  117662                                                     2504237   -0.15    0.00  1.0000
   6  -2  -3 2468461  138299                                                     2502767   -0.15    0.00  1.0000
   6  -2  -3 2404726  120081                                                     2438588   -0.15    0.00  1.0000
   6  -2  -2  194450   52103                                                      177583   -0.27    0.00  1.0000
   6  -2  -2  197044   42224                                                      180063   -0.27    0.00  1.0000
   6  -2  -1   33490   29413                                                       43414   -0.37    0.00  1.0000
   6  -2  -1   17816   20358                                                       25209   -0.37    0.00  1.0000
   6  -2  -1    5104   17816                                                        9318   -0.37    0.00  1.0000
   6  -2   0   33837   28915                                                       41544   -0.27    0.00  1.0000
   6  -2   0   22046   15866                                                       28343   -0.27    0.00  1.0000
   6  -2   0   13413   27729                                                       18411   -0.27    0.00  1.0000
   6  -2   1  369642   52238                                                      369011   -0.01    0.00  1.0000
   6  -2   2  534218   52322                                                      511759    0.21    0.00  1.0000
   6  -2   3 3716983  125532                                                     3772086    0.20    0.00  1.0000
   6  -2   4  256886   34667                                                      258431   -0.02    0.00  1.0000
   6  -2   5   41205   16530                                                       35037   -0.22    0.00  1.0000
   6  -1  -8 1601604   80700                                                     1549276    0.29    0.00  1.0000
   6  -1  -7 2527007   99855                                                     2579717    0.23    0.00  1.0000
   6  -1  -7 2501631  113261                                                     2554077    0.23    0.00  1.0000
   6  -1  -6 3691051  112292                                                     3633507    0.21    0.00  1.0000
   6  -1  -6 3512075  143301                                                     3455949    0.21    0.00  1.0000
   6  -1  -5  689550   94048                                                      713234    0.19    0.00  1.0000
   6  -1  -5  720622   73796                                                      744828    0.19    0.00  1.0000
   6  -1  -5  541571   94209                                                      562583    0.19    0.00  1.0000
   6  -1  -4   22908   33649                                                       26136    0.14    0.00  1.0000
   6  -1  -4     107   27048                                                       -2959    0.14    0.00  1.0000
   6  -1  -4     107   45452                                                      -48386    0.14    0.00  1.0000
   6  -1  -3 2352979  136497                                                     2332879    0.09    0.00  1.0000
   6  -1  -3 2307996  116570                                                     2288089    0.09    0.00  1.0000
   6  -1  -3 2279503  121605                                                     2259720    0.09    0.00  1.0000
   6  -1  -3 2304792  117358                                                     2284899    0.09    0.00  1.0000
   6  -1  -2 2249303  123687                                                     2275680    0.12    0.00  1.0000
   6  -1  -2 2167685  132826                                                     2193580    0.12    0.00  1.0000
   6  -1  -2 2058137  109152                                                     2083371    0.12    0.00  1.0000
   6  -1  -1 1879346  101259                                                     1836064    0.22    0.00  1.0000
   6  -1  -1 1802446  125089                                                     1760064    0.22    0.00  1.0000
   6  -1  -1 1682464   95303                                                     1641525    0.22    0.00  1.0000
   6  -1   0  994351   83094                                                     1031741    0.26    0.00  1.0000
   6  -1   0 1026801   97487                                                     1064790    0.26    0.00  1.0000
   6  -1   1   89681   47862                                                       83446    0.15    0.00  1.0000
   6  -1   1   57807   33592                                                       52823    0.15    0.00  1.0000
   6  -1   2   98928   31116                                                       97848   -0.02    0.00  1.0000
   6  -1   2   78458   30470                                                       77495   -0.02    0.00  1.0000
   6  -1   3 2281567  116050                                                     2264350   -0.08    0.00  1.0000
   6  -1   4  423671   53761                                                      419165    0.05    0.00  1.0000
   6  -1   5  477612   47176                                                      501568    0.24    0.00  1.0000
   6  -1   6  146185   26171                                                      129253    0.32    0.00  1.0000
   6   0  -7   26829   53449                                                       26370   -0.02    0.00  1.0000
   6   0  -7  137477   36420                                                      136436   -0.02    0.00  1.0000
   6   0  -6 1759642   84728                                                     1756094    0.02    0.00  1.0000
   6   0  -6 1564601  101035                                                     1561256    0.02    0.00  1.0000
   6   0  -6 1574001  114576                                                     1570646    0.02    0.00  1.0000
   6   0  -5 2517931  156318                                                     2513767   -0.02    0.00  1.0000
   6   0  -5 3007063  107406                                                     3002513   -0.02    0.00  1.0000
   6   0  -5 2947878  137713                                                     2943373   -0.02    0.00  1.0000
   6   0  -5 2714388  165102                                                     2710066   -0.02    0.00  1.0000
   6   0  -4 3087347  163606                                                     3095852   -0.03    0.00  1.0000
   6   0  -4 3534398  128184                                                     3543498   -0.03    0.00  1.0000
   6   0  -4 3212695  180977                                                     3221371   -0.03    0.00  1.0000
   6   0  -4 3427908  141797                                                     3436869   -0.03    0.00  1.0000
   6   0  -3   37451   24697                                                       38351    0.03    0.00  1.0000
   6   0  -3   46612   50700                                                       47616    0.03    0.00  1.0000
   6   0  -3   26811   47397                                                       27573    0.03    0.00  1.0000
   6   0  -3   36813   41601                                                       37706    0.03    0.00  1.0000
   6   0  -2  162475   36912                                                      169165    0.11    0.00  1.0000
   6   0  -2  198271   51175                                                      205654    0.11    0.00  1.0000
   6   0  -2  223903   61763                                                      231745    0.11    0.00  1.0000
   6   0  -1  463461   58833                                                      453073    0.11    0.00  1.0000
   6   0  -1  452870   73053                                                      442602    0.11    0.00  1.0000
   6   0  -1  466313   59240                                                      455893    0.11    0.00  1.0000
   6   0   0 1299996   90011                                                     1302328    0.01    0.00  1.0000
   6   0   0 1256486  105311                                                     1258779    0.01    0.00  1.0000
   6   0   1 1221338   91492                                                     1230969   -0.06    0.00  1.0000
   6   0   1 1314338  103084                                                     1324328   -0.06    0.00  1.0000
   6   0   1 1473450   89910                                                     1484027   -0.06    0.00  1.0000
   6   0   2 5103828  176903                                                     5087914   -0.05    0.00  1.0000
   6   0   2 5177302  191352                                                     5161273   -0.05    0.00  1.0000
   6   0   2 5592339  168960                                                     5575680   -0.05    0.00  1.0000
   6   0   3   24026   33368                                                       23904    0.01    0.00  1.0000
   6   0   3   49144   31768                                                       48969    0.01    0.00  1.0000
   6   0   3   28438   22265                                                       28305    0.01    0.00  1.0000
   6   0   4    9177   30161                                                        9396    0.02    0.00  1.0000
   6   0   4   20326   45123                                                       20651    0.02    0.00  1.0000
   6   0   5  207226   43926                                                      204519   -0.04    0.00  1.0000
   6   0   6  203546   41582                                                      210752   -0.11    0.00  1.0000
   6   0   7  257181   28810                                                      247771   -0.13    0.00  1.0000
   6   1  -6   13767   42219                                                       19807   -0.32    0.00  1.0000
   6   1  -6    5749   21893                                                        9846   -0.32    0.00  1.0000
   6   1  -5  188174   41391                                                      171415   -0.27    0.00  1.0000
   6   1  -5  207672   39996                                                      190047   -0.27    0.00  1.0000
   6   1  -5  154220   32184                                                      139086   -0.27    0.00  1.0000
   6   1  -4 1077042   84899                                                     1101130   -0.16    0.00  1.0000
   6   1  -4 1005453   91057                                                     1028731   -0.16    0.00  1.0000
   6   1  -3  269819   45400                                                      260802   -0.12    0.00  1.0000
   6   1  -3  280501   59315                                                      271306   -0.12    0.00  1.0000
   6   1  -2  785624   76406                                                      810211   -0.19    0.00  1.0000
   6   1  -2  741479   80605                                                      765370   -0.19    0.00  1.0000
   6   1  -1  919236   89596                                                      884646   -0.25    0.00  1.0000
   6   1  -1  961140   88397                                                      925764   -0.25    0.00  1.0000
   6   1  -1 1082149   84275                                                     1044591   -0.25    0.00  1.0000
   6   1   0     207   39354                                                      -24216   -0.20    0.00  1.0000
   6   1   0     207   30799                                                        -627   -0.20    0.00  1.0000
   6   1   0   47077   19736                                                       41043   -0.20    0.00  1.0000
   6   1   0     207   30124                                                      -25576   -0.20    0.00  1.0000
   6   1   1  597273   42503                                                      603472   -0.06    0.00  1.0000
   6   1   1  503689   62735                                                      509382   -0.06    0.00  1.0000
   6   1   1  530686   72636                                                      536530   -0.06    0.00  1.0000
   6   1   1  503017   61406                                                      508707   -0.06    0.00  1.0000
   6   1   1  487834   48993                                                      493438   -0.06    0.00  1.0000
   6   1   2 9567313  166419                                                     9595103    0.06    0.00  1.0000
   6   1   2 9019964  225514                                                     9046948    0.06    0.00  1.0000
   6   1   2 9240374  244429                                                     9267686    0.06    0.00  1.0000
   6   1   2 9706371  236061                                                     9734362    0.06    0.00  1.0000
   6   1   3 1846433   77645                                                     1832293    0.07    0.00  1.0000
   6   1   3 1667631  102241                                                     1654195    0.07    0.00  1.0000
   6   1   3 1624235  108859                                                     1610975    0.07    0.00  1.0000
   6   1   3 1728976   99643                                                     1715295    0.07    0.00  1.0000
   6   1   4  873289   86256                                                      872293   -0.01    0.00  1.0000
   6   1   4  938432   79238                                                      937401   -0.01    0.00  1.0000
   6   1   4  979434   78032                                                      978380   -0.01    0.00  1.0000
   6   1   5   24160   47320                                                       26378   -0.10    0.00  1.0000
   6   1   5   34665   33314                                                       37312   -0.10    0.00  1.0000
   6   1   5   51700   28105                                                       54924   -0.10    0.00  1.0000
   6   1   6    7171   47344                                                        8863   -0.13    0.00  1.0000
   6   1   6      90   28280                                                        -598   -0.13    0.00  1.0000
   6   1   7   21138   25706                                                       19279   -0.09    0.00  1.0000
   6   1   8 1026227   54083                                                     1028621   -0.02    0.00  1.0000
   6   2  -5  281237   45567                                                      251783    0.39    0.00  1.0000
   6   2  -5  300548   53758                                                      270072    0.39    0.00  1.0000
   6   2  -4 2374750   95316                                                     2311959    0.28    0.00  1.0000
   6   2  -4 1997333  112549                                                     1939782    0.28    0.00  1.0000
   6   2  -3 4664270  139326                                                     4710298    0.15    0.00  1.0000
   6   2  -3 4516196  175992                                                     4561489    0.15    0.00  1.0000
   6   2  -2 4166880  134685                                                     4139323    0.09    0.00  1.0000
   6   2  -2 4277404  170177                                                     4249482    0.09    0.00  1.0000
   6   2  -1 3554961  134059                                                     3582657    0.10    0.00  1.0000
   6   2  -1 3721768  147661                                                     3750106    0.10    0.00  1.0000
   6   2  -1 3780953  152634                                                     3809516    0.10    0.00  1.0000
   6   2   0 2518778  108950                                                     2502207    0.07    0.00  1.0000
   6   2   0 2503076   94921                                                     2486558    0.07    0.00  1.0000
   6   2   0 2307911  115960                                                     2292049    0.07    0.00  1.0000
   6   2   0 2631043  125200                                                     2614106    0.07    0.00  1.0000
   6   2   0 2400575  117149                                                     2384399    0.07    0.00  1.0000
   6   2   1 6153484  144065                                                     6142555   -0.03    0.00  1.0000
   6   2   1 6024070  168294                                                     6013256   -0.03    0.00  1.0000
   6   2   1 6035259  184566                                                     6024436   -0.03    0.00  1.0000
   6   2   1 6659910  201336                                                     6648540   -0.03    0.00  1.0000
   6   2   1 6072423  170469                                                     6061565   -0.03    0.00  1.0000
   6   2   2   42182   39812                                                       38143   -0.14    0.00  1.0000
   6   2   2   29631   12192                                                       26262   -0.14    0.00  1.0000
   6   2   2     102   33499                                                       -1812   -0.14    0.00  1.0000
   6   2   2   19108   34097                                                       16422   -0.14    0.00  1.0000
   6   2   2   19162   17331                                                       16473   -0.14    0.00  1.0000
   6   2   3   14578   33259                                                       12312   -0.16    0.00  1.0000
   6   2   3   17249   10706                                                       14780   -0.16    0.00  1.0000
   6   2   3     143   35143                                                       -1407   -0.16    0.00  1.0000
   6   2   3    4429   24760                                                        3203   -0.16    0.00  1.0000
   6   2   4 1079819   63241                                                     1067110   -0.08    0.00  1.0000
   6   2   4 1048564   83681                                                     1036041   -0.08    0.00  1.0000
   6   2   4  946868   80103                                                      934970   -0.08    0.00  1.0000
   6   2   4 1008356   83408                                                      996076   -0.08    0.00  1.0000
   6   2   5 1129868   93196                                                     1122820    0.05    0.00  1.0000
   6   2   5 1130330   82673                                                     1123280    0.05    0.00  1.0000
   6   2   5 1233855   91231                                                     1226489    0.05    0.00  1.0000
   6   2   6 1387408  115381                                                     1411347    0.14    0.00  1.0000
   6   2   6 1532690   95131                                                     1557846    0.14    0.00  1.0000
   6   2   7 1849188  109554                                                     1822164    0.14    0.00  1.0000
   6   2   7 1801083   89265                                                     1774414    0.14    0.00  1.0000
   6   2   8   65738   25905                                                       67642    0.05    0.00  1.0000
   6   2   8   27823   10806                                                       29067    0.05    0.00  1.0000
   6   3  -8   15442   12334                                                       17086    0.09    0.00  1.0000
   6   3  -5 1833890  100006                                                     1880873   -0.24    0.00  1.0000
   6   3  -4 1048228   66785                                                     1008581   -0.27    0.00  1.0000
   6   3  -4 1005538   74352                                                      966714   -0.27    0.00  1.0000
   6   3  -3 2744413   99992                                                     2795095   -0.21    0.00  1.0000
   6   3  -3 2752698  128831                                                     2803455   -0.21    0.00  1.0000
   6   3  -2 2579527  102183                                                     2547787   -0.14    0.00  1.0000
   6   3  -2 2638609  125927                                                     2606507   -0.14    0.00  1.0000
   6   3  -1      40   50114                                                       -1418   -0.09    0.00  1.0000
   6   3  -1   27262   22641                                                       29159   -0.09    0.00  1.0000
   6   3   0 1070104   82874                                                     1075180   -0.03    0.00  1.0000
   6   3   0 1194167   77075                                                     1199529   -0.03    0.00  1.0000
   6   3   0 1428593   94845                                                     1434457   -0.03    0.00  1.0000
   6   3   0 1301860   89236                                                     1307458   -0.03    0.00  1.0000
   6   3   1 9269111  192756                                                     9287676    0.04    0.00  1.0000
   6   3   110187445  206361                                                    10206908    0.04    0.00  1.0000
   6   3   1 9322966  196824                                                     9341585    0.04    0.00  1.0000
   6   3   110534013  247866                                                    10553804    0.04    0.00  1.0000
   6   3   110228505  228920                                                    10248007    0.04    0.00  1.0000
   6   3   2  243681   43457                                                      236526    0.10    0.00  1.0000
   6   3   2  305664   39133                                                      297644    0.10    0.00  1.0000
   6   3   2  273901   42344                                                      266313    0.10    0.00  1.0000
   6   3   2  229858   42759                                                      222911    0.10    0.00  1.0000
   6   3   2  277738   42204                                                      270097    0.10    0.00  1.0000
   6   3   3  105270   28380                                                      109709    0.09    0.00  1.0000
   6   3   3  109540   37174                                                      114068    0.09    0.00  1.0000
   6   3   3   34898   30113                                                       37473    0.09    0.00  1.0000
   6   3   3   96086   34903                                                      100329    0.09    0.00  1.0000
   6   3   3   96337   28326                                                      100586    0.09    0.00  1.0000
   6   3   4   84911   25127                                                       85716    0.02    0.00  1.0000
   6   3   4   55621   28020                                                       56273    0.02    0.00  1.0000
   6   3   4   44628   29769                                                       45213    0.02    0.00  1.0000
   6   3   4   54302   44003                                                       54947    0.02    0.00  1.0000
   6   3   5   70429   18489                                                       73333   -0.07    0.00  1.0000
   6   3   5   92407   31120                                                       95729   -0.07    0.00  1.0000
   6   3   5  110794   31184                                                      114429   -0.07    0.00  1.0000
   6   3   5   67405   35584                                                       70246   -0.07    0.00  1.0000
   6   3   6  677639   53633                                                      661945   -0.13    0.00  1.0000
   6   3   6  661745   67615                                                      646237   -0.13    0.00  1.0000
   6   3   6  583070   71944                                                      568519   -0.13    0.00  1.0000
   6   3   7 3177348  128382                                                     3208321   -0.12    0.00  1.0000
   6   3   7 3046442  135235                                                     3076772   -0.12    0.00  1.0000
   6   3   8 1002953   68201                                                      997306   -0.04    0.00  1.0000
   6   3   9  380670   36704                                                      375414    0.06    0.00  1.0000
   6   4  -7  269044   30845                                                      254555   -0.19    0.00  1.0000
   6   4  -4  499857   57187                                                      521542    0.21    0.00  1.0000
   6   4  -3  779024   61109                                                      743434    0.28    0.00  1.0000
   6   4  -3  828776   72738                                                      792054    0.28    0.00  1.0000
   6   4  -2 1249915   67232                                                     1298168    0.29    0.00  1.0000
   6   4  -2 1496460   77200                                                     1549216    0.29    0.00  1.0000
   6   4  -2 1476992   93723                                                     1529406    0.29    0.00  1.0000
   6   4  -1  978953   76318                                                      939930    0.27    0.00  1.0000
   6   4   0 1557947   90820                                                     1598456    0.22    0.00  1.0000
   6   4   0 1731799   99599                                                     1774494    0.22    0.00  1.0000
   6   4   0 1756981   99814                                                     1799984    0.22    0.00  1.0000
   6   4   1 3178117  125878                                                     3215411    0.14    0.00  1.0000
   6   4   1 3231127  138454                                                     3268731    0.14    0.00  1.0000
   6   4   1 3260696  130870                                                     3298470    0.14    0.00  1.0000
   6   4   2 1709650   89358                                                     1694225    0.08    0.00  1.0000
   6   4   2 1794036  107076                                                     1778234    0.08    0.00  1.0000
   6   4   2 1801619   93467                                                     1785784    0.08    0.00  1.0000
   6   4   3 3999282  136606                                                     4021964    0.08    0.00  1.0000
   6   4   3 3836021  117527                                                     3858235    0.08    0.00  1.0000
   6   4   3 3897853  157219                                                     3920245    0.08    0.00  1.0000
   6   4   3 4089558  128864                                                     4112493    0.08    0.00  1.0000
   6   4   4 1474105   80558                                                     1452337    0.12    0.00  1.0000
   6   4   4 1528565  106143                                                     1506396    0.12    0.00  1.0000
   6   4   5  554121   50685                                                      572622    0.17    0.00  1.0000
   6   4   5  489422   71327                                                      506818    0.17    0.00  1.0000
   6   4   6  335611   40468                                                      320582    0.18    0.00  1.0000
   6   4   6  320001   63858                                                      305330    0.18    0.00  1.0000
   6   4   7  342615   64987                                                      329660    0.15    0.00  1.0000
   6   4   8  490509   68042                                                      500318    0.10    0.00  1.0000
   6   4   9 1893767   89967                                                     1890333    0.02    0.00  1.0000
   6   4  10  867085   49194                                                      860546   -0.05    0.00  1.0000
   6   5  -6  537231   41376                                                      523894    0.13    0.00  1.0000
   6   5  -5   23286   20109                                                       22997   -0.01    0.00  1.0000
   6   5  -4   95819   38332                                                      103087   -0.16    0.00  1.0000
   6   5  -3   46564   31465                                                       39148   -0.25    0.00  1.0000
   6   5  -3     326   13176                                                       -8439   -0.25    0.00  1.0000
   6   5  -2  780667   70532                                                      745889   -0.27    0.00  1.0000
   6   5  -2  776597   65432                                                      741910   -0.27    0.00  1.0000
   6   5  -1 1655313  102016                                                     1702745   -0.25    0.00  1.0000
   6   5  -1 1936181   86488                                                     1987452   -0.25    0.00  1.0000
   6   5  -1 1699489   97335                                                     1747544   -0.25    0.00  1.0000
   6   5   0 5270693  170973                                                     5205893   -0.19    0.00  1.0000
   6   5   0 4884269  129417                                                     4821897   -0.19    0.00  1.0000
   6   5   0 5307892  162524                                                     5242863   -0.19    0.00  1.0000
   6   5   1  165941   39793                                                      158861   -0.12    0.00  1.0000
   6   5   1  117920   57775                                                      111963   -0.12    0.00  1.0000
   6   5   1  135417   34980                                                      129028   -0.12    0.00  1.0000
   6   5   1  156589   36445                                                      149713   -0.12    0.00  1.0000
   6   5   2   23197   26150                                                       21737   -0.07    0.00  1.0000
   6   5   2      26   61101                                                      -24405   -0.07    0.00  1.0000
   6   5   2   20601   25021                                                       19227   -0.07    0.00  1.0000
   6   5   2    7075   26183                                                        6278   -0.07    0.00  1.0000
   6   5   3  272831   41456                                                      267872   -0.07    0.00  1.0000
   6   5   3  139698   60584                                                      136156   -0.07    0.00  1.0000
   6   5   3  187324   47115                                                      183218   -0.07    0.00  1.0000
   6   5   3  215173   37833                                                      210771   -0.07    0.00  1.0000
   6   5   4  836749   67966                                                      848379   -0.09    0.00  1.0000
   6   5   4  890865   62031                                                      902864   -0.09    0.00  1.0000
   6   5   4  730170   76390                                                      741036   -0.09    0.00  1.0000
   6   5   4  808819   74453                                                      820254   -0.09    0.00  1.0000
   6   5   5 4786824  144214                                                     4759617   -0.09    0.00  1.0000
   6   5   5 4842853  125972                                                     4815487   -0.09    0.00  1.0000
   6   5   5 4553224  119122                                                     4526689   -0.09    0.00  1.0000
   6   5   5 4606237  182105                                                     4579549   -0.09    0.00  1.0000
   6   5   6 9631588  193462                                                     9653883   -0.05    0.00  1.0000
   6   5   610395945  291612                                                    10419106   -0.05    0.00  1.0000
   6   5   7 2518795   94290                                                     2514447   -0.02    0.00  1.0000
   6   5   7 1933231  144903                                                     1929423   -0.02    0.00  1.0000
   6   5   8  200031   62562                                                      201643   -0.02    0.00  1.0000
   6   5   9  524610   61963                                                      529011   -0.04    0.00  1.0000
   6   5  10  241441   31833                                                      239312   -0.03    0.00  1.0000
   6   6  -6  381185   33424                                                      390987   -0.11    0.00  1.0000
   6   6  -5  165935   24765                                                      164152   -0.03    0.00  1.0000
   6   6  -4  796938   57832                                                      788801    0.06    0.00  1.0000
   6   6  -3 1457548   85695                                                     1476827    0.11    0.00  1.0000
   6   6  -2  205554   50026                                                      199999    0.08    0.00  1.0000
   6   6  -2  280125   48129                                                      273634    0.08    0.00  1.0000
   6   6  -1   49871   31792                                                       50016    0.00    0.00  1.0000
   6   6  -1    4766   29839                                                        4810    0.00    0.00  1.0000
   6   6  -1   66963   60114                                                       67130    0.00    0.00  1.0000
   6   6  -1       0    8916                                                       -1506    0.00    0.00  1.0000
   6   6   0 7575678  217717                                                     7522982   -0.13    0.00  1.0000
   6   6   0 7346004  199295                                                     7294114   -0.13    0.00  1.0000
   6   6   0 7170692  174376                                                     7119426   -0.13    0.00  1.0000
   6   6   1 3244991  140859                                                     3308590   -0.24    0.00  1.0000
   6   6   1 3276107  138748                                                     3340010   -0.24    0.00  1.0000
   6   6   1 3319220  115633                                                     3383539   -0.24    0.00  1.0000
   6   6   1 2980131  113908                                                     3041093   -0.24    0.00  1.0000
   6   6   2 4356149  151878                                                     4276332   -0.26    0.00  1.0000
   6   6   2 4494885  131103                                                     4413800   -0.26    0.00  1.0000
   6   6   2 4195134  142849                                                     4116813   -0.26    0.00  1.0000
   6   6   2 4492108  134833                                                     4411050   -0.26    0.00  1.0000
   6   6   3 1068647   76633                                                     1095600   -0.18    0.00  1.0000
   6   6   3 1061695   84697                                                     1088560   -0.18    0.00  1.0000
   6   6   3  934710   74670                                                      959927   -0.18    0.00  1.0000
   6   6   3 1031952   67160                                                     1058440   -0.18    0.00  1.0000
   6   6   4  329843   45705                                                      325052   -0.06    0.00  1.0000
   6   6   4  433630   49701                                                      428134   -0.06    0.00  1.0000
   6   6   4  434104   70030                                                      428605   -0.06    0.00  1.0000
   6   6   4  393491   58453                                                      388256   -0.06    0.00  1.0000
   6   6   5  269423   45922                                                      270749   -0.02    0.00  1.0000
   6   6   5  271108   39941                                                      272438   -0.02    0.00  1.0000
   6   6   5  299366   67188                                                      300763   -0.02    0.00  1.0000
   6   6   5  293106   53056                                                      294488   -0.02    0.00  1.0000
   6   6   6  171588   30459                                                      177370   -0.10    0.00  1.0000
   6   6   6  146181   34841                                                      151522   -0.10    0.00  1.0000
   6   6   6  100735   50383                                                      105176   -0.10    0.00  1.0000
   6   6   7   86176   20029                                                       77910   -0.20    0.00  1.0000
   6   6   7   84702   21948                                                       76508   -0.20    0.00  1.0000
   6   6   7   71175   49975                                                       63680   -0.20    0.00  1.0000
   6   6   8 1409974  111334                                                     1448297   -0.22    0.00  1.0000
   6   6   9  527754   71455                                                      514282   -0.13    0.00  1.0000
   6   6  10  141865   30451                                                      142844   -0.02    0.00  1.0000
   6   7  -5   11123    8579                                                       10409    0.05    0.00  1.0000
   6   7  -4   62729   14585                                                       62817    0.00    0.00  1.0000
   6   7  -4     422   12409                                                         429    0.00    0.00  1.0000
   6   7  -3  705518   50621                                                      700417   -0.04    0.00  1.0000
   6   7  -3  792583   62478                                                      787175   -0.04    0.00  1.0000
   6   7  -2 1121961   69366                                                     1126480   -0.03    0.00  1.0000
   6   7  -2 1191173   77948                                                     1195829   -0.03    0.00  1.0000
   6   7  -1 2139713  117260                                                     2152611    0.06    0.00  1.0000
   6   7  -1 2066795  100739                                                     2079471    0.06    0.00  1.0000
   6   7  -1 2199394  109234                                                     2212470    0.06    0.00  1.0000
   6   7   0  490366   69112                                                      513904    0.23    0.00  1.0000
   6   7   0  521976   58944                                                      546252    0.23    0.00  1.0000
   6   7   0  538195   63168                                                      562841    0.23    0.00  1.0000
   6   7   1     902   27270                                                      -23739    0.41    0.00  1.0000
   6   7   1    2390   10420                                                         360    0.41    0.00  1.0000
   6   7   2  262729   47823                                                      300430    0.49    0.00  1.0000
   6   7   2  257643   43793                                                      294990    0.49    0.00  1.0000
   6   7   2  324897   85967                                                      366682    0.49    0.00  1.0000
   6   7   3  487695   58675                                                      450868    0.37    0.00  1.0000
   6   7   3  530765   61117                                                      492316    0.37    0.00  1.0000
   6   7   4 2385922  124689                                                     2412998    0.12    0.00  1.0000
   6   7   4 2559266  107506                                                     2587307    0.12    0.00  1.0000
   6   7   5 3506892  132800                                                     3524468   -0.06    0.00  1.0000
   6   7   5 3815543  124764                                                     3833876   -0.06    0.00  1.0000
   6   7   6   11473   22221                                                       11002   -0.03    0.00  1.0000
   6   7   6   24077   28168                                                       23392   -0.03    0.00  1.0000
   6   7   6   14306   24988                                                       13779   -0.03    0.00  1.0000
   6   7   7  414097   45425                                                      429945    0.17    0.00  1.0000
   6   7   7  411329   53137                                                      427124    0.17    0.00  1.0000
   6   7   8 2376195   85239                                                     2302609    0.33    0.00  1.0000
   6   7   8 2369693  110812                                                     2296209    0.33    0.00  1.0000
   6   7   9 1037499   73070                                                     1084070    0.31    0.00  1.0000
   6   7  10 1249515   64858                                                     1225109    0.15    0.00  1.0000
   6   8  -3   23763    9878                                                       26143    0.10    0.00  1.0000
   6   8  -2  296952   27782                                                      285632    0.14    0.00  1.0000
   6   8  -2  358101   42192                                                      345659    0.14    0.00  1.0000
   6   8  -1 3565130  107021                                                     3601647    0.13    0.00  1.0000
   6   8  -1 4159983  135529                                                     4199422    0.13    0.00  1.0000
   6   8   0  681147   54184                                                      676246    0.04    0.00  1.0000
   6   8   0  697881   56754                                                      692920    0.04    0.00  1.0000
   6   8   1 1509570   82071                                                     1487917   -0.12    0.00  1.0000
   6   8   1 1333051   82305                                                     1312708   -0.12    0.00  1.0000
   6   8   2  281833   45284                                                      302358   -0.26    0.00  1.0000
   6   8   2  282059   46653                                                      302592   -0.26    0.00  1.0000
   6   8   3     311   26407                                                      -35972   -0.24    0.00  1.0000
   6   8   3   29695   28142                                                       23936   -0.24    0.00  1.0000
   6   8   4  213157   42615                                                      210922   -0.03    0.00  1.0000
   6   8   4  182962   51286                                                      180892   -0.03    0.00  1.0000
   6   8   5 1910425   94910                                                     1868723    0.21    0.00  1.0000
   6   8   5 2217759  117653                                                     2172810    0.21    0.00  1.0000
   6   8   6 1317523   77025                                                     1361678    0.26    0.00  1.0000
   6   8   7 1755469   82034                                                     1742594    0.07    0.00  1.0000
   6   8   8  118019   27216                                                      107900   -0.21    0.00  1.0000
   6   8   8   29148    8890                                                       24232   -0.21    0.00  1.0000
   6   8   9   28134   13961                                                       20650   -0.33    0.00  1.0000
   6   8   9     580   21283                                                      -38702   -0.33    0.00  1.0000
   6   9  -2  309489   27579                                                      295775   -0.17    0.00  1.0000
   6   9  -1  965597   54014                                                      940646   -0.18    0.00  1.0000
   6   9   0   49399   13619                                                       54244   -0.15    0.00  1.0000
   6   9   0  122477   29092                                                      130042   -0.15    0.00  1.0000
   6   9   1  166898   24275                                                      161856   -0.09    0.00  1.0000
   6   9   1  174657   28319                                                      169497   -0.09    0.00  1.0000
   6   9   2   56456   21684                                                       56753   -0.01    0.00  1.0000
   6   9   2   96910   20717                                                       97299   -0.01    0.00  1.0000
   6   9   3  483334   46082                                                      485172    0.02    0.00  1.0000
   6   9   4 1130885   64670                                                     1141920   -0.07    0.00  1.0000
   6   9   5   42514   21160                                                       49864   -0.24    0.00  1.0000
   6   9   6  380802   43328                                                      352660   -0.32    0.00  1.0000
   6   9   7 2112562   85806                                                     2157201   -0.21    0.00  1.0000
   6   9   8 1304685   63372                                                     1309988    0.03    0.00  1.0000
   6   9   9 1598104   61687                                                     1558916    0.21    0.00  1.0000
   6  10   1    4707    6845                                                        5163   -0.04    0.00  1.0000
   6  10   2   66459   15923                                                       68605   -0.06    0.00  1.0000
   6  10   3  735853   40041                                                      729999   -0.05    0.00  1.0000
   6  10   4 2284942   75692                                                     2286329   -0.01    0.00  1.0000
   6  10   5  488222   40103                                                      495527    0.07    0.00  1.0000
   6  10   6  341702   33517                                                      329753    0.14    0.00  1.0000
   6  10   7   39070   20194                                                       35423    0.13    0.00  1.0000
   6  10   8  137214   23815                                                      138506    0.02    0.00  1.0000
   6  11   6 1427483   46660                                                     1415797    0.07    0.00  1.0000
   7  -3  -4      57   37040                                                      -28597   -0.10    0.00  1.0000
   7  -3  -3  388090   45634                                                      375294   -0.14    0.00  1.0000
   7  -3  -3  384036   35101                                                      371308   -0.14    0.00  1.0000
   7  -3  -2  420036   38558                                                      436657   -0.18    0.00  1.0000
   7  -3  -1 1475521   55950                                                     1443407   -0.18    0.00  1.0000
   7  -3   0  836603   44237                                                      855464   -0.14    0.00  1.0000
   7  -2  -6  872175   59528                                                      797020   -0.57    0.00  1.0000
   7  -2  -5 1022003   67911                                                     1089670   -0.45    0.00  1.0000
   7  -2  -4 2356637   88740                                                     2281669   -0.34    0.00  1.0000
   7  -2  -3  820869   60577                                                      856593   -0.27    0.00  1.0000
   7  -2  -3  434890   49261                                                      460996   -0.27    0.00  1.0000
   7  -2  -2   59493   14344                                                       52245   -0.21    0.00  1.0000
   7  -2  -2  110330   46456                                                      100374   -0.21    0.00  1.0000
   7  -2  -1  762050   66442                                                      743482   -0.15    0.00  1.0000
   7  -2   0  767000   68237                                                      779776   -0.10    0.00  1.0000
   7  -2   3  316488   37762                                                      317737   -0.02    0.00  1.0000
   7  -1  -6   73521   57981                                                      101829    0.66    0.00  1.0000
   7  -1  -5    1910   61936                                                      -46770    0.60    0.00  1.0000
   7  -1  -4  937767   77616                                                     1003851    0.46    0.00  1.0000
   7  -1  -3 1037191   75432                                                      980930    0.39    0.00  1.0000
   7  -1  -3  466595   45378                                                      429115    0.39    0.00  1.0000
   7  -1  -2 1694569   96341                                                     1775514    0.42    0.00  1.0000
   7  -1  -1  148940   59884                                                      121405    0.52    0.00  1.0000
   7  -1   0  404163   65068                                                      352090    0.58    0.00  1.0000
   7  -1   1 2330987  103956                                                     2454348    0.55    0.00  1.0000
   7  -1   2 3835413  120907                                                     3727636    0.38    0.00  1.0000
   7  -1   3  140059   29665                                                      147098    0.13    0.00  1.0000
   7  -1   4  778409   45825                                                      788937   -0.08    0.00  1.0000
   7   0  -6 1366587   86657                                                     1422217   -0.32    0.00  1.0000
   7   0  -5 1142872   82857                                                     1090050   -0.34    0.00  1.0000
   7   0  -4  417613   69391                                                      395974   -0.23    0.00  1.0000
   7   0  -3 1363880   86342                                                     1387767   -0.14    0.00  1.0000
   7   0  -2 4656648  149643                                                     4596159   -0.19    0.00  1.0000
   7   0  -1 3018632  136147                                                     3122412   -0.41    0.00  1.0000
   7   0  -1 2469408  139671                                                     2563357   -0.41    0.00  1.0000
   7   0   0  561796   68491                                                      490409   -0.68    0.00  1.0000
   7   0   0  505219   70959                                                      437646   -0.68    0.00  1.0000
   7   0   1   69461   40020                                                      105365   -0.84    0.00  1.0000
   7   0   2   68232   32692                                                      100200   -0.76    0.00  1.0000
   7   0   3 1095312   79955                                                     1161800   -0.43    0.00  1.0000
   7   0   4   73326   31552                                                       74116   -0.02    0.00  1.0000
   7   0   5  527764   44729                                                      553731    0.24    0.00  1.0000
   7   0   6  830474   39573                                                      795735    0.27    0.00  1.0000
   7   1  -6  556295   72019                                                      543056    0.12    0.00  1.0000
   7   1  -5 1861725   96407                                                     1898083    0.18    0.00  1.0000
   7   1  -4  922982   71051                                                      897208    0.19    0.00  1.0000
   7   1  -3 1723225   92750                                                     1761454    0.20    0.00  1.0000
   7   1  -3  802510   92969                                                      828665    0.20    0.00  1.0000
   7   1  -2  180681   62201                                                      198129    0.28    0.00  1.0000
   7   1  -2   61422   43146                                                       71763    0.28    0.00  1.0000
   7   1  -1 1355859   96476                                                     1285558    0.42    0.00  1.0000
   7   1  -1 1321275  105750                                                     1251889    0.42    0.00  1.0000
   7   1  -1 1279340   89968                                                     1211079    0.42    0.00  1.0000
   7   1   0 1506772  109875                                                     1616205    0.60    0.00  1.0000
   7   1   0 1277617  102767                                                     1378538    0.60    0.00  1.0000
   7   1   1 1834897   97482                                                     1689665    0.75    0.00  1.0000
   7   1   1 1678616  100829                                                     1539836    0.75    0.00  1.0000
   7   1   2   34435   31140                                                       17596    0.77    0.00  1.0000
   7   1   2   68988   38101                                                       44141    0.77    0.00  1.0000
   7   1   2   88040   26712                                                       59661    0.77    0.00  1.0000
   7   1   3 1394561   93115                                                     1297998    0.57    0.00  1.0000
   7   1   3 1399205   82205                                                     1302478    0.57    0.00  1.0000
   7   1   4  213570   43384                                                      228710    0.22    0.00  1.0000
   7   1   4  248704   42504                                                      265022    0.22    0.00  1.0000
   7   1   5   37876   31625                                                       40803   -0.10    0.00  1.0000
   7   1   5   40010   12114                                                       43017   -0.10    0.00  1.0000
   7   1   6  518397   45421                                                      543422   -0.24    0.00  1.0000
   7   2  -5  471159   73769                                                      444081   -0.28    0.00  1.0000
   7   2  -4 1295805   82272                                                     1338288   -0.25    0.00  1.0000
   7   2  -3 6035838  146657                                                     5916237   -0.34    0.00  1.0000
   7   2  -3 5752696  198828                                                     5635949   -0.34    0.00  1.0000
   7   2  -2 3194444  119141                                                     3328960   -0.51    0.00  1.0000
   7   2  -2 2770908  142832                                                     2896284   -0.51    0.00  1.0000
   7   2  -1    2301   53951                                                      -35293   -0.66    0.00  1.0000
   7   2  -1  113779   31375                                                       84153   -0.66    0.00  1.0000
   7   2   0   57279   61286                                                       36023   -0.68    0.00  1.0000
   7   2   0  245515   45595                                                      198883   -0.68    0.00  1.0000
   7   2   1 1008650   74558                                                     1098220   -0.60    0.00  1.0000
   7   2   1  824547   74083                                                      905714   -0.60    0.00  1.0000
   7   2   1  924449   73047                                                     1010281   -0.60    0.00  1.0000
   7   2   2  191550   30658                                                      223819   -0.49    0.00  1.0000
   7   2   2  128705   51889                                                      155381   -0.49    0.00  1.0000
   7   2   2  144714   41365                                                      172924   -0.49    0.00  1.0000
   7   2   2  235391   56653                                                      271028   -0.49    0.00  1.0000
   7   2   3 1541624   73864                                                     1607415   -0.36    0.00  1.0000
   7   2   3 1366817   91583                                                     1428807   -0.36    0.00  1.0000
   7   2   3 1315812   93739                                                     1376648   -0.36    0.00  1.0000
   7   2   3 1500635  100577                                                     1565556   -0.36    0.00  1.0000
   7   2   4 1416432   96116                                                     1383928   -0.19    0.00  1.0000
   7   2   4 1507718   94464                                                     1474177   -0.19    0.00  1.0000
   7   2   5  935350   75838                                                      935968    0.00    0.00  1.0000
   7   2   5  948050   67284                                                      948672    0.00    0.00  1.0000
   7   2   6   28377   24940                                                       30935    0.10    0.00  1.0000
   7   2   6    7361   15755                                                        8690    0.10    0.00  1.0000
   7   2   7  484160   43818                                                      493992    0.10    0.00  1.0000
   7   2   7  423280   32144                                                      432476    0.10    0.00  1.0000
   7   3  -7  612639   35809                                                      573174    0.35    0.00  1.0000
   7   3  -4   77125   59813                                                       88823    0.28    0.00  1.0000
   7   3  -3  978999   71008                                                     1010041    0.21    0.00  1.0000
   7   3  -3  847935   77697                                                      876841    0.21    0.00  1.0000
   7   3  -3  910845   74464                                                      940796    0.21    0.00  1.0000
   7   3  -2 1801651   99975                                                     1740074    0.32    0.00  1.0000
   7   3  -2 1941170  111133                                                     1877233    0.32    0.00  1.0000
   7   3  -1 1228662   83556                                                     1306688    0.48    0.00  1.0000
   7   3  -1 1034466   77196                                                     1106160    0.48    0.00  1.0000
   7   3  -1 1055096   90127                                                     1127490    0.48    0.00  1.0000
   7   3   0  946727   81551                                                      877440    0.50    0.00  1.0000
   7   3   0 1124646   65109                                                     1049011    0.50    0.00  1.0000
   7   3   0 1034427   67186                                                      961942    0.50    0.00  1.0000
   7   3   0 1062672   79352                                                      989186    0.50    0.00  1.0000
   7   3   1   10659   15154                                                       14127    0.35    0.00  1.0000
   7   3   1     639   39191                                                      -24332    0.35    0.00  1.0000
   7   3   1     639   20676                                                      -11049    0.35    0.00  1.0000
   7   3   2 2736809   99727                                                     2698476    0.16    0.00  1.0000
   7   3   2 2460992  102832                                                     2424648    0.16    0.00  1.0000
   7   3   2 2816636  136240                                                     2777745    0.16    0.00  1.0000
   7   3   2 2360661  100571                                                     2325069    0.16    0.00  1.0000
   7   3   3   38156   16605                                                       39975    0.06    0.00  1.0000
   7   3   3   14828   29207                                                       15969    0.06    0.00  1.0000
   7   3   3      21   31549                                                      -15545    0.06    0.00  1.0000
   7   3   4  486701   47058                                                      490863    0.04    0.00  1.0000
   7   3   4  487537   54021                                                      491703    0.04    0.00  1.0000
   7   3   4  534794   66833                                                      539156    0.04    0.00  1.0000
   7   3   5 3213480  121767                                                     3210711    0.01    0.00  1.0000
   7   3   5 3455670  142177                                                     3452799    0.01    0.00  1.0000
   7   3   6 4223059  136103                                                     4212832   -0.03    0.00  1.0000
   7   3   6 3974215  137561                                                     3964294   -0.03    0.00  1.0000
   7   3   7  750357   54535                                                      755060   -0.04    0.00  1.0000
   7   3   8   69438   19325                                                       69721    0.01    0.00  1.0000
   7   4  -6  634481   43838                                                      594739   -0.35    0.00  1.0000
   7   4  -5  695323   55180                                                      745140   -0.40    0.00  1.0000
   7   4  -4 2227677   99035                                                     2162251   -0.30    0.00  1.0000
   7   4  -3  576802   58552                                                      594013   -0.15    0.00  1.0000
   7   4  -3  585141   62068                                                      602475   -0.15    0.00  1.0000
   7   4  -3  676089   65204                                                      694711   -0.15    0.00  1.0000
   7   4  -2      69   42701                                                      -30305   -0.11    0.00  1.0000
   7   4  -2      69   33326                                                      -24810   -0.11    0.00  1.0000
   7   4  -2      69   70103                                                      -23155   -0.11    0.00  1.0000
   7   4  -2   40232   18610                                                       43636   -0.11    0.00  1.0000
   7   4  -1  228173   49590                                                      215159   -0.19    0.00  1.0000
   7   4  -1  163651   35268                                                      152659   -0.19    0.00  1.0000
   7   4   0  523912   48335                                                      548123   -0.23    0.00  1.0000
   7   4   0  685358   67463                                                      713011   -0.23    0.00  1.0000
   7   4   0  544047   62163                                                      568714   -0.23    0.00  1.0000
   7   4   1  120016   30407                                                      126258   -0.12    0.00  1.0000
   7   4   1   70625   36261                                                       75431   -0.12    0.00  1.0000
   7   4   1  110220   44782                                                      116205   -0.12    0.00  1.0000
   7   4   1  142337   34164                                                      149128   -0.12    0.00  1.0000
   7   4   2 3114324  118051                                                     3108242    0.02    0.00  1.0000
   7   4   2 3255649  145553                                                     3249431    0.02    0.00  1.0000
   7   4   2 3073264  119943                                                     3067222    0.02    0.00  1.0000
   7   4   3 1805126   87899                                                     1814834    0.05    0.00  1.0000
   7   4   3 1814949  112726                                                     1824684    0.05    0.00  1.0000
   7   4   3 1667235   82777                                                     1676565    0.05    0.00  1.0000
   7   4   4  490278   46547                                                      496758   -0.06    0.00  1.0000
   7   4   4  522480   70925                                                      529168   -0.06    0.00  1.0000
   7   4   5  450270   42969                                                      466936   -0.17    0.00  1.0000
   7   4   5  426405   68272                                                      442628   -0.17    0.00  1.0000
   7   4   6 2309732  125975                                                     2275180   -0.16    0.00  1.0000
   7   4   7  946626   77884                                                      957366   -0.08    0.00  1.0000
   7   4   8 1160306   65668                                                     1154750   -0.04    0.00  1.0000
   7   5  -6     866    4299                                                        1531    0.24    0.00  1.0000
   7   5  -5  108500   24346                                                       93447    0.33    0.00  1.0000
   7   5  -4 1993193   89170                                                     2057531    0.31    0.00  1.0000
   7   5  -3 1765474   89009                                                     1723865    0.22    0.00  1.0000
   7   5  -2  340300   51122                                                      354139    0.16    0.00  1.0000
   7   5  -2  385682   45896                                                      400405    0.16    0.00  1.0000
   7   5  -1   48538   33145                                                       41999    0.21    0.00  1.0000
   7   5  -1   61753   74416                                                       54348    0.21    0.00  1.0000
   7   5  -1   49824   16248                                                       43196    0.21    0.00  1.0000
   7   5   0  349281   54519                                                      324864    0.29    0.00  1.0000
   7   5   0  184243   82050                                                      166630    0.29    0.00  1.0000
   7   5   0  250954   36269                                                      230325    0.29    0.00  1.0000
   7   5   1  606471   64091                                                      578099    0.25    0.00  1.0000
   7   5   1  503144   89985                                                      477332    0.25    0.00  1.0000
   7   5   1  583147   57423                                                      555332    0.25    0.00  1.0000
   7   5   2  997191   70285                                                      979497    0.12    0.00  1.0000
   7   5   2  993771   68892                                                      976108    0.12    0.00  1.0000
   7   5   2 1038448   85251                                                     1020391    0.12    0.00  1.0000
   7   5   2 1021409   72421                                                     1003501    0.12    0.00  1.0000
   7   5   3 2415106  108910                                                     2428888    0.06    0.00  1.0000
   7   5   3 2392611   97757                                                     2406328    0.06    0.00  1.0000
   7   5   3 2104973  112799                                                     2117841    0.06    0.00  1.0000
   7   5   3 2367054  123079                                                     2380699    0.06    0.00  1.0000
   7   5   3 2473600  102940                                                     2487548    0.06    0.00  1.0000
   7   5   4 4966476  146494                                                     4911246    0.17    0.00  1.0000
   7   5   4 4853573  175596                                                     4798977    0.17    0.00  1.0000
   7   5   5 3779317  122800                                                     3878915    0.35    0.00  1.0000
   7   5   5 3542095  110458                                                     3638537    0.35    0.00  1.0000
   7   5   5 3564877  160786                                                     3661627    0.35    0.00  1.0000
   7   5   6  329518   65583                                                      295942    0.41    0.00  1.0000
   7   5   7     514   25657                                                      -12632    0.31    0.00  1.0000
   7   5   8 1026209   79153                                                     1050451    0.16    0.00  1.0000
   7   5   9 1021131   54795                                                     1008481    0.09    0.00  1.0000
   7   6  -5  581571   30260                                                      547865   -0.31    0.00  1.0000
   7   6  -4   52214   18819                                                       62617   -0.30    0.00  1.0000
   7   6  -4   87993   17406                                                      101357   -0.30    0.00  1.0000
   7   6  -3     243   24881                                                       -4180   -0.21    0.00  1.0000
   7   6  -3   66108   19955                                                       74353   -0.21    0.00  1.0000
   7   6  -2   85390   28595                                                       79386   -0.14    0.00  1.0000
   7   6  -1  730410   64359                                                      752980   -0.18    0.00  1.0000
   7   6  -1  952903   88625                                                      978658   -0.18    0.00  1.0000
   7   6   0  171889   47669                                                      154598   -0.30    0.00  1.0000
   7   6   0  249827   81060                                                      228889   -0.30    0.00  1.0000
   7   6   0  215798   31662                                                      196369   -0.30    0.00  1.0000
   7   6   1 5567820  169366                                                     5694439   -0.37    0.00  1.0000
   7   6   1 5719645  155437                                                     5847967   -0.37    0.00  1.0000
   7   6   2 1879445   94422                                                     1819434   -0.30    0.00  1.0000
   7   6   2 1796710  105959                                                     1738044   -0.30    0.00  1.0000
   7   6   2 1658043   84483                                                     1601706   -0.30    0.00  1.0000
   7   6   3   43321   16742                                                       49116   -0.19    0.00  1.0000
   7   6   3   57827   27127                                                       64494   -0.19    0.00  1.0000
   7   6   3   44799   77297                                                       50689   -0.19    0.00  1.0000
   7   6   3   28837   27620                                                       33598   -0.19    0.00  1.0000
   7   6   4 1744328   92193                                                     1775144   -0.16    0.00  1.0000
   7   6   4 1889247   84634                                                     1921313   -0.16    0.00  1.0000
   7   6   4 1875772   99787                                                     1907723   -0.16    0.00  1.0000
   7   6   4 1736616  102226                                                     1767364   -0.16    0.00  1.0000
   7   6   5 3808282  124761                                                     3735506   -0.26    0.00  1.0000
   7   6   5 3790642  107561                                                     3718036   -0.26    0.00  1.0000
   7   6   5 3839057  149241                                                     3765986   -0.26    0.00  1.0000
   7   6   6 1029896   86885                                                     1083470   -0.36    0.00  1.0000
   7   6   7  552387   70776                                                      515726   -0.35    0.00  1.0000
   7   6   8     291   38839                                                      -24362   -0.23    0.00  1.0000
   7   6   9  125360   33128                                                      131991   -0.13    0.00  1.0000
   7   7  -3   11911    6383                                                       10250    0.12    0.00  1.0000
   7   7  -3      73   12396                                                      -37245    0.12    0.00  1.0000
   7   7  -2    9868   20492                                                       10357    0.03    0.00  1.0000
   7   7  -2       6   16893                                                      -36485    0.03    0.00  1.0000
   7   7  -1   62056   22281                                                       61537    0.01    0.00  1.0000
   7   7   0  390293   47877                                                      382708    0.08    0.00  1.0000
   7   7   1 2001477   95883                                                     1964892    0.18    0.00  1.0000
   7   7   2 2780055  115379                                                     2830464    0.21    0.00  1.0000
   7   7   2 3276921  135536                                                     3331630    0.21    0.00  1.0000
   7   7   3 2528182  104143                                                     2493278    0.15    0.00  1.0000
   7   7   3 3129118  126560                                                     3090272    0.15    0.00  1.0000
   7   7   4  565572   54483                                                      574944    0.09    0.00  1.0000
   7   7   4  506654   51121                                                      515526    0.09    0.00  1.0000
   7   7   5  184762   31942                                                      189709    0.08    0.00  1.0000
   7   7   5  130402   37164                                                      134563    0.08    0.00  1.0000
   7   7   6  309732   32780                                                      300543    0.11    0.00  1.0000
   7   7   6  319464   45170                                                      310131    0.11    0.00  1.0000
   7   7   7 2065092   98721                                                     2091221    0.12    0.00  1.0000
   7   7   8 1449559   79249                                                     1435087    0.08    0.00  1.0000
   7   7   9  445652   39553                                                      448571    0.03    0.00  1.0000
   7   8  -2  177579   22334                                                      175794    0.03    0.00  1.0000
   7   8  -1       4   22552                                                      -24724    0.03    0.00  1.0000
   7   8   0 1199850   64929                                                     1200229    0.00    0.00  1.0000
   7   8   1   12073   16724                                                       11424   -0.04    0.00  1.0000
   7   8   2  357970   43635                                                      352335   -0.07    0.00  1.0000
   7   8   3 2759526  102716                                                     2776395   -0.07    0.00  1.0000
   7   8   4 4045314  120932                                                     4025084   -0.07    0.00  1.0000
   7   8   5 1155648   63511                                                     1166699   -0.07    0.00  1.0000
   7   8   6  414461   39735                                                      409225   -0.06    0.00  1.0000
   7   8   7  199386   29925                                                      199060   -0.01    0.00  1.0000
   7   8   8  629690   42786                                                      621635    0.07    0.00  1.0000
   7   9   0 3316430   76184                                                     3300250    0.06    0.00  1.0000
   7   9   1 2613643   77705                                                     2627426    0.06    0.00  1.0000
   7   9   2  697565   45795                                                      694025    0.03    0.00  1.0000
   7   9   3   38107   15423                                                       37744    0.01    0.00  1.0000
   7   9   4  755569   50878                                                      760723    0.04    0.00  1.0000
   7   9   5  271757   32003                                                      264998    0.09    0.00  1.0000
   7   9   6  890166   53061                                                      903815    0.10    0.00  1.0000
   7   9   7  411862   33166                                                      409049    0.03    0.00  1.0000
   7   9   8  145647   20692                                                      141013   -0.08    0.00  1.0000
   7  10   2  366997   25035                                                      363148    0.04    0.00  1.0000
   7  10   3  767411   37206                                                      779300    0.09    0.00  1.0000
   7  10   4   57574   16378                                                       54889    0.08    0.00  1.0000
   7  10   5   13976   14618                                                       13900    0.00    0.00  1.0000
   7  10   6 1130818   48523                                                     1121720   -0.06    0.00  1.0000
   7  10   7 1246259   48297                                                     1253509   -0.04    0.00  1.0000
   8  -1  -4  411325   51473                                                      421900    0.11    0.00  1.0000
   8  -1  -3   68335   50283                                                       69380   -0.03    0.00  1.0000
   8  -1  -2  388222   40653                                                      394527   -0.07    0.00  1.0000
   8  -1  -1  313661   39540                                                      312412   -0.02    0.00  1.0000
   8  -1   0  411606   40593                                                      411577    0.00    0.00  1.0000
   8  -1   1  337832   36030                                                      330331   -0.09    0.00  1.0000
   8   0  -5  134060   52604                                                      164554   -0.55    0.00  1.0000
   8   0  -4  551443   62568                                                      473819   -0.75    0.00  1.0000
   8   0  -3 1299014   79556                                                     1407357   -0.64    0.00  1.0000
   8   0  -2 1278406   63901                                                     1225159   -0.33    0.00  1.0000
   8   0  -1  612996   55431                                                      614612   -0.01    0.00  1.0000
   8   0   1   20416   42837                                                       26576    0.28    0.00  1.0000
   8   0   2  374680   50274                                                      350688    0.27    0.00  1.0000
   8   0   3 1235827   61663                                                     1262429    0.16    0.00  1.0000
   8   1  -5  696161   66264                                                      809687    0.90    0.00  1.0000
   8   1  -4  220875   61092                                                      130224    1.50    0.00  1.0000
   8   1  -4   11915   48490                                                      -54704    1.50    0.00  1.0000
   8   1  -3  545742   67690                                                      376930    1.72    0.00  1.0000
   8   1  -2 1079360   68896                                                     1295658    1.37    0.00  1.0000
   8   1  -1 1476145   72911                                                     1368118    0.62    0.00  1.0000
   8   1   0  391849   56380                                                      378322   -0.15    0.00  1.0000
   8   1   1  387288   63696                                                      448510   -0.65    0.00  1.0000
   8   1   2  239105   59285                                                      187469   -0.77    0.00  1.0000
   8   1   3   62705   53725                                                       43696   -0.57    0.00  1.0000
   8   1   4  110943   48599                                                      122068   -0.22    0.00  1.0000
   8   2  -5  123260   22460                                                       87181   -0.78    0.00  1.0000
   8   2  -4  217794   64503                                                      327030   -1.45    0.00  1.0000
   8   2  -4   86381   26329                                                      159229   -1.45    0.00  1.0000
   8   2  -3   19353   61750                                                      -63313   -1.91    0.00  1.0000
   8   2  -2  144160   65105                                                      261396   -1.81    0.00  1.0000
   8   2  -1  595615   62153                                                      728033   -1.12    0.00  1.0000
   8   2   0  982552   71371                                                      960228   -0.16    0.00  1.0000
   8   2   1 2112331   96746                                                     1974142    0.67    0.00  1.0000
   8   2   2 2558899  114896                                                     2811915    1.06    0.00  1.0000
   8   2   3  122829   61549                                                       77158    1.00    0.00  1.0000
   8   3  -5  394705   40704                                                      423528    0.31    0.00  1.0000
   8   3  -4 2772195   87744                                                     2577727    0.82    0.00  1.0000
   8   3  -4 3020615  109748                                                     2817465    0.82    0.00  1.0000
   8   3  -3 2305462   92026                                                     2586317    1.24    0.00  1.0000
   8   3  -3 2470278   90412                                                     2760715    1.24    0.00  1.0000
   8   3  -2 1625830   79226                                                     1400777    1.26    0.00  1.0000
   8   3  -2 1721207   76523                                                     1489407    1.26    0.00  1.0000
   8   3  -2 1511699   88907                                                     1294988    1.26    0.00  1.0000
   8   3  -1  557864   66448                                                      651429    0.83    0.00  1.0000
   8   3   0  755491   62410                                                      736064    0.15    0.00  1.0000
   8   3   1  117655   49982                                                       95682   -0.46    0.00  1.0000
   8   3   2  292569   54593                                                      231924   -0.82    0.00  1.0000
   8   3   3  254282   60423                                                      321129   -0.86    0.00  1.0000
   8   3   4  617047   71153                                                      542087   -0.68    0.00  1.0000
   8   3   4  495901   60774                                                      428951   -0.68    0.00  1.0000
   8   3   5  935324   60888                                                      995647   -0.42    0.00  1.0000
   8   4  -5  562651   38306                                                      549562    0.12    0.00  1.0000
   8   4  -4  190111   34330                                                      175946   -0.23    0.00  1.0000
   8   4  -3   96215   32347                                                      124650   -0.59    0.00  1.0000
   8   4  -3  183488   53935                                                      222055   -0.59    0.00  1.0000
   8   4  -2  130816   50276                                                      168554   -0.67    0.00  1.0000
   8   4  -2  123365   37366                                                      160082   -0.67    0.00  1.0000
   8   4  -2  164639   68037                                                      206687   -0.67    0.00  1.0000
   8   4  -1  425524   51739                                                      386266   -0.42    0.00  1.0000
   8   4  -1  503894   83963                                                      461090   -0.42    0.00  1.0000
   8   4   0 1073467   64454                                                     1080700   -0.05    0.00  1.0000
   8   4   0  916839   95790                                                      923525   -0.05    0.00  1.0000
   8   4   3     479   78967                                                      -89549    0.30    0.00  1.0000
   8   4   3  176110   46136                                                      158237    0.30    0.00  1.0000
   8   4   4   38564   61917                                                       45976    0.25    0.00  1.0000
   8   4   4  200304   43707                                                      216784    0.25    0.00  1.0000
   8   4   5 1608221   89831                                                     1575666    0.18    0.00  1.0000
   8   4   6 1525428   77016                                                     1544176    0.10    0.00  1.0000
   8   4   7  912332   45803                                                      904661    0.06    0.00  1.0000
   8   5  -4  521762   38300                                                      504227   -0.17    0.00  1.0000
   8   5  -3  300061   39932                                                      292016    0.10    0.00  1.0000
   8   5  -2   12343   21253                                                       16750    0.26    0.00  1.0000
   8   5  -2   51866   62560                                                       60561    0.26    0.00  1.0000
   8   5  -1   57560   32913                                                       52082    0.16    0.00  1.0000
   8   5  -1   84214   72534                                                       77559    0.16    0.00  1.0000
   8   5   0  116268   29296                                                      117764   -0.03    0.00  1.0000
   8   5   0  112277   81344                                                      113747   -0.03    0.00  1.0000
   8   5   1 1781574   80308                                                     1766724   -0.08    0.00  1.0000
   8   5   1 1748576  108121                                                     1733864   -0.08    0.00  1.0000
   8   5   2 1115088   95119                                                     1107260    0.05    0.00  1.0000
   8   5   3  496276   79882                                                      514218    0.17    0.00  1.0000
   8   5   3  694902   67320                                                      716104    0.17    0.00  1.0000
   8   5   4  118873   61821                                                      111120    0.16    0.00  1.0000
   8   5   4  207549   42615                                                      197262    0.16    0.00  1.0000
   8   5   5  286354   54995                                                      281759    0.06    0.00  1.0000
   8   5   6  468695   54954                                                      469243    0.01    0.00  1.0000
   8   5   7 1137280   67614                                                     1133820    0.02    0.00  1.0000
   8   6  -3  401635   33219                                                      385310    0.18    0.00  1.0000
   8   6  -2  264407   36746                                                      268256    0.05    0.00  1.0000
   8   6  -1  317357   37564                                                      310597    0.08    0.00  1.0000
   8   6   0   57277   22642                                                       65195    0.22    0.00  1.0000
   8   6   0  100745   80338                                                      111163    0.22    0.00  1.0000
   8   6   1  244022   34827                                                      260621    0.23    0.00  1.0000
   8   6   1  382678   83754                                                      403395    0.23    0.00  1.0000
   8   6   2  163523   29049                                                      163635    0.00    0.00  1.0000
   8   6   2  260294   80086                                                      260435    0.00    0.00  1.0000
   8   6   3  704749   46387                                                      671554   -0.28    0.00  1.0000
   8   6   3  947332   82041                                                      908782   -0.28    0.00  1.0000
   8   6   4 4842848  118445                                                     4951785   -0.34    0.00  1.0000
   8   6   4 4437109  143805                                                     4541409   -0.34    0.00  1.0000
   8   6   5 4667500  148141                                                     4612898   -0.17    0.00  1.0000
   8   6   6 1776417   96354                                                     1774784    0.01    0.00  1.0000
   8   6   7   30307   23647                                                       29032    0.05    0.00  1.0000
   8   7  -2   42610   13041                                                       42426   -0.01    0.00  1.0000
   8   7  -1  601595   42417                                                      598916    0.02    0.00  1.0000
   8   7   0 2104164   78456                                                     2084151   -0.10    0.00  1.0000
   8   7   1 1183899   64580                                                     1214449   -0.19    0.00  1.0000
   8   7   2  603127   47528                                                      595661   -0.07    0.00  1.0000
   8   7   3   87964   23185                                                       78257    0.23    0.00  1.0000
   8   7   4  286112   30977                                                      253723    0.43    0.00  1.0000
   8   7   5  312526   39210                                                      341657    0.35    0.00  1.0000
   8   7   6  402958   42991                                                      392763    0.11    0.00  1.0000
   8   7   7  165652   27385                                                      162400   -0.06    0.00  1.0000
   8   8  -1    1911    9188                                                        3603   -0.22    0.00  1.0000
   8   8   0  234155   24523                                                      219249   -0.22    0.00  1.0000
   8   8   1  169663   29203                                                      177632   -0.13    0.00  1.0000
   8   8   2  558722   41664                                                      544025   -0.14    0.00  1.0000
   8   8   3 1864628   70524                                                     1925723   -0.31    0.00  1.0000
   8   8   4  698137   41106                                                      638795   -0.50    0.00  1.0000
   8   8   5    3825   16257                                                        9666   -0.51    0.00  1.0000
   8   9   1  193988   18346                                                      200581    0.10    0.00  1.0000
   8   9   2   13273   15125                                                       15124    0.11    0.00  1.0000
   8   9   3 1097241   45341                                                     1065050    0.21    0.00  1.0000
   8   9   4 1158529   49217                                                     1214619    0.35    0.00  1.0000
   8   9   5  820127   37527                                                      767966    0.40    0.00  1.0000
   9   2  -2   41394   37905                                                       58397    0.54    0.00  1.0000
   9   2  -2    1520   45798                                                      -46833    0.54    0.00  1.0000
   9   2  -1  156348   42151                                                      125408    0.57    0.00  1.0000
   9   2  -1    1722   66535                                                        -902    0.57    0.00  1.0000
   9   2   0 1872712   70219                                                     1968372    0.47    0.00  1.0000
   9   2   0 1714483   93515                                                     1806064    0.47    0.00  1.0000
   9   2   1  938238   49477                                                      895685    0.31    0.00  1.0000
   9   2   1  551232   68299                                                      518730    0.31    0.00  1.0000
   9   3  -2  418878   47340                                                      486477   -0.69    0.00  1.0000
   9   3  -1  169148   36161                                                      124314   -0.81    0.00  1.0000
   9   3  -1  100323   58734                                                       66586   -0.81    0.00  1.0000
   9   3   0  630804   46218                                                      554253   -0.68    0.00  1.0000
   9   3   0  764694   76020                                                      680160   -0.68    0.00  1.0000
   9   3   1  901507   51213                                                      958856   -0.41    0.00  1.0000
   9   3   1  978703   81708                                                     1038421   -0.41    0.00  1.0000
   9   3   2 1682760   76503                                                     1657185   -0.14    0.00  1.0000
   9   4  -2  887374   47011                                                      843839    0.32    0.00  1.0000
   9   4  -1 2530406   78003                                                     2672986    0.61    0.00  1.0000
   9   4   0  348483   61269                                                      288214    0.74    0.00  1.0000
   9   4   1    2128   63239                                                      -61010    0.63    0.00  1.0000
   9   4   2  794231   66707                                                      843683    0.38    0.00  1.0000
   9   4   3 1000260   55922                                                      982912    0.12    0.00  1.0000
   9   5  -1 1807485   65572                                                     1725704   -0.42    0.00  1.0000
   9   5   0 1147368   66947                                                     1271539   -0.78    0.00  1.0000
   9   5   1 1426490   70214                                                     1260989   -0.98    0.00  1.0000
   9   5   2   18529   51887                                                       39461   -0.90    0.00  1.0000
   9   5   3  295129   50781                                                      342167   -0.57    0.00  1.0000
   9   6   0  577229   35610                                                      505598    0.67    0.00  1.0000
   9   6   1 2371726   82335                                                     2621076    1.09    0.00  1.0000
   9   6   2 1620080   68268                                                     1396297    1.26    0.00  1.0000
   0   0   0    8348       0                                                           0    1.26    0.00  1.0000
;
_shelx_hkl_checksum              1188
_platon_squeeze_void_probe_radius 1.20
loop_
_space_group_symop_operation_xyz
'x, y, z'
'-x, -y, -z'
loop_
_atom_site_label
_atom_site_type_symbol
_atom_site_fract_x
_atom_site_fract_y
_atom_site_fract_z
_atom_site_U_iso_or_equiv
_atom_site_adp_type
_atom_site_occupancy
_atom_site_site_symmetry_order
_atom_site_calc_flag
_atom_site_refinement_flags_posn
_atom_site_refinement_flags_adp
Cu1 Cu 0.84578(5) 0.17582(5) 0.41737(4) 0.02225(13) Uani 1 1 d . .
N3 N 0.8233(3) 0.3212(3) 0.5181(2) 0.0223(4) Uani 1 1 d . .
N2 N 1.0941(3) 0.1119(3) 0.3463(2) 0.0241(4) Uani 1 1 d . .
N1 N 0.6528(3) 0.1393(3) 0.3477(2) 0.0247(4) Uani 1 1 d . .
C2 C 0.4110(3) 0.0864(3) 0.2376(2) 0.0198(5) Uani 1 1 d . .
C4 C 0.4549(3) 0.0444(3) 0.1159(2) 0.0193(5) Uani 1 1 d . .
C6 C 0.3246(3) 0.0166(3) 0.0526(2) 0.0210(5) Uani 1 1 d . .
H6 H 0.2054 0.0287 0.0863 0.025 Uiso 1 1 calc R U
C1 C 0.5419(3) 0.1152(3) 0.2992(2) 0.0204(5) Uani 1 1 d . .
C3 C 1.2376(3) 0.1012(3) 0.2961(2) 0.0200(5) Uani 1 1 d . .
C7 C 0.9134(4) 0.2479(3) 0.6482(3) 0.0256(5) Uani 1 1 d . .
H7 H 0.9767 0.1283 0.6921 0.031 Uiso 1 1 calc R U
C5 C 0.6311(3) 0.0283(3) 0.0590(2) 0.0214(5) Uani 1 1 d . .
H5 H 0.7201 0.0483 0.0972 0.026 Uiso 1 1 calc R U
C11 C 0.7313(4) 0.4951(3) 0.4546(3) 0.0263(5) Uani 1 1 d . .
C8 C 0.9166(4) 0.3416(4) 0.7202(3) 0.0324(6) Uani 1 1 d . .
H8 H 0.9806 0.2867 0.8101 0.039 Uiso 1 1 calc R U
C9 C 0.8216(4) 0.5193(4) 0.6543(3) 0.0365(7) Uani 1 1 d . .
H9 H 0.8206 0.5864 0.6996 0.044 Uiso 1 1 calc R U
C10 C 0.7290(4) 0.5959(3) 0.5220(3) 0.0335(6) Uani 1 1 d . .
H10 H 0.6645 0.7154 0.4771 0.040 Uiso 1 1 calc R U
C12 C 0.6352(4) 0.5731(4) 0.3092(3) 0.0379(7) Uani 1 1 d . .
H12A H 0.5752 0.6964 0.2753 0.057 Uiso 1 1 calc R U
H12B H 0.7289 0.5434 0.2480 0.057 Uiso 1 1 calc R U
H12C H 0.5396 0.5295 0.3109 0.057 Uiso 1 1 calc R U
loop_
_atom_site_aniso_label
_atom_site_aniso_U_11
_atom_site_aniso_U_22
_atom_site_aniso_U_33
_atom_site_aniso_U_23
_atom_site_aniso_U_13
_atom_site_aniso_U_12
Cu1 0.0196(2) 0.0281(2) 0.0262(2) -0.01587(16) 0.00294(14) -0.01184(15)
N3 0.0185(10) 0.0220(10) 0.0298(11) -0.0133(9) 0.0041(8) -0.0091(8)
N2 0.0215(11) 0.0350(12) 0.0291(11) -0.0232(10) 0.0079(9) -0.0149(9)
N1 0.0203(10) 0.0370(12) 0.0271(11) -0.0212(10) 0.0060(8) -0.0139(9)
C2 0.0197(12) 0.0236(11) 0.0206(11) -0.0118(10) 0.0021(9) -0.0105(9)
C4 0.0191(11) 0.0195(11) 0.0202(11) -0.0098(9) 0.0002(9) -0.0068(9)
C6 0.0172(11) 0.0286(12) 0.0230(12) -0.0144(10) 0.0052(9) -0.0116(10)
C1 0.0203(12) 0.0226(11) 0.0188(11) -0.0113(10) 0.0053(9) -0.0071(9)
C3 0.0254(13) 0.0205(11) 0.0193(11) -0.0117(9) -0.0009(9) -0.0099(9)
C7 0.0254(13) 0.0220(12) 0.0314(14) -0.0132(11) 0.0005(10) -0.0090(10)
C5 0.0201(12) 0.0268(12) 0.0237(12) -0.0139(10) 0.0014(9) -0.0121(10)
C11 0.0198(12) 0.0240(12) 0.0352(14) -0.0134(11) 0.0082(10) -0.0090(10)
C8 0.0340(15) 0.0353(15) 0.0374(15) -0.0240(13) 0.0014(12) -0.0132(12)
C9 0.0451(17) 0.0326(14) 0.0459(17) -0.0283(14) 0.0088(13) -0.0174(13)
C10 0.0310(15) 0.0237(13) 0.0501(17) -0.0199(13) 0.0122(13) -0.0119(11)
C12 0.0368(16) 0.0302(15) 0.0382(16) -0.0071(13) -0.0006(13) -0.0123(12)
loop_
_atom_type_symbol
_atom_type_description
_atom_type_scat_dispersion_real
_atom_type_scat_dispersion_imag
_atom_type_scat_source
C C 0.0181 0.0091 'International Tables Vol C Tables 4.2.6.8 and 6.1.1.4'
H H 0.0000 0.0000 'International Tables Vol C Tables 4.2.6.8 and 6.1.1.4'
N N 0.0311 0.0180 'International Tables Vol C Tables 4.2.6.8 and 6.1.1.4'
Cu Cu -1.9646 0.5888 'International Tables Vol C Tables 4.2.6.8 and 6.1.1.4'
O O 0.0492 0.0322 'International Tables Vol C Tables 4.2.6.8 and 6.1.1.4'
loop_
_geom_angle_atom_site_label_1
_geom_angle_atom_site_label_2
_geom_angle_atom_site_label_3
_geom_angle
_geom_angle_site_symmetry_1
_geom_angle_site_symmetry_3
N1 Cu1 N2 117.09(8) . .
N1 Cu1 N3 130.09(8) . .
N2 Cu1 N3 111.05(8) . .
N1 Cu1 Cu1 106.42(7) . 2_756
N2 Cu1 Cu1 61.14(7) . 2_756
N3 Cu1 Cu1 107.49(6) . 2_756
C7 N3 C11 118.3(2) . .
C7 N3 Cu1 120.01(16) . .
C11 N3 Cu1 121.50(17) . .
C3 N2 Cu1 169.1(2) . .
C1 N1 Cu1 175.92(19) . .
C3 C2 C1 116.9(2) 1_455 .
C3 C2 C4 122.0(2) 1_455 .
C1 C2 C4 121.1(2) . .
C6 C4 C5 117.0(2) . .
C6 C4 C2 121.7(2) . .
C5 C4 C2 121.3(2) . .
C5 C6 C4 121.5(2) 2_655 .
C5 C6 H6 119.2 2_655 .
C4 C6 H6 119.2 . .
N1 C1 C2 178.5(2) . .
N2 C3 C2 179.2(3) . 1_655
N3 C7 C8 123.3(2) . .
N3 C7 H7 118.4 . .
C8 C7 H7 118.4 . .
C6 C5 C4 121.5(2) 2_655 .
C6 C5 H5 119.2 2_655 .
C4 C5 H5 119.2 . .
N3 C11 C10 121.0(2) . .
N3 C11 C12 117.1(2) . .
C10 C11 C12 121.9(2) . .
C9 C8 C7 117.9(3) . .
C9 C8 H8 121.0 . .
C7 C8 H8 121.0 . .
C10 C9 C8 119.5(2) . .
C10 C9 H9 120.2 . .
C8 C9 H9 120.2 . .
C9 C10 C11 120.0(2) . .
C9 C10 H10 120.0 . .
C11 C10 H10 120.0 . .
C11 C12 H12A 109.5 . .
C11 C12 H12B 109.5 . .
H12A C12 H12B 109.5 . .
C11 C12 H12C 109.5 . .
H12A C12 H12C 109.5 . .
H12B C12 H12C 109.5 . .
loop_
_geom_bond_atom_site_label_1
_geom_bond_atom_site_label_2
_geom_bond_distance
_geom_bond_site_symmetry_2
Cu1 N1 1.896(2) .
Cu1 N2 1.937(2) .
Cu1 N3 1.998(2) .
Cu1 Cu1 3.0077(8) 2_756
N3 C7 1.344(3) .
N3 C11 1.352(3) .
N2 C3 1.162(3) .
N1 C1 1.159(3) .
C2 C3 1.393(3) 1_455
C2 C1 1.397(3) .
C2 C4 1.468(3) .
C4 C6 1.397(3) .
C4 C5 1.404(3) .
C6 C5 1.381(3) 2_655
C6 H6 0.9300 .
C3 C2 1.393(3) 1_655
C7 C8 1.384(3) .
C7 H7 0.9300 .
C5 C6 1.381(3) 2_655
C5 H5 0.9300 .
C11 C10 1.390(4) .
C11 C12 1.493(4) .
C8 C9 1.382(4) .
C8 H8 0.9300 .
C9 C10 1.368(4) .
C9 H9 0.9300 .
C10 H10 0.9300 .
C12 H12A 0.9600 .
C12 H12B 0.9600 .
C12 H12C 0.9600 .
loop_
_platon_squeeze_void_nr
_platon_squeeze_void_average_x
_platon_squeeze_void_average_y
_platon_squeeze_void_average_z
_platon_squeeze_void_volume
_platon_squeeze_void_count_electrons
_platon_squeeze_void_content
1 -0.128 0.500 0.000 112 29 ' '
