#------------------------------------------------------------------------------
#$Date: 2015-06-04 06:32:09 +0300 (Thu, 04 Jun 2015) $
#$Revision: 137844 $
#$URL: svn://www.crystallography.net/cod/cif/4/51/31/4513148.cif $
#------------------------------------------------------------------------------
#
# This file is available in the Crystallography Open Database (COD),
# http://www.crystallography.net/
#
# All data on this site have been placed in the public domain by the
# contributors.
#
data_4513148
loop_
_publ_author_name
'Abrahams, Brendan F.'
'Elliott, Robert W.'
'Hudson, Timothy A.'
'Robson, Richard'
'Sutton, Ashley L.'
_publ_section_title
;
 New CuI2(TCNQ--II) and CuI2(F4TCNQ--II) Coordination Polymers
;
_journal_issue                   5
_journal_name_full               'Crystal Growth &amp; Design'
_journal_page_first              2437
_journal_paper_doi               10.1021/acs.cgd.5b00220
_journal_volume                  15
_journal_year                    2015
_chemical_formula_sum            'C34 H22 Cu2 N6'
_chemical_formula_weight         641.65
_space_group_crystal_system      triclinic
_space_group_IT_number           2
_space_group_name_Hall           '-P 1'
_space_group_name_H-M_alt        'P -1'
_symmetry_space_group_name_Hall  '-P 1'
_symmetry_space_group_name_H-M   'P -1'
_atom_sites_solution_hydrogens   geom
_audit_creation_method           SHELXL-2014/6
_cell_angle_alpha                93.423(5)
_cell_angle_beta                 95.079(4)
_cell_angle_gamma                111.742(6)
_cell_formula_units_Z            1
_cell_length_a                   7.7912(5)
_cell_length_b                   9.5338(7)
_cell_length_c                   9.9023(4)
_cell_measurement_reflns_used    2703
_cell_measurement_temperature    130(2)
_cell_measurement_theta_max      73.7739
_cell_measurement_theta_min      4.5017
_cell_volume                     677.12(8)
_computing_cell_refinement
;
CrysAlisPro, Agilent Technologies,
Version 1.171.36.20 (release 27-06-2012 CrysAlis171 .NET)
(compiled Jul 11 2012,15:38:31)
;
_computing_data_collection
;
CrysAlisPro, Agilent Technologies,
Version 1.171.36.20 (release 27-06-2012 CrysAlis171 .NET)
(compiled Jul 11 2012,15:38:31)
;
_computing_data_reduction
;
CrysAlisPro, Agilent Technologies,
Version 1.171.36.20 (release 27-06-2012 CrysAlis171 .NET)
(compiled Jul 11 2012,15:38:31)
;
_computing_structure_refinement  'SHELXL-97 (Sheldrick, 1997)'
_computing_structure_solution    'SHELXS-97 (Sheldrick, 1997)'
_diffrn_ambient_temperature      130(2)
_diffrn_detector_area_resol_mean 10.2273
_diffrn_measured_fraction_theta_full 0.998
_diffrn_measured_fraction_theta_max 0.990
_diffrn_measurement_device_type  'SuperNova, Dual, Cu at zero, Atlas'
_diffrn_measurement_method       '\w scans'
_diffrn_radiation_monochromator  mirror
_diffrn_radiation_source         'SuperNova (Cu) X-ray Source'
_diffrn_radiation_type           CuK\a
_diffrn_radiation_wavelength     1.54184
_diffrn_reflns_av_R_equivalents  0.0149
_diffrn_reflns_av_unetI/netI     0.0196
_diffrn_reflns_laue_measured_fraction_full 0.998
_diffrn_reflns_laue_measured_fraction_max 0.990
_diffrn_reflns_limit_h_max       8
_diffrn_reflns_limit_h_min       -9
_diffrn_reflns_limit_k_max       11
_diffrn_reflns_limit_k_min       -10
_diffrn_reflns_limit_l_max       11
_diffrn_reflns_limit_l_min       -12
_diffrn_reflns_number            4497
_diffrn_reflns_point_group_measured_fraction_full 0.998
_diffrn_reflns_point_group_measured_fraction_max 0.990
_diffrn_reflns_theta_full        67.684
_diffrn_reflns_theta_max         69.999
_diffrn_reflns_theta_min         4.505
_exptl_absorpt_coefficient_mu    2.222
_exptl_absorpt_correction_T_max  0.850
_exptl_absorpt_correction_T_min  0.573
_exptl_absorpt_correction_type   analytical
_exptl_absorpt_process_details
;
CrysAlisPro, Agilent Technologies,
Version 1.171.36.20 (release 27-06-2012 CrysAlis171 .NET)
(compiled Jul 11 2012,15:38:31)
Analytical numeric absorption correction using a multifaceted crystal model based on expressions derived by R.C. Clark & J.S. Reid. (Clark, R. C. & Reid, J. S. (1995). Acta Cryst. A51, 887-897)
;
_exptl_crystal_colour            yellow
_exptl_crystal_density_diffrn    1.574
_exptl_crystal_description       plate
_exptl_crystal_F_000             326
_exptl_crystal_size_max          0.47
_exptl_crystal_size_mid          0.16
_exptl_crystal_size_min          0.08
_refine_diff_density_max         0.370
_refine_diff_density_min         -0.504
_refine_diff_density_rms         0.066
_refine_ls_extinction_method     none
_refine_ls_goodness_of_fit_ref   1.061
_refine_ls_hydrogen_treatment    constr
_refine_ls_matrix_type           full
_refine_ls_number_parameters     190
_refine_ls_number_reflns         2550
_refine_ls_number_restraints     0
_refine_ls_restrained_S_all      1.061
_refine_ls_R_factor_all          0.0405
_refine_ls_R_factor_gt           0.0378
_refine_ls_shift/su_max          0.000
_refine_ls_shift/su_mean         0.000
_refine_ls_structure_factor_coef Fsqd
_refine_ls_weighting_details
'w=1/[\s^2^(Fo^2^)+(0.0541P)^2^+0.8383P] where P=(Fo^2^+2Fc^2^)/3'
_refine_ls_weighting_scheme      calc
_refine_ls_wR_factor_gt          0.1043
_refine_ls_wR_factor_ref         0.1069
_reflns_Friedel_coverage         0.000
_reflns_number_gt                2367
_reflns_number_total             2550
_reflns_threshold_expression     'I > 2\s(I)'
_cod_data_source_file            cg5b00220_si_002.cif
_cod_data_source_block           Cu2(TCNQ)(4-phenylpyridine)2
_cod_depositor_comments
;
The following automatic conversions were performed:
'__computing_data_collection' tag replaced with
'_computing_data_collection' tag.

Automatic conversion script
Id: cif_correct_tags 3376 2015-05-07 07:48:27Z andrius 
;
_cod_database_code               4513148
_shelx_space_group_comment
;
The symmetry employed for this shelxl refinement is uniquely defined
by the following loop, which should always be used as a source of
symmetry information in preference to the above space-group names.
They are only intended as comments.
;
_shelxl_version_number           2014/6
_shelx_res_file
;
TITL phenylpyridine in P-1
CELL  1.54184   7.7912   9.5338   9.9023   93.423   95.079  111.742
ZERR     1.00   0.0005   0.0007   0.0004    0.005    0.004    0.006
LATT   1
SFAC  C    H    N    CU
UNIT  34   22   6    2
MERG   2
OMIT    -4.00 140.00
FMAP   2
PLAN   20
ACTA
BOND   $H
L.S.   4
WGHT    0.054100    0.838300
FVAR       9.32382
MOLE    1
CU1   4    0.149603    0.672354    0.497019    11.00000    0.02427    0.05965 =
         0.02377   -0.01628   -0.00334    0.02166
N1    3   -0.104176    0.606062    0.411227    11.00000    0.02280    0.03867 =
         0.01759   -0.00864   -0.00178    0.01374
N2    3    0.354517    0.669137    0.409888    11.00000    0.02396    0.04839 =
         0.01790   -0.00698   -0.00209    0.01719
N3    3    0.172462    0.777646    0.682427    11.00000    0.02421    0.04712 =
         0.02398   -0.01319   -0.00462    0.01838
C1    1   -0.242572    0.606738    0.357908    11.00000    0.02334    0.02466 =
         0.01412   -0.00376    0.00317    0.00796
C3    1    0.467413    0.641203    0.358521    11.00000    0.01997    0.02792 =
         0.01329   -0.00162   -0.00264    0.00757
C4    1   -0.453121    0.553379    0.140905    11.00000    0.01863    0.02389 =
         0.01416   -0.00086    0.00204    0.00479
C2    1   -0.405888    0.604423    0.286983    11.00000    0.01891    0.02619 =
         0.01467   -0.00198    0.00015    0.00772
C5    1   -0.615173    0.553063    0.067491    11.00000    0.01741    0.03035 =
         0.01923   -0.00232    0.00337    0.00933
AFIX  43
H5    2   -0.693801    0.588575    0.111689    11.00000   -1.20000
AFIX   0
C6    1   -0.338924    0.498959    0.069523    11.00000    0.01759    0.03377 =
         0.01859   -0.00169   -0.00051    0.01039
AFIX  43
H6    2   -0.230003    0.497817    0.115275    11.00000   -1.20000
AFIX   0
C12   1    0.206313    0.981844    1.088709    11.00000    0.02168    0.02789 =
         0.02237   -0.00467   -0.00299    0.01279
C9    1    0.194854    0.912970    0.948102    11.00000    0.02102    0.03167 =
         0.02298   -0.00595   -0.00266    0.01377
C15   1    0.228576    1.110180    1.354123    11.00000    0.03793    0.03237 =
         0.02054   -0.00486    0.00014    0.01614
AFIX  43
H15   2    0.235618    1.153293    1.442216    11.00000   -1.20000
AFIX   0
C7    1    0.064823    0.705127    0.772486    11.00000    0.06222    0.03077 =
         0.02699   -0.00951    0.00307    0.00908
AFIX  43
H7    2   -0.020760    0.607114    0.745942    11.00000   -1.20000
AFIX   0
C8    1    0.072662    0.767116    0.903855    11.00000    0.06861    0.02788 =
         0.02475   -0.00456    0.00789    0.00646
AFIX  43
H8    2   -0.005241    0.709901    0.963010    11.00000   -1.20000
AFIX   0
C13   1    0.106010    0.900380    1.183871    11.00000    0.08098    0.04173 =
         0.04343   -0.02408    0.03244   -0.02801
AFIX  43
H13   2    0.028129    0.799520    1.159601    11.00000   -1.20000
AFIX   0
C11   1    0.289715    0.918688    0.724917    11.00000    0.05287    0.07051 =
         0.03600   -0.02426    0.02220   -0.01303
AFIX  43
H11   2    0.367360    0.972964    0.664196    11.00000   -1.20000
AFIX   0
C10   1    0.303181    0.989095    0.852926    11.00000    0.05684    0.05588 =
         0.03959   -0.02585    0.02010   -0.01906
AFIX  43
H10   2    0.386040    1.088831    0.875374    11.00000   -1.20000
AFIX   0
C17   1    0.318309    1.129645    1.129629    11.00000    0.10079    0.02551 =
         0.02555   -0.00152    0.01799    0.00260
AFIX  43
H17   2    0.388048    1.188964    1.067626    11.00000   -1.20000
AFIX   0
C16   1    0.330173    1.192850    1.261116    11.00000    0.11394    0.02419 =
         0.03116   -0.00759    0.01668   -0.00060
AFIX  43
H16   2    0.408752    1.293342    1.286340    11.00000   -1.20000
AFIX   0
C14   1    0.117254    0.964023    1.315485    11.00000    0.07896    0.04781 =
         0.03581   -0.01420    0.02951   -0.01665
AFIX  43
H14   2    0.047391    0.905444    1.377839    11.00000   -1.20000
AFIX   0
HKLF    4

REM  thm764phpyrB in P-1
REM R1 =  0.0378 for    2367 Fo > 4sig(Fo)  and  0.0405 for all    2550 data
REM    190 parameters refined using      0 restraints

END

WGHT      0.0541      0.8385

REM Highest difference peak  0.370,  deepest hole -0.504,  1-sigma level  0.066
Q1    1  -0.4220  0.5799  0.2213  11.00000  0.05    0.37
Q2    1   0.1615  0.9207  1.2684  11.00000  0.05    0.28
Q3    1   0.2429  1.0034  0.8370  11.00000  0.05    0.27
Q4    1  -0.4172  0.5167  0.1130  11.00000  0.05    0.26
Q5    1   0.0572  0.7562  0.8388  11.00000  0.05    0.25
Q6    1   0.2139  0.9209  0.6992  11.00000  0.05    0.25
Q7    1   0.0244  0.8847  1.1533  11.00000  0.05    0.25
Q8    1   0.2704  0.8460  0.7202  11.00000  0.05    0.25
Q9    1   0.1643  0.8377  0.9407  11.00000  0.05    0.24
Q10   1  -0.6137  0.5435  0.0000  11.00000  0.05    0.24
Q11   1   0.1998  0.9486  1.0165  11.00000  0.05    0.24
Q12   1   0.2470  0.9756  0.7880  11.00000  0.05    0.24
Q13   1   0.1509  1.0359  1.3030  11.00000  0.05    0.23
Q14   1  -0.0968  0.7278  0.9582  11.00000  0.05    0.22
Q15   1  -0.0514  0.8186  1.1295  11.00000  0.05    0.22
Q16   1   0.1953  0.9802  1.3434  11.00000  0.05    0.21
Q17   1  -0.5290  0.5525  0.0993  11.00000  0.05    0.21
Q18   1   0.3665  1.1367  1.2096  11.00000  0.05    0.21
Q19   1   0.2723  1.1652  1.0855  11.00000  0.05    0.21
Q20   1   0.4353  0.9418  0.6807  11.00000  0.05    0.20
;
_shelx_res_checksum              52438
_shelx_hkl_file
;
   0   0  -1 72996.1 397.836   3
   0   0  -1 74655.2 380.916   4
   0   0  -2 21709.7 308.584   3
   0   0   2 21015.5 297.201   1
   0   0   3 17946.4 339.797   1
   0   0   4 1919.83 140.348   1
   0   0   5 249445. 1708.56   1
   0   0   6 21393.9 569.951   1
   0   0  -7 62268.8 1124.23   8
   0   0   7 61455.4 1073.87   1
   0   0  -8 27515.5 816.399   8
   0   0  -8 27018.8 814.880   6
   0   0   8 27998.4 789.158   1
   0   0  -9 43256.0 1045.25   8
   0   0  -9 45110.0 1086.73   6
   0   0 -10 9320.86 465.734   8
   0   0 -10 9036.65 459.664   6
   0   0 -11 14767.7 484.729   8
   0   0 -12 10976.3 277.329   8
   0   1 -12 1265.02 112.467   8
   0   1 -11 1908.03 204.358   8
   0   1 -10 128.170 102.575   8
   0   1  -9 15006.2 639.780   8
   0   1  -9 14286.4 605.322   6
   0   1  -8 19718.0 710.530   8
   0  -1   8 19785.4 656.638   1
   0  -1   7 10517.7 440.918   1
   0   1  -7 10320.2 473.564   8
   0  -1   6 2843.29 210.460   1
   0  -1   5 11761.2 364.481   1
   0  -1   4 15627.5 364.504   1
   0   1  -3 15913.5 300.087   4
   0  -1   3 15299.8 303.601   1
   0   1  -2 20311.8 271.329   4
   0  -1   2 20150.5 281.143   1
   0  -1   1 272128. 782.575   1
   0  -1   0 18454.2 216.465   3
   0  -1   0 18611.1 197.236   1
   0  -1  -1 55800.6 494.444   3
   0  -1  -1 58349.8 366.599   2
   0  -1  -2 413523. 1200.60   2
   0  -1  -2 413958. 1651.60   3
   0  -1  -3 119941. 1045.34   3
   0  -1  -4 129666. 1231.73   3
   0   1   4 126625. 1143.75   1
   0   1   5 2005.33 170.802   1
   0   1   6 2348.52 208.265   1
   0  -1  -7 28384.2 741.577   8
   0   1   7 27252.2 738.235   1
   0  -1  -7 27780.2 781.328   6
   0  -1  -8 2984.91 291.722   6
   0   1   8 3440.15 289.820   1
   0  -1  -8 3555.16 279.028   9
   0  -1  -8 3084.19 276.389   8
   0  -1  -9 8882.68 503.033   6
   0  -1  -9 8592.96 453.791   8
   0  -1 -10 13593.6 525.968   8
   0  -1 -10 12744.1 543.296   6
   0  -1 -11 8461.87 340.033   8
   0   2 -12 1306.59 123.301   8
   0   2 -11 1366.07 177.676   8
   0   2 -10 18248.2 684.695   8
   0   2  -9 5115.96 397.621   8
   0  -2   8 9064.12 442.961   1
   0   2  -8 9590.14 453.145  10
   0  -2   7 1650.24 194.256   1
   0  -2   6 21844.6 571.403   1
   0  -2   5 1057.24 123.102   1
   0   2  -4 28390.7 458.639   4
   0  -2   4 29379.6 505.325   1
   0   2  -3 256747. 1189.93   4
   0  -2   3 254843. 1280.43   1
   0  -2   2 157675. 870.240   1
   0   2  -2 157975. 781.367   4
   0  -2   1 999999. 2063.67   3
   0  -2   0 1420.59 96.4294   3
   0  -2  -1 664.623 88.4139   3
   0  -2  -1 735.176 67.2327   2
   0  -2  -2 44766.5 466.499   2
   0  -2  -2 45248.8 643.483   3
   0  -2  -3 29416.0 601.649   3
   0  -2  -3 30019.5 416.336   2
   0  -2  -4 237101. 1883.55   3
   0  -2  -5 5647.10 325.758   3
   0   2   5 5748.55 299.845   1
   0   2   6 6723.82 355.995   1
   0  -2  -7 30053.1 859.498   6
   0  -2  -7 30481.7 771.593   8
   0   2   7 32465.5 836.160   1
   0  -2  -8 41276.7 987.097   9
   0  -2  -8 42548.6 1085.91   6
   0  -2  -8 41643.5 949.449   8
   0  -2  -9 4451.24 321.302   9
   0  -2  -9 4261.32 307.395   8
   0  -2  -9 4517.26 363.158   6
   0  -2 -10 6826.82 397.165   6
   0  -2 -10 6974.45 352.941   8
   0  -2 -11 5894.94 271.861   6
   0   3 -12 4270.89 191.859   8
   0   3 -11 3872.45 273.375   8
   0   3 -10 18853.2 704.615   8
   0   3  -9 720.892 165.203   8
   0   3  -8 30431.2 836.081  10
   0   3  -8 27764.0 804.818   7
   0  -3   7 17586.9 560.553   1
   0   3  -7 17725.3 616.257   7
   0   3  -7 18053.4 610.281  10
   0   3  -6 45482.9 916.652   5
   0  -3   6 46108.0 841.664   1
   0   3  -5 5473.00 306.077   5
   0  -3   5 5747.10 269.182   1
   0  -3   4 28992.8 530.417   1
   0   3  -4 29011.6 449.294   4
   0   3  -3 78982.7 670.867   4
   0  -3   3 78119.2 782.778   1
   0  -3   2 104106. 826.097   1
   0  -3   2 103785. 803.143   3
   0  -3   1 885518. 2430.94   3
   0   3  -1 883809. 2973.71   5
   0  -3   0 187303. 1238.45   2
   0   3   0 189975. 1307.12   5
   0  -3  -1 49670.8 702.232   3
   0  -3  -1 48215.2 613.227   2
   0  -3  -2 70323.2 930.077   3
   0  -3  -2 67170.3 700.781   2
   0  -3  -3 35931.9 516.425   2
   0  -3  -3 34330.2 727.297   3
   0  -3  -4 77624.0 1189.37   3
   0  -3  -5 38265.2 909.806   3
   0  -3  -6 50871.4 1074.79   6
   0  -3  -6 48382.3 899.297   8
   0   3   6 49806.7 1005.48   1
   0  -3  -7 40901.5 897.099   8
   0   3   7 43261.5 993.571   1
   0  -3  -7 40908.2 1051.88   6
   0  -3  -8 28478.4 764.468   8
   0  -3  -8 28485.6 879.214   9
   0  -3  -8 28858.9 912.054   6
   0  -3  -9 46034.3 1041.79   9
   0  -3  -9 47526.5 940.743   8
   0  -3  -9 47328.1 1129.92   6
   0  -3 -10 30445.5 678.201   9
   0  -3 -10 30943.2 793.494   6
   0   4 -11 283.731 88.7603   8
   0   4 -10 153.111 111.848   8
   0   4  -9 9709.84 481.655  10
   0   4  -8 4269.06 338.305   7
   0   4  -8 4685.52 346.238  10
   0   4  -7 123.418 94.0478  10
   0   4  -6 3590.11 299.495   5
   0  -4   6 3647.60 246.935   1
   0   4  -6 3283.75 278.789  10
   0  -4   5 5723.41 281.767   1
   0   4  -5 4730.53 327.399   5
   0   4  -4 464.628 118.365   5
   0  -4   4 402.077 88.8140   1
   0   4  -3 377.143 107.120   5
   0  -4   3 256.583 67.8659   1
   0  -4   2 5590.28 217.896   3
   0  -4   2 5578.57 225.413   1
   0   4  -2 5325.51 300.596   5
   0   4  -1 138552. 1407.87   5
   0  -4   1 143809. 1129.02   3
   0  -4   0 44200.7 717.496   2
   0  -4   0 45016.7 698.066   3
   0  -4  -1 120327. 1259.06   3
   0  -4  -1 120615. 1142.97   2
   0  -4  -2 34391.8 731.248   3
   0  -4  -2 35855.8 608.143   2
   0  -4  -3 101.002 81.7602   3
   0  -4  -3 288.874 71.4231   2
   0  -4  -4 6530.49 383.228   3
   0  -4  -5 8363.28 461.947   3
   0  -4  -5 9013.26 454.912   6
   0  -4  -6 29279.6 880.406   6
   0  -4  -6 28821.0 730.193   8
   0   4   6 29401.7 796.965   1
   0  -4  -7 5087.66 332.715   8
   0  -4  -7 4601.82 375.312   6
   0  -4  -8 29194.9 924.575   6
   0  -4  -9 3501.96 296.555   9
   0  -4  -9 3490.79 308.190   6
   0  -4 -10 171.987 65.9461   9
   0  -4 -10 396.305 101.643   6
   0   5 -11 7132.54 311.834   8
   0   5 -10 34.6485 98.3318   8
   0   5  -9 1383.24 182.814   7
   0   5  -9 1470.70 201.757  10
   0   5  -8 2337.46 273.409  10
   0   5  -8 2201.97 256.236   7
   0   5  -7 15233.0 622.388   5
   0   5  -7 14755.7 645.937  10
   0   5  -6 1235.08 210.040   5
   0   5  -6 1294.85 216.271  10
   0   5  -5 1189.39 193.000  17
   0   5  -5 1426.75 203.718  10
   0   5  -5 1302.97 208.240   5
   0   5  -4 31052.3 867.019   5
   0   5  -3 36664.0 902.088   5
   0   5  -2 122702. 1587.73   5
   0  -5   1 5105.66 247.349   3
   0  -5   1 5414.00 307.164   2
   0   5  -1 5793.01 347.551   5
   0   5   0 7955.88 373.155   5
   0  -5   0 7829.23 352.099   2
   0  -5   0 7713.49 330.007   3
   0  -5  -1 1152.33 140.901   2
   0  -5  -1 1123.32 151.088   3
   0  -5  -2 2405.28 220.879   3
   0  -5  -2 2630.90 191.590   2
   0  -5  -3 44835.4 986.194   3
   0  -5  -4 30804.1 859.230   6
   0   5   4 29111.8 785.088  17
   0  -5  -4 29095.3 854.367   3
   0  -5  -5 171.310 117.453   3
   0   5   5 110.324 106.741  17
   0  -5  -5 140.810 133.915   6
   0   5   5 282.388 97.8412   1
   0  -5  -6 19090.4 751.205   6
   0   5   6 20003.4 693.044  17
   0   5   7 31980.2 852.486  17
   0  -5  -7 32427.4 983.365   6
   0  -5  -8 3040.68 300.461   6
   0  -5  -9 9416.64 437.615   9
   0  -5  -9 10111.5 461.516   6
   0   6 -10 959.957 152.881   8
   0   6  -9 3246.29 267.665   7
   0   6  -9 3960.79 296.403  10
   0   6  -8 12034.0 573.852  10
   0   6  -8 11236.7 543.090   7
   0   6  -7 4531.62 395.289  10
   0   6  -6-15.6903 125.672  10
   0   6  -6 237.287 151.472   5
   0   6  -5 2377.91 289.025  17
   0   6  -5 2096.01 278.951   5
   0   6  -5 2397.56 269.216  10
   0   6  -4 10752.2 568.552   5
   0   6  -4 11001.0 529.442  10
   0   6  -4 11708.3 571.027  17
   0  -6   3 43995.2 1020.53   2
   0   6  -3 42401.6 1077.41   5
   0   6  -3 45701.3 1065.51  17
   0   6  -2 102006. 1591.16   5
   0  -6   2 103275. 1497.98   2
   0  -6   1 53550.8 1042.87   2
   0  -6   0 10398.3 448.813   2
   0  -6  -1 12175.7 464.496   2
   0  -6  -1 12764.8 487.789   3
   0  -6  -2 8885.87 437.220   3
   0   6   2 9029.58 468.633  17
   0   6   3 38888.8 961.014  17
   0  -6  -3 39505.9 972.426   3
   0   6   4 26755.3 820.417  17
   0  -6  -4 27246.4 845.714   3
   0  -6  -4 26615.6 873.968   6
   0  -6  -5 30632.4 963.041   6
   0   6   5 30556.0 874.872  17
   0  -6  -6 25326.4 875.129   6
   0   6   6 26014.6 784.042  17
   0  -6  -7 24175.2 746.033  12
   0  -6  -7 24800.5 827.235   6
   0  -6  -8 9800.38 475.178   9
   0  -6  -8 9993.93 390.485  12
   0  -6  -9 2851.34 204.184   9
   0   7 -10 231.860 64.5640   8
   0   7  -9 1072.51 145.834  10
   0   7  -8 1912.59 222.236   7
   0   7  -8 1918.08 224.031  10
   0   7  -7 1276.01 212.959  10
   0   7  -6-3.42860 99.5622  10
   0   7  -5 1593.89 237.998  10
   0   7  -5 1705.30 260.817  17
   0   7  -4 10463.7 538.883  10
   0   7  -4 11116.7 592.295  17
   0  -7   3 33196.2 937.234   2
   0   7  -3 31232.5 967.703  17
   0   7  -2 9330.89 527.250  17
   0  -7   2 9572.24 498.438   2
   0  -7   1 6129.79 385.804   2
   0   7  -1 6364.93 436.662  17
   0  -7   1 5806.34 348.847  12
   0   7   0 4784.77 378.018  17
   0  -7   0 4396.98 317.884   2
   0  -7   0 4913.63 340.138  12
   0   7   1 7496.49 469.701  17
   0   7   2 369.819 152.506  17
   0   7   3 1279.59 215.852  17
   0   7   4 345.553 143.468  17
   0   7   5 2591.23 276.688  17
   0   7   6 2377.19 237.061  17
   0  -7  -6 2596.32 270.473  12
   0  -7  -7 5750.40 324.150  12
   0  -7  -8 966.653 134.591   9
   0   8  -9 2696.95 160.100  10
   0   8  -9 2565.96 168.763   8
   0   8  -8 138.533 87.4648  10
   0   8  -8 72.6282 66.2008   7
   0   8  -7 88.7599 96.6400  10
   0   8  -6-144.060 114.676  10
   0   8  -5-19.4908 102.918  10
   0   8  -4 54636.5 1302.09  17
   0   8  -4 53722.0 1172.51  10
   0   8  -3 3573.72 362.270  17
   0   8  -3 3563.89 314.687  10
   0   8  -2 172.843 160.936  17
   0  -8   1 490.066 127.512  12
   0   8  -1 339.486 175.760  17
   0  -8   0 472.845 124.470  12
   0   8   0 226.119 147.171  17
   0   8   1 12983.0 624.736  17
   0  -8  -1 12375.5 567.304  12
   0  -8  -2 11456.0 563.411  12
   0   8   2 11591.7 579.361  17
   0   8   3 9693.47 512.725  17
   0  -8  -3 10297.2 530.641  12
   0   8   4 1548.97 211.906  17
   0  -8  -4 1789.68 233.734  12
   0   8   5 4196.83 285.544  17
   0  -8  -5 4094.47 319.873  12
   0  -8  -6 3650.32 259.166  12
   0  -8  -7 643.153 97.8670  12
   0  -8  -7 656.907 109.032   9
   0   9  -8 1334.27 116.578  10
   0   9  -7 576.937 96.9325   7
   0   9  -7 640.877 112.201  10
   0   9  -6 94.8315 85.7519  10
   0   9  -5 7007.53 386.228  10
   0   9  -4 2872.22 297.920  17
   0   9  -4 2933.96 266.808  10
   0   9  -3 4538.25 379.235  17
   0   9  -3 4514.28 333.281  10
   0   9  -2 8163.29 437.047  10
   0   9  -2 8822.31 508.670  17
   0   9  -1 1811.63 253.997  17
   0   9   0 12009.1 579.812  17
   0  -9   0 13029.0 526.258  12
   0   9   1 394.936 144.507  17
   0  -9  -1 266.869 123.494  12
   0  -9  -2 3731.96 299.583  12
   0   9   2 3477.80 298.205  17
   0  -9  -3 19676.5 648.618  12
   0   9   3 18222.2 599.072  17
   0   9   4 2319.60 199.357  17
   0  -9  -4 3034.84 252.192  12
   0  -9  -5 857.777 133.200  12
   0  -9  -6 13181.2 342.670   9
   0  10  -6 1141.47 113.657  10
   0  10  -5 902.797 125.404  10
   0  10  -4 1039.74 140.426  10
   0  10  -3 1154.16 177.789  17
   0  10  -3 1412.96 162.089  10
   0  10  -2 2832.54 254.421  17
   0  10  -2 2673.12 215.805  10
   0  10  -1 49.7747 69.6440  10
   0  10  -1 78.4971 102.418  17
   0 -10   0 2702.37 205.161  12
   0  10   0 2512.95 232.232  17
   0  10   0 2755.80 208.720  10
   0  10   1 192.193 100.900  17
   0 -10  -1 342.850 90.6389  12
   0  10   1 126.798 66.3954  10
   0 -10  -2 1106.97 141.092  12
   0  10   2 661.201 111.609  17
   0 -10  -3 313.939 85.7168  12
   0 -10  -4 560.569 86.1541  12
  -1  11   1 68.6703 67.0166  17
  -1  11   0 108.377 71.9251  17
  -1  11  -1 2919.37 217.538  17
  -1  11  -2 71.3276 82.6087  17
  -1  11  -3-28.4411 36.3617  10
   1 -10  -5 8240.93 268.939  12
   1 -10  -4 8084.05 323.486  12
  -1  10   4 7398.57 299.241  17
   1 -10  -3 773.417 128.516  12
  -1  10   3 692.724 132.340  17
  -1  10   2 741.302 155.196  17
   1 -10  -2 777.318 138.415  12
   1 -10  -1 1733.99 182.890  12
  -1  10   1 1713.10 223.532  17
  -1  10   0 722.089 121.115  10
  -1  10   0 724.525 172.901  17
  -1  10  -1 5118.71 293.285  10
  -1  10  -1 5870.82 393.765  17
  -1  10  -2 872.814 152.211  10
  -1  10  -2 855.363 186.432  17
  -1  10  -3 2348.20 256.279  17
  -1  10  -3 2456.16 225.752  10
  -1  10  -4 1833.82 193.101  10
  -1  10  -5 6240.13 310.810  10
  -1  10  -6 460.398 96.6294  10
   1  -9  -6 13776.8 426.563  12
  -1   9   6 11054.6 332.837  17
   1  -9  -5 1795.95 200.734  12
  -1   9   5 2263.19 216.215  17
  -1   9   4 12341.6 526.041  17
   1  -9  -4 11802.2 516.324  12
  -1   9   3 641.141 170.194  17
   1  -9  -3 523.759 150.853  12
   1  -9  -2 3162.76 295.005  12
  -1   9   2 2759.38 308.289  17
   1  -9  -1 253.995 115.722  12
  -1   9   1-157.903 155.922  17
   1  -9   0 543.917 132.678  12
  -1   9   0 853.721 215.209  17
  -1   9  -1 6356.83 373.726  10
  -1   9  -1 6428.84 470.734  17
  -1   9  -2 4056.89 375.755  17
  -1   9  -2 3968.43 312.744  10
  -1   9  -3 5903.12 435.604  17
  -1   9  -3 6222.39 389.079  10
  -1   9  -4 2451.05 262.423  10
  -1   9  -4 2450.26 294.789  17
  -1   9  -5 5747.98 371.034  10
  -1   9  -6 602.438 137.571  10
  -1   9  -7 282.165 106.471  10
  -1   9  -7 342.973 75.3641   7
  -1   9  -8 141.818 69.7143  10
  -1   9  -8 25.0857 46.9572   8
  -1   8   7 225.961 79.4680  17
   1  -8  -7 78.4793 83.4910  12
   1  -8  -6 580.013 139.217  12
  -1   8   6 318.275 122.195  17
  -1   8   5 6517.23 410.104  17
  -1   8   4 128.814 134.535  17
  -1   8   3 6921.63 479.110  17
  -1   8   2 2299.81 292.069  17
  -1   8   1 364.770 182.149  17
  -1   8   0 12108.1 626.529  17
   1  -8   0 13534.8 551.616  12
  -1   8  -1 537.660 170.377  17
  -1   8  -2 1176.68 184.401  10
  -1   8  -2 1066.69 210.286  17
  -1   8  -3 6050.65 406.790  10
  -1   8  -3 6404.87 465.972  17
  -1   8  -4 1345.13 245.588  17
  -1   8  -4 1200.08 217.641  10
  -1   8  -5 4888.71 404.489  17
  -1   8  -5 4453.28 373.112  10
  -1   8  -6 481.961 160.346  10
  -1   8  -7 830.694 179.269  10
  -1   8  -8-23.9741 92.3536  10
  -1   8  -9 1803.95 157.036  10
  -1   8  -9 1569.43 144.238   8
  -1   7   8 21171.9 528.107  17
   1  -7  -8 22216.6 558.026  12
  -1   7   7 13411.5 532.337  17
   1  -7  -6 43532.3 1109.95   6
  -1   7   6 43493.9 1054.40  17
   1  -7  -5 44669.2 1149.43   6
  -1   7   5 46809.0 1150.77  17
   1  -7  -4 46296.6 1163.16   6
  -1   7   4 46469.2 1165.93  17
  -1   7   3 21637.4 802.931  17
  -1   7   2 22462.4 802.022  17
  -1   7   1 35598.0 991.586  17
   1  -7  -1 35888.8 882.349   2
  -1   7   0 62507.8 1293.52  17
   1  -7   0 62604.8 1205.45   2
  -1   7  -1 8426.91 490.297  17
   1  -7   1 8919.15 470.943   2
  -1   7  -2 40198.8 1048.54  17
   1  -7   2 37384.7 982.020   2
   1  -7   3 4908.87 365.341   2
  -1   7  -3 5248.50 374.657  10
  -1   7  -3 4406.66 373.798  17
  -1   7  -4 28797.2 896.648  10
  -1   7  -4 28567.1 909.701  17
   1  -7   4 27579.8 874.537   2
  -1   7  -5 6271.67 451.872  10
  -1   7  -5 6522.14 462.237  17
  -1   7  -6 2281.34 302.753  10
  -1   7  -7 267.607 171.384  10
  -1   7  -8-232.604 142.998  10
  -1   7  -9 4844.75 308.848  10
  -1   7  -9 4376.54 302.253   8
  -1   7 -10-12.8210 56.6893   8
  -1   6   9 19382.3 481.975  17
   1  -6  -9 19319.3 529.309   9
  -1   6   8 18358.2 610.136  17
   1  -6  -8 19489.9 705.788   6
   1  -6  -7 21691.7 794.115   6
  -1   6   7 22064.6 752.595  17
  -1   6   6 2409.78 280.656  17
   1  -6  -6 2473.25 286.583   6
  -1   6   5 554.262 173.856  17
   1  -6  -5 651.786 164.237   6
  -1   6   4 95184.2 1581.12  17
   1  -6  -4 95759.0 1578.40   6
   1  -6  -3 11409.7 485.173   3
   1  -6  -3 12576.5 542.108   6
  -1   6   3 12117.2 556.237  17
   1  -6  -2 6126.53 337.357   2
   1  -6  -2 4406.71 286.934   3
   1  -6  -1 1287.04 168.705   2
   1  -6   0 231.503 95.9281   2
   1  -6   1 79909.7 1284.61   2
   1  -6   2 20746.0 670.445   2
   1  -6   3 32055.4 862.469   2
   1  -6   4 57463.6 1202.65   2
  -1   6  -4 61243.8 1240.58  17
  -1   6  -5 23970.5 813.946  17
  -1   6  -5 24971.7 866.892  10
   1  -6   5 23421.7 787.178   2
  -1   6  -6 3229.09 347.311  10
  -1   6  -7 146.428 112.726  10
  -1   6  -8 104.394 125.614  10
  -1   6  -9 5671.11 409.114   8
  -1   6  -9 5834.85 390.391  10
  -1   6 -10 88.5882 85.9722   8
   1  -5 -10 1790.71 176.960   6
   1  -5  -9 3930.02 320.285   6
   1  -5  -9 3783.80 273.396   9
  -1   5   9 3994.18 290.009  17
  -1   5   8 2074.43 248.620  17
   1  -5  -8 2115.57 273.964   6
   1  -5  -7 1259.84 226.876   6
  -1   5   6 3943.04 282.545   1
   1  -5  -6 3634.34 335.929   6
  -1   5   5 36867.7 790.907   1
   1  -5  -5 37796.4 973.688   6
  -1   5   4 8250.14 350.105   1
   1  -5  -3 36332.7 820.124   3
   1  -5  -3 36814.4 763.222   2
   1  -5  -2 42025.0 800.888   3
   1  -5  -2 40724.8 791.820   2
   1  -5  -1 85088.4 1149.49   2
   1  -5  -1 87240.9 1029.29   3
   1  -5   0 29660.9 531.317   3
   1  -5   0 29053.3 684.810   2
   1  -5   1 5010.84 294.985   2
   1  -5   2 33066.6 764.743   2
  -1   5  -2 32245.0 773.272   5
  -1   5  -3 403.823 85.0824   4
  -1   5  -3 476.153 121.439   5
  -1   5  -4 11593.8 509.450   5
  -1   5  -5 8865.48 456.805  10
  -1   5  -6 4087.67 341.924  10
  -1   5  -7 763.007 200.105  10
  -1   5  -8 1078.52 206.561  10
  -1   5  -9 308.442 142.334   8
  -1   5  -9 324.498 139.825  10
  -1   5 -10 5201.28 356.141   8
  -1   5 -11 198.609 72.7319   8
   1  -4 -11 22644.6 478.730   6
   1  -4 -10 24785.0 715.581   6
  -1   4  10 23652.4 606.839  17
   1  -4  -9 35834.0 854.783   9
   1  -4  -9 37523.6 1017.31   6
   1  -4  -8 21175.7 804.117   6
   1  -4  -8 21407.0 593.487   8
   1  -4  -7 29407.2 688.785   8
   1  -4  -7 30095.0 929.507   6
  -1   4   7 30090.5 802.550   1
   1  -4  -6 42268.6 1035.43   6
  -1   4   6 44303.8 924.261   1
  -1   4   5 24641.4 635.109   1
  -1   4   4 25321.0 582.272   1
   1  -4  -4 26193.3 598.386   2
   1  -4  -3 102559. 1268.32   3
   1  -4  -3 105192. 1141.73   2
   1  -4  -2 97089.2 1108.18   3
   1  -4  -2 95490.6 1061.36   2
   1  -4  -1 80355.1 888.066   3
   1  -4  -1 79746.0 974.987   2
   1  -4   0 243256. 1314.25   3
   1  -4   0 242137. 1717.24   2
   1  -4   1 113922. 703.745   3
   1  -4   1 112172. 1184.12   2
   1  -4   2 98623.1 654.694   1
  -1   4  -2 94201.1 1177.15   5
  -1   4  -3 133834. 1184.48   4
   1  -4   3 132212. 887.170   1
  -1   4  -4 155916. 1658.11   5
  -1   4  -4 158128. 1356.95   4
  -1   4  -5 1036.55 155.519   5
  -1   4  -5 1298.60 139.420   4
  -1   4  -6 457.805 119.977  10
  -1   4  -7 2293.62 215.463  13
  -1   4  -7 2804.72 284.266  10
  -1   4  -8 15976.0 664.783  10
  -1   4  -9 34902.6 1028.88   8
  -1   4 -10 79.5624 103.895   8
  -1   4 -11 7010.16 347.955   8
   1  -3 -11 8094.85 346.393   6
   1  -3 -10 13726.9 573.799   6
   1  -3  -9 32859.0 976.698   6
   1  -3  -9 31908.3 725.429   8
   1  -3  -8 8946.24 402.945   8
   1  -3  -8 8754.35 518.327   6
   1  -3  -7 19572.0 569.555   8
   1  -3  -7 19749.2 732.921   6
  -1   3   7 19423.6 643.868   1
  -1   3   6 30771.9 744.231   1
   1  -3  -6 32867.1 857.416   6
  -1   3   5 21482.7 561.580   1
   1  -3  -4 11939.1 374.054   2
  -1   3   4 12876.3 387.378   1
   1  -3  -3 4181.83 208.473   2
   1  -3  -3 3930.70 229.767   3
   1  -3  -2 15857.3 398.091   3
   1  -3  -2 15688.8 375.619   2
   1  -3  -1 97315.9 910.989   2
   1  -3  -1 97778.4 833.872   3
   1  -3   0 162756. 867.794   3
   1  -3   0 157325. 1175.42   2
   1  -3   1 92339.2 919.555   2
  -1   3  -1 95572.4 929.350   5
   1  -3   2 66577.9 480.969   1
  -1   3  -2 63669.1 817.438   5
  -1   3  -3 134694. 1128.87   4
  -1   3  -3 134482. 1249.60   5
   1  -3   3 136253. 853.937   1
   1  -3   4 8665.80 261.708   1
  -1   3  -4 8269.73 331.063   5
  -1   3  -4 8413.83 312.160   4
  -1   3  -5 66347.3 963.277   5
  -1   3  -5 65180.5 921.856   4
   1  -3   5 65598.7 827.304   1
   1  -3   6 23333.1 562.569   1
  -1   3  -7 12738.3 542.593  10
   1  -3   7 12288.3 452.606   1
  -1   3  -7 12417.9 482.421  13
  -1   3  -8 43703.7 1127.54   8
  -1   3  -8 44013.3 1053.05  10
  -1   3  -8 42651.9 913.813  13
  -1   3  -9 13265.4 634.035   8
  -1   3  -9 12835.3 484.762  13
  -1   3 -10 840.764 189.012   8
  -1   3 -11 10319.5 434.888   8
  -1   3 -12 4197.50 188.583   8
   1  -2 -11 1216.05 161.988   6
   1  -2 -10 4854.68 280.057   8
   1  -2 -10 4557.01 354.812   6
   1  -2  -9 7741.41 387.120   8
   1  -2  -9 7251.02 472.712   6
   1  -2  -8 2557.52 235.552   8
   1  -2  -8 3251.43 317.438  15
  -1   2   8 3217.30 286.936   1
   1  -2  -8 2697.48 296.144   6
   1  -2  -7 2649.62 214.100   8
   1  -2  -7 2588.51 264.032   6
   1  -2  -7 2918.15 272.639  15
  -1   2   7 2803.14 245.373   1
  -1   2   6 7815.79 363.642   1
  -1   2   5 10260.3 369.557   1
   1  -2  -4 65688.1 817.692   2
  -1   2   4 65051.3 819.197   1
   1  -2  -3 70062.5 770.069   2
  -1   2   3 76440.0 759.408   1
   1  -2  -2 65652.4 704.621   3
   1  -2  -2 64879.6 667.565   2
   1  -2  -1 8557.17 208.003   3
   1  -2  -1 8261.42 223.569   2
   1  -2   0 34110.1 441.809   2
   1  -2   2 28683.6 299.161   1
  -1   2  -2 29655.6 448.432   4
  -1   2  -2 29981.6 443.633   5
  -1   2  -3 727.811 84.0435   5
  -1   2  -3 680.871 88.8597   4
   1  -2   3 723.832 66.5695   1
  -1   2  -4 7868.04 259.664   5
  -1   2  -4 6998.98 277.064   4
   1  -2   4 7324.68 241.316   1
   1  -2   5 17865.3 439.082   1
  -1   2  -5 18154.8 490.674   4
   1  -2   6 5213.54 276.065   1
  -1   2  -7 3262.18 252.097  13
   1  -2   7 3214.66 249.663   1
  -1   2  -7 3395.12 273.508  10
  -1   2  -7 3296.22 290.351   8
  -1   2  -8 34213.4 825.896  13
   1  -2   8 35612.8 835.002   1
  -1   2  -8 35239.0 985.625   8
  -1   2  -9 890.344 173.579  13
  -1   2  -9 1255.80 213.455   8
  -1   2 -10 324.779 118.077   8
  -1   2 -11 648.332 136.724   8
  -1   2 -12 250.847 66.7756   8
   1  -1 -11 29387.3 587.457   8
   1  -1 -11 27965.5 714.465   6
   1  -1 -10 47550.4 933.530   8
   1  -1 -10 46941.5 1118.27   6
   1  -1  -9 15458.7 578.428   8
   1  -1  -9 15484.0 681.058   6
   1  -1  -8 39651.0 1047.63   6
   1  -1  -8 40319.4 914.142   8
   1  -1  -8 38764.9 989.187  15
   1  -1  -7 37790.6 891.027  15
  -1   1   7 39004.6 870.321   1
  -1   1   6 51278.3 897.964   1
  -1   1   5 16714.6 453.669   1
  -1   1   4 273323. 1600.44   1
  -1   1   3 229801. 1242.08   1
   1  -1  -3 231692. 1340.47   2
   1  -1  -2 283360. 1290.54   2
  -1   1   2 282509. 1128.71   1
  -1   1   1 309873. 887.064   1
   1  -1  -1 310601. 1141.90   2
  -1   1   0 29009.8 192.414   1
   1  -1   0 28268.9 300.894   2
  -1   1  -1 235664. 640.140   3
   1  -1   1 232340. 858.941   2
  -1   1  -2 162120. 1001.99   4
  -1   1  -2 161285. 760.558   3
  -1   1  -3 175365. 1213.61   4
  -1   1  -3 177429. 996.075   3
   1  -1   4 137271. 1100.84   1
  -1   1  -4 140817. 1227.46   4
   1  -1   5 83581.1 987.324   1
   1  -1   6 29184.6 661.126   1
   1  -1   7 38269.5 837.910   1
  -1   1  -7 40118.8 837.835  13
  -1   1  -7 40086.8 944.713   8
  -1   1  -8 13171.2 515.442  13
   1  -1   8 13769.3 537.164   1
  -1   1  -8 13077.0 589.603   8
  -1   1  -8 12903.8 519.202   9
  -1   1  -9 13859.3 616.808   8
  -1   1 -10 27174.3 809.804   8
  -1   1 -11 22501.1 616.152   8
  -1   1 -12 19351.4 390.874   8
   1   0 -11 3992.96 280.125   6
   1   0 -11 3943.12 248.107   8
   1   0 -10 18321.5 624.502   8
   1   0 -10 18185.6 697.523   6
   1   0  -9 207.916 111.121   8
   1   0  -9 153.520 107.306   6
   1   0  -8 1029.77 174.293   8
   1   0  -8 781.614 166.344  15
  -1   0   8 1268.06 180.985   1
   1   0  -8 984.706 186.941   7
  -1   0   7 50151.9 975.789   1
  -1   0   6 22722.3 590.658   1
  -1   0   5 9135.93 333.732   1
  -1   0   4 21468.2 443.675   1
  -1   0   3 33645.6 480.133   1
  -1   0   2 48347.2 487.240   1
  -1   0   1 170704. 779.196   1
   1   0   0 47741.9 317.847   2
  -1   0   0 47176.6 400.962   1
  -1   0  -1 51178.3 456.951   4
  -1   0  -1 52464.0 499.378   3
  -1   0  -2 50888.1 558.750   4
  -1   0  -2 52212.9 570.434   3
  -1   0  -3 99883.1 919.586   4
  -1   0  -3 103521. 926.531   3
  -1   0  -4 163413. 1329.63   3
   1   0   5 11366.3 393.095   1
   1   0   6 26285.4 658.670   1
   1   0   7 25163.6 705.128   1
  -1   0  -7 25319.4 671.683  13
  -1   0  -7 23535.9 699.409   9
  -1   0  -7 24903.2 734.153   8
   1   0   8 15526.8 591.424   1
  -1   0  -8 14486.3 604.487   8
  -1   0  -8 14754.6 583.512   9
  -1   0  -9 1237.03 201.221   8
  -1   0  -9 1152.30 181.119   9
  -1   0 -10 27827.1 784.654   8
  -1   0 -11 9922.09 389.434   8
   1   1 -11 5389.70 313.267   6
   1   1 -11 5866.32 312.772   8
   1   1 -10 10017.0 512.968   6
   1   1 -10 11344.2 517.217   8
   1   1  -9 16986.9 656.453   7
   1   1  -9 16673.2 662.850   8
  -1  -1   8 36462.2 905.594   1
   1   1  -8 34993.0 929.386   7
   1   1  -8 35029.7 919.693   8
  -1  -1   7 51129.9 987.312   1
  -1  -1   6 30866.5 694.596   1
  -1  -1   5 113403. 1187.55   1
  -1  -1   4 68239.2 815.370   1
  -1  -1   3 6921.59 235.003   1
  -1  -1   2 14513.5 301.786   1
  -1  -1   1 148695. 903.085   1
  -1  -1   0 367237. 1454.42   1
  -1  -1   0 370129. 1540.57   3
  -1  -1  -1 113441. 925.156   3
  -1  -1  -1 116356. 420.709   2
  -1  -1  -2 74302.2 835.504   3
  -1  -1  -3 30623.2 597.184   3
  -1  -1  -4 6266.34 307.928   3
  -1  -1  -5 17753.0 550.870   3
   1   1   6 5881.48 338.797   1
  -1  -1  -7 8220.30 441.226   9
   1   1   7 8698.59 438.424   1
  -1  -1  -7 8330.37 427.108   8
  -1  -1  -7 8482.09 430.782   6
  -1  -1  -8 1502.92 209.871   8
  -1  -1  -8 1973.63 236.873   6
  -1  -1  -8 1752.21 232.742   9
  -1  -1  -9 3958.05 315.319   9
  -1  -1  -9 4617.67 342.051   6
  -1  -1  -9 4056.08 319.144   8
  -1  -1 -10 4439.07 307.624   8
  -1  -1 -10 4136.36 277.241   9
  -1  -1 -11 3230.21 217.078   8
   1   2 -11 16434.3 521.481   8
   1   2 -10 453.392 127.078   8
   1   2  -9 343.652 142.275   8
   1   2  -9 383.289 138.004   7
  -1  -2   8 110637. 1570.52   1
   1   2  -8 105197. 1666.71   7
  -1  -2   7 65373.3 1135.83   1
   1   2  -7 66416.2 1232.25   7
  -1  -2   6 22272.6 604.967   1
  -1  -2   5 93524.6 1120.57   1
  -1  -2   4 13780.4 394.247   1
  -1  -2   3 303565. 1672.81   1
  -1  -2   2 260208. 1457.19   1
  -1  -2   1 43693.3 586.460   1
  -1  -2   1 43170.6 623.027   3
  -1  -2   0 192485. 1349.77   3
  -1  -2  -1 246214. 1607.25   3
  -1  -2  -1 249001. 1021.68   2
  -1  -2  -2 121870. 570.011   2
  -1  -2  -2 118967. 1240.28   3
  -1  -2  -3 212441. 1801.83   3
  -1  -2  -4 85737.4 1241.57   3
  -1  -2  -5 102544. 1458.99   3
  -1  -2  -6 46206.9 919.126   8
   1   2   6 46173.7 985.836   1
  -1  -2  -6 45296.0 1039.00   3
  -1  -2  -7 44018.2 971.624   8
  -1  -2  -7 44464.5 1034.86   6
  -1  -2  -7 42501.9 1066.76   9
   1   2   7 44417.4 1015.97   1
  -1  -2  -8 16825.6 621.688   8
  -1  -2  -8 17128.0 669.037   6
  -1  -2  -8 16790.1 687.554   9
  -1  -2  -9 37351.5 890.414   8
  -1  -2  -9 35527.2 943.947   9
  -1  -2 -10 22457.3 617.525   8
  -1  -2 -10 20788.9 605.792   9
   1   3 -11 4760.86 285.308   8
   1   3 -10 891.858 157.214   7
   1   3 -10 732.138 150.181   8
   1   3  -9 15883.5 653.370   7
   1   3  -8-92.3054 105.785   7
   1   3  -8 268.302 105.228  10
  -1  -3   7 2720.07 256.286   1
   1   3  -7 2650.20 255.792   5
   1   3  -7 2758.30 238.344  10
   1   3  -7 2363.32 254.024   7
  -1  -3   6 2630.18 232.472   1
  -1  -3   5 9474.24 390.502   1
  -1  -3   4 230440. 1752.12   1
  -1  -3   3 16340.0 437.803   1
  -1  -3   2 36807.3 629.309   1
  -1  -3   2 35255.2 641.649   3
  -1  -3   1 1699.63 154.028   3
  -1  -3   1 1659.48 146.065   1
  -1  -3   0 26467.0 575.470   3
  -1  -3  -1 69662.5 978.459   3
  -1  -3  -1 71439.0 716.865   2
   1   3   1 70612.0 799.044   5
  -1  -3  -2 38351.6 454.578   2
  -1  -3  -2 37381.1 776.573   3
  -1  -3  -3 113942. 1478.61   3
  -1  -3  -4 36799.1 900.946   3
  -1  -3  -5 67247.1 1289.40   3
  -1  -3  -6 888.752 179.025   6
   1   3   6 530.162 136.455   1
  -1  -3  -6 522.640 150.284   3
  -1  -3  -7 21946.3 694.370   8
  -1  -3  -7 22778.5 792.312   6
  -1  -3  -8 2857.18 273.124   8
  -1  -3  -8 2109.50 285.573   9
  -1  -3  -8 1994.27 254.897   6
  -1  -3  -9 15035.6 585.455   6
  -1  -3  -9 15428.8 635.016   9
  -1  -3 -10 10136.1 406.758   9
   1   4 -11 120.564 63.8959   8
   1   4 -10 2380.69 248.991   8
   1   4 -10 2380.19 226.600   7
   1   4  -9 2484.17 269.365   7
   1   4  -9 2646.23 238.517  10
   1   4  -8 13386.2 633.668   7
   1   4  -8 14526.5 578.969  10
   1   4  -7 8290.19 442.827  10
   1   4  -7 8640.56 482.480   5
  -1  -4   6 22602.3 665.537   1
   1   4  -6 23930.8 783.526   5
   1   4  -6 22449.0 679.787  10
  -1  -4   5 215.118 102.348   1
  -1  -4   4 9123.39 363.921   3
  -1  -4   4 9257.65 385.398   1
  -1  -4   3 10011.5 373.506   3
  -1  -4   3 9963.65 379.282   1
  -1  -4   2 39613.6 739.659   3
  -1  -4   2 40506.2 742.050   1
  -1  -4   1 92418.5 1144.36   3
   1   4  -1 91057.4 1203.00   5
  -1  -4   0 195305. 1716.67   3
  -1  -4   0 193220. 1513.04   2
   1   4   0 191236. 1676.63   5
   1   4   1 3431.65 218.612   5
  -1  -4  -1 3196.72 246.181   3
  -1  -4  -1 3390.27 188.411   2
  -1  -4  -2 30684.3 784.097   3
  -1  -4  -3 492.203 137.255   3
  -1  -4  -4 23539.2 782.108   3
  -1  -4  -5 95850.7 1549.83   6
  -1  -4  -5 96091.5 1645.73   3
  -1  -4  -6 4010.61 347.262   6
   1   4   6 4232.48 333.084   1
  -1  -4  -7 1829.83 252.257   6
  -1  -4  -8 9333.39 565.926   9
  -1  -4  -8 8947.42 491.018   6
  -1  -4  -9 1971.76 232.638   9
  -1  -4 -10 4041.49 223.632   9
   1   5 -11-34.8510 51.8400   8
   1   5 -10 1946.93 195.682   7
   1   5 -10 1785.51 209.627   8
   1   5  -9 3873.79 315.961   7
   1   5  -9 3588.81 272.871  10
   1   5  -8 13067.7 625.475   7
   1   5  -8 13521.8 561.881  10
   1   5  -7 2897.63 289.207  10
   1   5  -7 2711.18 302.825   5
   1   5  -6 31877.2 892.407  10
   1   5  -6 31739.3 966.255   5
   1   5  -5 40633.6 1080.86   5
   1   5  -5 41342.2 996.969  10
   1   5  -5 41169.7 1059.74  17
   1   5  -4 24920.8 819.728   5
  -1  -5   4 24387.6 657.408   1
   1   5  -4 25974.6 797.040  17
  -1  -5   3 53901.3 951.353   1
   1   5  -3 55789.7 1173.97   5
  -1  -5   2 25826.0 637.490   3
   1   5  -2 25133.4 756.261   5
   1   5  -1 34604.9 848.700   5
  -1  -5   1 33620.7 745.248   3
  -1  -5   1 32798.4 748.279   2
   1   5   0 2044.84 207.909   5
  -1  -5   0 1648.49 186.322   3
  -1  -5   0 1670.60 168.732   2
  -1  -5  -1 87266.1 1350.10   3
  -1  -5  -2 169527. 1988.16   3
  -1  -5  -3 67904.6 1323.74   3
  -1  -5  -4 137637. 1957.70   3
  -1  -5  -4 134519. 1895.86   6
  -1  -5  -5 19557.7 753.427   6
  -1  -5  -6 30959.6 901.258  12
  -1  -5  -6 30864.2 949.505   6
  -1  -5  -7 32906.2 847.350  12
  -1  -5  -8 23969.5 799.071   9
  -1  -5  -9 23082.1 623.431   9
   1   6 -10-17.2278 63.7562   8
   1   6  -9 340.111 104.559  10
   1   6  -9 203.348 101.798   7
   1   6  -8 1387.10 195.841  10
   1   6  -8 1561.58 230.567   7
   1   6  -7-36.2474 103.361  10
   1   6  -7-1.88917 78.4919   5
   1   6  -6 4506.68 352.444  10
   1   6  -6 4885.67 404.133   5
   1   6  -5 15905.0 723.164   5
   1   6  -5 15931.7 647.194  10
   1   6  -5 16138.0 715.189  17
   1   6  -4 5357.04 406.000  17
   1   6  -4 4645.32 400.854   5
   1   6  -3 3229.93 325.042   5
   1   6  -3 2896.09 309.443  17
   1   6  -2 5014.92 384.297   5
   1   6  -2 5406.17 385.069  17
  -1  -6   2 4458.64 321.724   2
   1   6  -1 740.103 152.793   5
  -1  -6   1 437.732 119.469   2
   1   6  -1 838.317 162.991  17
  -1  -6   1 589.241 145.127  12
  -1  -6   0-29.4441 105.136  12
  -1  -6   0 54.8108 61.5558   3
  -1  -6  -1 6654.22 390.922   3
  -1  -6  -1 6065.35 386.452  12
   1   6   1 6480.58 391.951  17
  -1  -6  -2 20821.3 726.942   3
  -1  -6  -2 21613.3 738.394  12
   1   6   2 21018.8 686.854  17
  -1  -6  -3 6127.82 412.597   3
  -1  -6  -3 5883.94 408.418  12
  -1  -6  -4 852.596 190.573  12
  -1  -6  -5 34141.8 970.533  12
  -1  -6  -6 30849.1 868.999  12
  -1  -6  -7 149.155 91.6146  12
  -1  -6  -8 3790.79 269.926   9
   1   7  -9 746.464 123.011   7
   1   7  -9 667.665 102.611  10
   1   7  -8 1556.41 186.804  10
   1   7  -8 1664.21 199.446   7
   1   7  -7 7294.94 405.127  10
   1   7  -6 2534.31 264.360  10
   1   7  -5 109.589 119.048  10
   1   7  -5 48.6761 113.281   5
   1   7  -4 261.386 115.724  10
   1   7  -4 239.998 131.548   5
   1   7  -4 144.946 138.131  17
   1   7  -3 17282.3 731.549  17
   1   7  -3 18864.7 776.352   5
   1   7  -2 14489.0 649.005  17
  -1  -7   2 13942.8 552.582  12
  -1  -7   1 21271.6 709.865  12
   1   7  -1 19702.1 743.207  17
   1   7   0 22100.4 769.686  17
  -1  -7   0 21888.7 741.854  12
   1   7   1 35912.4 956.876  17
  -1  -7  -1 34156.9 948.731  12
  -1  -7  -2 157.140 122.651  12
   1   7   2 277.918 137.311  17
  -1  -7  -3 6907.95 448.648  12
   1   7   3 7194.39 419.456  17
  -1  -7  -4 76.8173 118.990  12
  -1  -7  -5 2245.30 252.955  12
  -1  -7  -6 164.192 102.617  12
  -1  -7  -7 10814.5 431.337   9
  -1  -7  -7 10570.4 357.697  12
   1   8  -8 205.728 73.0214  10
   1   8  -8 133.930 77.6239   7
   1   8  -7 2252.47 203.069  10
   1   8  -6 3621.08 282.276  10
   1   8  -5 395.605 138.232  10
   1   8  -4 10905.9 517.898  10
   1   8  -4 11704.3 583.890  17
   1   8  -3 4218.15 360.370  17
   1   8  -2 430.331 165.262  17
  -1  -8   1 3899.15 315.541  12
   1   8  -1 3604.77 337.103  17
   1   8   0 12923.9 591.386  17
  -1  -8   0 13405.2 580.187  12
   1   8   1 21409.9 720.691  17
  -1  -8  -1 21908.4 755.447  12
  -1  -8  -2 11621.3 551.117  12
   1   8   2 11820.3 510.313  17
  -1  -8  -3 14686.7 606.555  12
  -1  -8  -4 1838.63 225.004  12
  -1  -8  -5 3951.20 276.425  12
  -1  -8  -6 8531.05 331.168   9
  -1  -8  -6 8411.19 316.193  12
   1   9  -7 2283.44 158.016   7
   1   9  -7 2095.08 145.688  10
   1   9  -6 876.285 129.030  10
   1   9  -5 3521.71 253.398  10
   1   9  -4 1311.29 184.081  10
   1   9  -3 5856.88 372.040  17
   1   9  -3 5835.79 351.807  10
   1   9  -2 1549.09 213.721  17
   1   9  -2 2054.18 224.578  10
  -1  -9   1 643.535 139.594  12
   1   9  -1 567.567 152.086  17
   1   9   0 91.8169 102.061  17
  -1  -9   0 525.416 127.165  12
  -1  -9  -1 5152.11 326.785  12
   1   9   1 4152.92 275.843  17
  -1  -9  -2 1066.57 164.143  12
  -1  -9  -3 1678.18 185.638  12
  -1  -9  -4 917.624 126.444  12
  -1  -9  -4 669.553 89.5569   9
   1  10  -5 40.8782 51.0602  10
   1  10  -4 1385.32 132.705  10
   1  10  -3 1815.25 161.743  10
   1  10  -2 793.841 119.125  10
   1  10  -1 2407.13 176.281  10
  -1 -10   0 5342.98 227.036  12
   1  10   0 5521.93 247.087  10
  -1 -10  -1-17.3231 50.3397  12
   1  10   1 99.8861 52.8335  10
  -1 -10  -2 310.058 69.0970  12
  -2  11   3 1123.73 122.021  17
  -2  11   2 1688.66 169.688  17
  -2  11   1 2672.36 224.315  17
  -2  11   0 68.6605 96.5390  17
  -2  11  -1 1434.29 183.301  17
  -2  11  -2 2754.98 229.387  17
  -2  11  -3 585.681 120.366  17
  -2  10   5 3584.35 216.917  17
   2 -10  -5 3895.54 218.915  12
  -2  10   4 1816.24 195.523  17
   2 -10  -4 2070.59 189.624  12
  -2  10   3 1357.95 209.175  17
   2 -10  -3 1341.58 169.270  12
   2 -10  -2 2450.40 220.275  12
  -2  10   2 2171.45 265.525  17
  -2  10   1 1560.99 246.230  17
   2 -10  -1 1966.95 195.869  12
  -2  10   0 20520.6 755.188  17
  -2  10  -1 399.414 149.733  17
  -2  10  -2 2516.58 282.643  17
  -2  10  -2 2519.11 216.604  10
  -2  10  -3 221.293 96.0931  10
  -2  10  -3 153.520 131.770  17
  -2  10  -4 261.134 123.556  17
  -2  10  -4 239.793 110.678  10
  -2  10  -5 6594.85 326.669  10
  -2  10  -6 1404.70 151.339  10
  -2  10  -7 1737.64 136.124  10
   2  -9  -7 624.864 99.5548  12
   2  -9  -6 736.622 128.218  12
  -2   9   6 679.465 141.891  17
  -2   9   5 3485.70 290.186  17
  -2   9   4 8655.48 491.332  17
  -2   9   3 1314.01 237.140  17
  -2   9   2 1388.06 193.634  11
  -2   9   2 1366.41 236.665  17
  -2   9   1 19.5716 168.823  17
  -2   9   0 12.4197 143.331  17
  -2   9  -1 1074.07 215.983  17
  -2   9  -1 1109.24 161.885  10
  -2   9  -2 866.004 157.136  10
  -2   9  -2 756.375 195.840  17
  -2   9  -3 721.660 195.452  17
  -2   9  -3 559.187 145.006  10
  -2   9  -4 14359.9 583.820  10
  -2   9  -4 15299.5 649.815  17
  -2   9  -5 5895.88 384.982  10
  -2   9  -5 6115.89 335.547  13
  -2   9  -6 221.924 128.070  10
  -2   9  -7 110.230 89.9931  10
  -2   9  -8 454.800 92.5583  10
   2  -8  -8 6638.83 260.903  12
  -2   8   8 7325.27 281.218  17
   2  -8  -8 7307.57 269.635   9
  -2   8   7 6360.69 350.904  17
  -2   8   6 6532.13 411.942  17
  -2   8   5 290.746 152.606  17
  -2   8   4 17784.3 752.753  17
  -2   8   3 18471.0 776.842  17
  -2   8   2 29659.0 979.115  17
   2  -8  -1 28849.6 867.085   2
  -2   8   1 30455.0 975.958  17
  -2   8   0 2466.49 300.509  17
   2  -8   0 2132.57 244.537   2
  -2   8   0 2500.00 231.975  11
   2  -8   1 5022.94 388.151   2
  -2   8  -1 5354.77 414.463  17
  -2   8  -1 5340.05 340.159  10
  -2   8  -2 5857.84 426.014  17
  -2   8  -2 5006.84 346.455  10
  -2   8  -3 2582.75 302.606  17
  -2   8  -3 2085.15 260.409  10
  -2   8  -4 10799.9 554.072  10
  -2   8  -4 11173.3 581.790  17
  -2   8  -5 18857.4 746.999  10
  -2   8  -5 18827.3 648.136  13
  -2   8  -5 18489.9 730.822  17
  -2   8  -6 3333.58 340.816  10
  -2   8  -6 2906.51 249.866  13
  -2   8  -7 297.991 130.317  10
  -2   8  -8 171.545 110.882  10
  -2   8  -8 119.959 77.5748   8
  -2   8  -9 586.364 92.4126   8
  -2   7   9 2649.59 174.832  17
  -2   7   8 20139.5 612.090  17
   2  -7  -8 20926.4 648.481   6
   2  -7  -7 11690.4 543.968   6
  -2   7   7 12200.4 556.711  17
   2  -7  -6 32338.7 945.440   6
  -2   7   6 32076.7 970.024  17
  -2   7   5 1001.36 208.153  17
   2  -7  -5 1079.79 199.489   6
   2  -7  -4 3131.21 299.341   6
  -2   7   4 3326.47 338.806  17
  -2   7   3 19895.2 770.136  17
   2  -7  -3 20086.0 693.927   6
   2  -7  -3 19151.3 658.426   2
   2  -7  -2 28638.1 824.355   2
  -2   7   2 29898.7 914.101  17
   2  -7  -1 44241.8 1034.73   2
  -2   7   1 47550.1 1118.45  17
  -2   7   0 7438.38 444.967  17
   2  -7   0 6724.65 413.958   2
   2  -7   1 35695.0 949.861   2
  -2   7  -1 33828.6 928.050  17
   2  -7   2 9732.36 513.254   2
  -2   7  -2 9405.68 495.156  17
  -2   7  -2 8773.38 434.649  10
  -2   7  -3 15473.3 614.522  10
  -2   7  -3 15762.1 654.934  17
   2  -7   3 16022.3 663.775   2
   2  -7   4 855.768 203.694   2
  -2   7  -4 473.065 160.797  17
  -2   7  -4 548.231 170.093  10
  -2   7  -5 14133.1 642.704  17
  -2   7  -5 14854.5 695.656  10
  -2   7  -6 4038.90 318.435  13
  -2   7  -6 4332.10 410.999  10
  -2   7  -7 7737.16 542.087  10
  -2   7  -7 7387.29 393.681  13
  -2   7  -8 14967.5 661.560  10
  -2   7  -9 853.902 147.569   8
  -2   7 -10 826.764 98.4264   8
   2  -6  -9 145.246 112.666   6
  -2   6   9 170.488 97.6047  17
  -2   6   8 230.916 147.131  17
   2  -6  -8 55.7118 116.883   6
  -2   6   7 1258.18 224.844  17
   2  -6  -7 1162.67 199.538   6
  -2   6   6 3388.95 340.614  17
   2  -6  -6 3438.39 333.207   6
  -2   6   5 75009.5 1481.55  17
   2  -6  -5 73343.0 1403.21   6
   2  -6  -4 389.518 98.3132   2
  -2   6   4 500.793 164.157  17
   2  -6  -4 535.079 152.944   6
   2  -6  -3 1191.02 168.171   2
  -2   6   3 1147.88 211.136  17
   2  -6  -2 945.376 156.817   2
   2  -6  -1 7040.68 383.485   2
   2  -6   0 5434.53 342.018   2
   2  -6   1 2203.77 232.088   2
   2  -6   2 1006.63 174.316   2
  -2   6  -3 94.2246 76.0939   4
   2  -6   3 409.890 126.392   2
  -2   6  -4 10163.3 493.377  10
   2  -6   4 10771.3 516.960   2
  -2   6  -4 10680.9 507.828  17
   2  -6   5 1392.72 205.069   2
  -2   6  -5 1064.11 199.485  10
  -2   6  -5 1485.25 218.489  17
  -2   6  -6 1569.66 226.630  13
  -2   6  -6 1646.22 248.297  10
  -2   6  -7 2620.23 275.014  13
  -2   6  -7 2505.06 322.619  10
  -2   6  -8 6825.43 367.693  13
  -2   6  -8 7048.19 481.256  10
  -2   6  -9 6152.92 422.473   8
  -2   6 -10 1572.87 177.593   8
   2  -5 -10 20800.5 603.003   6
  -2   5  10 19774.8 542.722  17
   2  -5  -9 33793.5 923.728   6
   2  -5  -8 52823.0 1235.97   6
   2  -5  -7 18552.1 740.042   6
   2  -5  -6 7838.27 468.981   6
   2  -5  -5 59904.9 1183.13   6
   2  -5  -4 78719.8 1238.14   2
   2  -5  -3 103248. 1363.58   2
   2  -5  -2 151585. 1626.37   2
   2  -5  -1 38267.7 804.565   2
   2  -5   0 18858.2 565.290   2
   2  -5   1 14211.2 494.138   2
   2  -5   2 52083.5 967.438   2
  -2   5  -3 14701.2 495.911   4
   2  -5   3 14813.2 529.960   2
   2  -5   4 58458.7 1094.86   2
  -2   5  -4 61978.3 1033.43   4
  -2   5  -5 34749.4 793.673   4
   2  -5   5 35045.0 882.823   2
  -2   5  -5 33717.0 873.288  10
  -2   5  -6 22190.9 734.393  13
   2  -5   6 22470.3 723.538   2
  -2   5  -6 22143.1 768.353  10
  -2   5  -7 17263.8 718.598  10
  -2   5  -7 17681.7 657.213  13
  -2   5  -8 174.096 128.095  10
  -2   5  -8 23.4483 103.981   8
  -2   5  -8-107.624 104.689  13
  -2   5  -9 17662.1 712.717   8
  -2   5  -9 17004.6 541.570  13
  -2   5 -10 80.9704 79.3028   8
  -2   5 -11 4456.93 236.901   8
   2  -4 -11 2212.65 175.473   6
  -2   4  11 2087.13 153.122  17
   2  -4 -10 14445.8 567.465   6
   2  -4  -9 20930.9 777.017   6
   2  -4  -8 332.594 146.431   6
  -2   4   7 40000.6 899.418   1
   2  -4  -7 40986.0 1087.61  15
   2  -4  -7 39640.2 1067.04   6
   2  -4  -6 4963.91 357.355   6
   2  -4  -6 4685.29 356.734  15
  -2   4   6 5128.34 306.606   1
   2  -4  -5 18447.4 581.564   2
  -2   4   5 18560.2 523.923   1
   2  -4  -4 46745.5 882.771   2
  -2   4   4 45740.2 724.967   1
   2  -4  -3 264217. 1991.61   2
  -2   4   3 267342. 1507.35   1
  -2   4   2 135178. 882.216   1
   2  -4  -2 130206. 1344.96   2
   2  -4  -1 6615.60 297.041   2
   2  -4   0 43252.9 749.281   2
   2  -4   1 24354.5 571.016   2
   2  -4   2 68382.9 967.991   2
   2  -4   3 182.597 82.2650   2
  -2   4  -3 122.548 76.2193   4
  -2   4  -4 66724.6 1041.12   4
   2  -4   4 66282.1 1054.04   2
   2  -4   5 38405.1 842.722   2
  -2   4  -5 37867.5 832.016   4
  -2   4  -6 39464.4 868.063   4
  -2   4  -6 40950.4 939.065  13
  -2   4  -6 39986.2 961.783  10
  -2   4  -6 41898.9 859.667   9
  -2   4  -7 43428.0 1005.63  13
  -2   4  -7 42175.0 1064.77  10
  -2   4  -7 44765.6 938.641   9
  -2   4  -8 658.664 172.375  13
  -2   4  -8 597.215 173.214   8
  -2   4  -8 494.258 165.323  10
  -2   4  -8 324.474 132.651   9
  -2   4  -9 7631.41 397.692  13
  -2   4  -9 7312.29 468.922   8
  -2   4 -10 5248.47 356.957   8
  -2   4 -10 5677.45 284.265  13
  -2   4 -11 6462.21 306.974   8
   2  -3 -11 4027.31 261.976   6
   2  -3 -10 6440.74 410.973   6
   2  -3  -9 19852.2 776.210   6
   2  -3  -8 485.662 156.646  15
   2  -3  -8 729.288 182.401   6
   2  -3  -7 120.208 112.190  15
   2  -3  -7 162.951 104.422   6
  -2   3   7-32.2132 81.1821   1
   2  -3  -6 107673. 1521.11  15
  -2   3   6 103687. 1332.43   1
   2  -3  -6 108443. 1538.01   6
   2  -3  -5 6715.96 336.702   2
  -2   3   5 7105.64 318.785   1
   2  -3  -4 26488.1 627.020   2
  -2   3   4 27192.5 543.985   1
  -2   3   3 76419.6 780.719   1
   2  -3  -3 74330.3 972.817   2
   2  -3  -2 6926.81 280.924   2
  -2   3   2 7053.93 198.666   1
  -2   3   1 19252.1 239.760   1
   2  -3  -1 18226.1 427.498   2
   2  -3   0 13833.7 365.050   2
   2  -3   1 132262. 1119.75   2
   2  -3   2 87979.1 409.514   1
   2  -3   2 92298.0 962.630   2
   2  -3   3 75987.0 576.715   1
   2  -3   3 74471.4 915.955   2
  -2   3  -3 74247.8 983.779   4
   2  -3   4 30803.2 625.142   2
   2  -3   4 30987.4 464.714   1
  -2   3  -4 30095.0 676.856   4
  -2   3  -5 3577.83 259.085   4
   2  -3   5 3695.36 192.807   1
   2  -3   5 3776.98 240.953   2
  -2   3  -6 615.803 130.231  10
  -2   3  -6 789.993 145.584   4
  -2   3  -7 8207.18 415.388   9
  -2   3  -7 8470.45 474.671   8
  -2   3  -7 8227.91 437.853  13
  -2   3  -7 8782.77 471.891  10
  -2   3  -8 336.966 151.063   8
  -2   3  -8 243.361 143.377  13
  -2   3  -8 347.296 96.0982   9
  -2   3  -9 99.1024 105.258  13
  -2   3  -9 10.9589 104.704   8
  -2   3  -9 0.41387 86.1798   9
  -2   3 -10 39.9741 80.5190   8
  -2   3 -11 92.1312 86.3471   8
   2  -2 -11 17246.8 569.949   6
   2  -2 -10 20741.0 751.953   6
   2  -2  -9 20532.2 768.212  15
   2  -2  -9 20653.4 796.135   6
   2  -2  -8 48285.9 1165.25  15
   2  -2  -8 49258.6 1199.71   6
  -2   2   7 19356.2 628.985   1
   2  -2  -7 19211.6 681.580  15
  -2   2   6 115163. 1387.18   1
  -2   2   5 148755. 1407.41   1
   2  -2  -4 513656. 2610.52   2
  -2   2   4 517607. 2304.64   1
   2  -2  -3 127242. 1193.79   2
  -2   2   3 126593. 991.197   1
  -2   2   2 17159.7 311.415   1
   2  -2  -2 16817.4 397.062   2
   2  -2  -1 4411.78 191.430   2
  -2   2   1 4799.06 137.959   1
  -2   2   0 40834.9 311.021   1
   2  -2   0 38963.7 514.116   2
   2  -2   2 31874.0 465.879   2
  -2   2  -2 30713.6 294.698   3
  -2   2  -2 31891.5 559.342   4
   2  -2   3 92638.9 831.828   2
  -2   2  -3 94440.2 624.531   3
  -2   2  -3 92973.4 1057.99   4
  -2   2  -4 114338. 1281.08   4
   2  -2   4 115160. 994.019   1
  -2   2  -5 78405.2 1152.10   4
   2  -2   5 79818.4 957.480   1
   2  -2   6 155858. 1484.59   1
  -2   2  -7 4879.19 336.292   9
  -2   2  -7 5445.85 372.300   8
  -2   2  -7 4900.61 338.074  13
   2  -2   7 5702.48 318.992   1
  -2   2  -8 47291.2 1028.86   9
  -2   2  -8 46629.3 1135.74   8
  -2   2  -8 47436.7 1037.20  13
  -2   2  -9 13162.8 605.824   8
  -2   2  -9 13110.3 522.661   9
  -2   2  -9 13660.6 547.553  13
  -2   2 -10 5385.48 364.500   8
  -2   2 -11 3880.89 251.069   8
   2  -1 -11 1174.96 175.415   6
   2  -1 -10 1645.72 243.558   6
   2  -1  -9 3108.55 317.555  15
  -2   1   8 11095.6 512.688   1
   2  -1  -8 10284.3 531.405  15
   2  -1  -7 15274.8 592.842  15
  -2   1   7 14983.8 554.338   1
   2  -1  -7 15077.2 599.389   7
  -2   1   6 41000.3 829.896   1
  -2   1   5 116636. 1247.15   1
  -2   1   4 80119.0 922.437   1
  -2   1   3 150351. 1110.86   1
   2  -1  -3 146687. 1245.63   2
  -2   1   2 33185.9 462.893   1
   2  -1  -2 32139.4 525.102   2
   2  -1  -1 95108.6 797.449   2
  -2   1   1 93604.8 712.379   1
  -2   1  -1 138742. 911.412   3
   2  -1   1 137507. 738.616   2
  -2   1  -1 136880. 992.201   4
  -2   1  -2 68459.5 662.547   3
   2  -1   2 68690.8 484.726   2
  -2   1  -3 39506.3 560.667   3
   2  -1   3 39357.0 370.783   2
  -2   1  -3 38718.7 667.957   4
  -2   1  -4 67297.8 977.136   4
  -2   1  -4 68805.0 820.790   3
  -2   1  -5 287381. 2201.44   4
   2  -1   5 287216. 1977.03   1
   2  -1   6 62359.5 1008.10   1
  -2   1  -7 11494.9 519.552   9
  -2   1  -7 11472.0 524.782   8
   2  -1   7 11514.0 470.233   1
  -2   1  -7 12267.4 508.958  13
  -2   1  -8 33064.4 901.138   9
  -2   1  -8 33640.3 940.962   8
  -2   1  -8 33346.8 865.915  13
  -2   1  -9 15483.7 587.989  13
  -2   1  -9 15333.2 631.981   8
  -2   1  -9 14983.9 582.324   9
  -2   1 -10 5350.03 304.392   9
  -2   1 -10 5238.70 349.512   8
  -2   1 -11 12715.2 426.791   8
   2   0 -11 2251.59 225.125   6
   2   0 -10 6965.04 399.308  15
   2   0 -10 6262.38 333.982   8
   2   0 -10 6600.72 436.019   6
   2   0  -9 11370.2 492.210   8
   2   0  -9 10303.0 524.455  15
   2   0  -8 5152.28 323.735   8
   2   0  -8 4780.64 380.613   7
  -2   0   8 4864.01 345.893   1
   2   0  -8 4814.82 361.033  15
  -2   0   7 53237.3 1045.48   1
   2   0  -7 54049.0 1124.96   7
   2   0  -7 53185.4 1065.54  15
  -2   0   6 35350.1 776.990   1
  -2   0   5 6724.77 312.439   1
  -2   0   4 865.629 114.956   1
  -2   0   3 59782.4 749.286   1
  -2   0   2 319.084 73.8032   1
  -2   0   1 2535.17 146.779   1
  -2   0   0 170652. 1139.66   1
  -2   0   0 169842. 890.313   4
  -2   0  -1 19263.6 421.276   3
  -2   0  -1 19327.6 358.994   4
  -2   0  -2 77552.0 871.744   3
  -2   0  -2 78918.0 829.373   4
  -2   0  -3 28068.2 561.265   4
  -2   0  -3 28093.4 572.868   3
  -2   0  -4 2601.34 195.821   3
  -2   0  -5 65393.3 1015.19   3
   2   0   6 1475.44 175.778   1
   2   0   7 427.731 126.961   1
  -2   0  -7 655.472 153.219   9
  -2   0  -7 616.709 143.065   8
  -2   0  -8 60.8221 107.110   8
  -2   0  -8 139.565 107.196  13
  -2   0  -8 32.7584 108.538   9
  -2   0  -9 215.179 125.059   9
  -2   0  -9 47.8340 99.7250   8
  -2   0 -10 6223.29 334.577   9
  -2   0 -10 5711.02 348.264   8
  -2   0 -11 1113.01 144.610   8
   2   1 -11 4588.32 306.783   6
   2   1 -11 5458.50 261.669   8
   2   1 -10 27350.6 728.012   8
   2   1  -9 33315.4 984.868   7
   2   1  -9 32256.9 865.637   8
   2   1  -9 32608.0 884.508  15
   2   1  -8 4639.23 352.455  15
   2   1  -8 4709.97 374.818   7
  -2  -1   8 5006.70 353.636   1
   2   1  -7 78818.0 1291.08  15
   2   1  -7 81447.4 1424.35   7
  -2  -1   7 79397.8 1298.30   1
  -2  -1   6 131300. 1536.43   1
  -2  -1   5 107474. 1274.01   1
  -2  -1   4 80354.6 1012.80   1
  -2  -1   3 62281.3 834.388   1
  -2  -1   2 22940.7 486.319   1
  -2  -1   1 62839.2 780.082   1
  -2  -1   0 53429.6 467.200   4
  -2  -1   0 53958.5 775.992   3
  -2  -1   0 51854.0 729.760   1
  -2  -1  -1 78061.0 706.918   4
  -2  -1  -1 78959.3 968.980   3
  -2  -1  -2 63475.1 910.198   3
  -2  -1  -3 183498. 1698.44   3
  -2  -1  -4 323394. 2371.74   3
  -2  -1  -5 118671. 1557.03   3
  -2  -1  -6 42814.5 1018.34   9
  -2  -1  -6 42297.7 903.312   8
  -2  -1  -6 44348.2 895.158  13
  -2  -1  -6 41045.2 957.584   3
  -2  -1  -7 33807.2 968.816   9
  -2  -1  -7 34229.4 877.416   8
   2   1   7 35630.6 910.692   1
  -2  -1  -8 31374.0 953.085   9
  -2  -1  -8 30155.5 850.904   8
  -2  -1  -9 687.124 160.900   9
  -2  -1  -9 519.334 138.179   8
  -2  -1 -10 16407.2 540.518   9
  -2  -1 -10 16969.9 544.279   8
   2   2 -11 605.277 101.785   8
   2   2 -11 575.929 115.306   6
   2   2 -10 388.878 119.130   8
   2   2 -10 335.341 118.357   7
   2   2  -9 652.656 155.685   8
   2   2  -9 659.213 174.917   7
   2   2  -8 13829.5 648.170   7
   2   2  -7 14636.6 560.877  15
   2   2  -7 15910.1 660.456   7
  -2  -2   7 15506.9 595.412   1
  -2  -2   6 44950.0 945.504   1
  -2  -2   5 36790.5 792.094   1
  -2  -2   4 38148.0 761.100   1
  -2  -2   3 32169.6 662.830   1
  -2  -2   2 3674.85 225.612   1
  -2  -2   1 53167.1 815.625   1
  -2  -2   1 51999.3 867.730   3
  -2  -2   0 3126.34 226.699   3
  -2  -2  -1 9901.64 400.024   3
  -2  -2  -2 38645.1 807.608   3
  -2  -2  -3 45570.5 948.719   3
  -2  -2  -4 90391.8 1420.20   3
  -2  -2  -5 95104.3 1531.18   3
  -2  -2  -5 95146.4 1275.65   8
  -2  -2  -6 3460.13 332.405   9
  -2  -2  -6 3896.31 304.308   6
  -2  -2  -6 3596.19 326.390   3
  -2  -2  -6 3577.64 278.525   8
  -2  -2  -7 46618.6 1217.69   9
  -2  -2  -7 44929.2 1003.43   8
  -2  -2  -7 47615.0 1063.36   6
  -2  -2  -8 28971.9 962.468   9
  -2  -2  -8 28764.2 810.134   8
  -2  -2  -9 23772.1 694.869   8
  -2  -2  -9 24332.3 798.369   9
  -2  -2 -10 8164.81 380.434   9
   2   3 -11 1118.29 121.478   8
   2   3 -10 4028.70 295.597   8
   2   3 -10 4206.83 323.879   7
   2   3  -9 941.935 202.163   7
   2   3  -8 10994.9 591.708   7
  -2  -3   7 15564.1 617.219   1
   2   3  -7 15350.2 678.915   7
  -2  -3   6 5661.82 365.023   1
  -2  -3   5 3282.78 264.473   1
  -2  -3   4 7604.03 374.314   1
  -2  -3   3 212.179 100.150   1
  -2  -3   2 38564.8 781.066   1
  -2  -3   2 40054.4 825.015   3
  -2  -3   1 681.800 131.501   3
  -2  -3   1 759.213 132.598   1
  -2  -3   0 16244.2 540.792   3
  -2  -3  -1 34857.5 812.536   3
   2   3   1 36055.4 630.580   5
  -2  -3  -2 33096.8 833.765   3
  -2  -3  -3 49286.7 1089.03   3
  -2  -3  -4 15428.9 637.552   3
  -2  -3  -5 12850.8 512.992   8
  -2  -3  -5 11965.4 531.644   6
  -2  -3  -5 12821.5 611.999   3
  -2  -3  -6 12308.8 530.464   8
  -2  -3  -6 11308.9 540.941   6
  -2  -3  -6 11426.1 601.784   3
  -2  -3  -7 169.945 174.645   9
  -2  -3  -7 172.468 118.454   6
  -2  -3  -8 94.9530 147.357   9
  -2  -3  -9 1086.09 197.136   9
  -2  -3 -10 2224.14 181.315   9
   2   4 -11 6804.73 248.525   8
   2   4 -10 8084.61 388.012   8
   2   4 -10 8077.02 408.934   7
   2   4  -9 2482.77 271.430   7
   2   4  -8 10532.4 583.207   7
   2   4  -8 10427.7 521.989   5
   2   4  -7 59648.1 1105.21  10
   2   4  -7 61003.0 1326.10   5
  -2  -4   6 11619.0 525.164   1
   2   4  -6 12060.9 503.592  10
  -2  -4   5 10771.1 487.658   1
   2   4  -5 11184.8 467.644  10
  -2  -4   4 13282.2 522.832   3
  -2  -4   4 12598.7 519.630   1
  -2  -4   3 2319.39 237.652   1
  -2  -4   3 1994.85 209.110   3
  -2  -4   2 96091.9 1362.28   1
  -2  -4   2 100126. 1409.38   3
  -2  -4   1 17810.0 604.741   3
  -2  -4   0 44047.7 964.196   3
   2   4   0 47821.7 891.252   5
  -2  -4  -1 34484.2 880.396   3
   2   4   1 34583.2 706.056   5
  -2  -4  -2 50124.4 1122.29   3
  -2  -4  -3 112953. 1761.09   3
  -2  -4  -3 114946. 1582.05  12
  -2  -4  -4 70898.5 1443.26   3
  -2  -4  -4 70641.6 1303.30  12
  -2  -4  -5 23093.4 842.747   3
  -2  -4  -5 21250.6 726.740  12
  -2  -4  -6 31859.3 862.620  12
  -2  -4  -7 39663.4 1171.86   9
  -2  -4  -8 6171.61 434.607   9
  -2  -4  -9 6366.52 348.498   9
   2   5 -10 142.159 79.8435   8
   2   5 -10 167.562 81.7159   7
   2   5  -9 1479.74 208.789   7
   2   5  -8 6110.43 433.540   7
   2   5  -8 6347.60 355.589  10
   2   5  -7 1698.06 265.880   5
   2   5  -7 2044.49 221.187  10
   2   5  -6 3921.38 368.378   5
   2   5  -6 3833.51 302.880  10
   2   5  -5 393.875 174.804   5
   2   5  -5 382.245 109.043  10
   2   5  -4 7123.22 409.032  15
   2   5  -4 8040.13 509.676   5
   2   5  -4 8695.88 484.167  17
  -2  -5   4 7828.16 425.311   1
  -2  -5   3 18131.1 621.156   3
   2   5  -3 19915.9 749.785   5
   2   5  -3 18900.8 668.005  17
  -2  -5   2 2409.59 237.660   3
   2   5  -2 2068.19 249.543   5
   2   5  -1 259.050 127.088   5
  -2  -5   1 218.477 108.200  12
  -2  -5   1 166.935 93.1684   3
  -2  -5   1 272.887 89.9444   2
   2   5   0-49.7260 57.6929   5
  -2  -5   0-10.7914 46.4969  12
  -2  -5   0 126.454 101.149   3
  -2  -5  -1 4617.91 361.160   3
  -2  -5  -1 4903.61 346.313  12
  -2  -5  -2 5904.89 414.677   3
  -2  -5  -2 6472.32 416.582  12
  -2  -5  -3 25877.4 885.109   3
  -2  -5  -3 25979.1 827.552  12
  -2  -5  -4 24613.9 822.496  12
  -2  -5  -5 7906.46 468.102  12
  -2  -5  -6 7836.40 439.574  12
  -2  -5  -7 15965.2 663.053   9
  -2  -5  -8 2896.07 256.490   9
  -2  -5  -9 842.324 102.048   9
   2   6 -10 948.537 98.4778   8
   2   6  -9 110.049 84.8564   7
   2   6  -8 11903.1 547.192   7
   2   6  -8 11227.6 425.838  10
   2   6  -7 476.006 127.999  10
   2   6  -6 147.655 122.842   5
   2   6  -6 150.362 105.161  10
   2   6  -5 1703.72 230.760  10
   2   6  -5 1676.39 261.295   5
   2   6  -4 6139.93 461.636   5
   2   6  -4 6074.80 431.887  17
   2   6  -3 147691. 1977.20  17
   2   6  -3 150104. 2151.81   5
  -2  -6   3 149372. 1817.30  12
   2   6  -2 279.444 154.012  17
   2   6  -2 243.295 145.510   5
  -2  -6   2 450.248 141.604  12
  -2  -6   1 262.783 117.359  12
   2   6  -1 42.3096 102.263  17
   2   6  -1-10.3099 98.0261   5
  -2  -6   0 3698.51 318.016   3
  -2  -6   0 4016.38 337.673  12
  -2  -6  -1 742.586 161.027  12
  -2  -6  -1 1490.75 237.476   3
  -2  -6  -2 35154.6 991.134  12
  -2  -6  -3 4604.86 375.762  12
  -2  -6  -4 4876.50 382.102  12
  -2  -6  -5-159.305 123.950  12
  -2  -6  -6 1401.14 206.278   9
  -2  -6  -6 1174.55 169.831  12
  -2  -6  -7 311.112 111.140   9
  -2  -6  -8 220.588 71.2046   9
   2   7  -9 882.281 106.974   7
   2   7  -8 2178.04 205.321   7
   2   7  -8 2235.62 169.505  10
   2   7  -7 473.044 111.474  10
   2   7  -6 690.359 154.945  10
   2   7  -5 2551.25 297.841   5
   2   7  -5 2179.64 239.560  10
   2   7  -4 23189.3 852.185   5
   2   7  -4 23071.6 752.272  10
   2   7  -3 912.548 188.662  17
  -2  -7   3 911.239 169.348  12
   2   7  -3 1111.38 220.979   5
   2   7  -2-104.602 116.195  17
  -2  -7   2 80.9145 113.517  12
  -2  -7   1 11028.3 540.037  12
   2   7  -1 11047.3 521.275  17
  -2  -7   0 6106.91 418.336  12
  -2  -7  -1 21928.0 780.871  12
  -2  -7  -2 10744.7 547.755  12
  -2  -7  -3 5693.61 402.647  12
  -2  -7  -4 20268.6 692.592  12
  -2  -7  -5 6334.62 350.449   9
  -2  -7  -5 5903.39 342.015  12
  -2  -7  -6 3923.03 248.774   9
  -2  -7  -6 4229.09 240.683  12
   2   8  -7 477.208 86.1115  10
   2   8  -7 582.757 117.470   7
   2   8  -6 468.197 116.395  10
   2   8  -5 1832.03 200.677  10
   2   8  -4 9191.04 440.288  10
   2   8  -3 6499.00 391.085  10
  -2  -8   2 2601.55 245.998  12
   2   8  -2 2159.38 225.830  17
  -2  -8   1 2870.94 270.850  12
   2   8  -1 2569.19 236.888  17
  -2  -8   0 3916.84 317.363  12
  -2  -8  -1 7747.90 439.121  12
  -2  -8  -2 2787.12 264.195  12
  -2  -8  -3 8548.94 419.599  12
  -2  -8  -4 583.116 120.251  12
  -2  -8  -4 420.099 85.3772   9
  -2  -8  -5 664.910 105.749  12
   2   9  -6 63.4279 50.0607   7
   2   9  -5-5.14180 62.9147  10
   2   9  -4 10443.9 376.839  10
   2   9  -3 19.6295 71.5811  10
   2   9  -2 766.726 135.292  10
  -2  -9   1 574.450 113.565  12
   2   9   0 1522.10 135.727  15
  -2  -9   0 1432.86 170.880  12
  -2  -9  -1 2546.09 206.570  12
  -2  -9  -2 338.537 96.0806  12
  -2  -9  -3 1123.76 119.479  12
  -3  11   3 1501.65 157.208  17
  -3  11   2 1795.84 192.314  17
  -3  11   1 3578.05 268.778  17
  -3  11   0 74.9002 95.0139  17
  -3  11  -1 2603.67 223.347  17
  -3  11  -2 1158.82 164.218  17
  -3  11  -3 738.907 109.910  13
  -3  11  -3 968.534 139.074  17
   3 -10  -5 1543.36 153.277  12
  -3  10   5 1609.68 142.738  11
  -3  10   5 1644.39 175.280  17
  -3  10   4 263.711 118.683  17
   3 -10  -4 285.351 95.7571  12
  -3  10   4 377.004 107.909  11
  -3  10   3 393.436 140.697  17
   3 -10  -3 567.453 126.741  12
  -3  10   3 395.521 109.490  11
   3 -10  -2 5663.80 322.017  12
  -3  10   2 6025.63 324.045  11
  -3  10   2 5608.06 401.129  17
  -3  10   1 26.8255 138.278  17
  -3  10   1-102.410 99.7446  11
  -3  10   0 770.893 166.935  17
  -3  10  -1 804.777 184.789  17
  -3  10  -2 392.028 146.372  17
  -3  10  -3 134.380 113.982  17
  -3  10  -4 306.872 106.817  10
  -3  10  -4 352.954 104.340  13
  -3  10  -4 497.653 125.038  17
  -3  10  -5 1995.04 184.638  13
  -3  10  -5 2007.39 186.559  10
  -3  10  -6-150.114 77.0790  10
  -3   9   7 6187.06 281.960  17
   3  -9  -7 5181.65 247.907  12
  -3   9   6 9904.62 439.096  17
  -3   9   5 60004.7 1205.93  17
  -3   9   4 22008.1 792.212  17
  -3   9   3 4214.08 387.205  17
  -3   9   2 9890.05 567.702  17
  -3   9   2 9647.67 473.207  11
  -3   9   1 1883.22 224.316  11
  -3   9   1 1748.89 268.665  17
  -3   9   0 14917.2 561.186  11
  -3   9   0 14953.5 690.492  17
  -3   9  -1 4662.91 394.127  17
  -3   9  -1 4951.07 327.359  11
  -3   9  -2 371.716 156.961  17
  -3   9  -3 7905.41 416.885  10
  -3   9  -3 8180.39 474.676  17
  -3   9  -4 224.883 124.966  10
  -3   9  -4-2.09690 66.1432  17
  -3   9  -5 128.698 105.481  13
  -3   9  -5 42.6260 89.8118  10
  -3   9  -6 1687.68 184.257  13
  -3   9  -6 1601.27 195.959  10
  -3   9  -7 1118.20 120.561  13
  -3   9  -7 1209.32 162.250  10
  -3   8   8 3300.56 224.283  17
  -3   8   7 3001.18 270.205  17
  -3   8   6 9029.60 499.922  17
  -3   8   5 41580.4 1116.53  17
  -3   8   4 2027.96 284.575  17
  -3   8   3 75855.2 1554.79  17
  -3   8   2 32079.2 1001.05  17
  -3   8   1 12378.4 619.070  17
   3  -8   0 22800.7 809.690   2
  -3   8   0 21522.1 789.691  17
  -3   8   0 21239.1 691.241  11
  -3   8  -1 48.8384 135.045  17
   3  -8   1 113.761 120.065   2
  -3   8  -1 25.3697 107.358  11
  -3   8  -2 17365.8 692.655  17
  -3   8  -2 17167.6 611.852  11
  -3   8  -3 718.868 144.759  11
  -3   8  -3 460.133 126.635  10
  -3   8  -4 13623.6 530.689  11
  -3   8  -4 12204.3 579.906  10
  -3   8  -4 13763.4 611.264  17
  -3   8  -5 2283.80 272.243  13
  -3   8  -5 1769.87 248.764  10
  -3   8  -6 2135.01 252.517  13
  -3   8  -6 2340.72 284.666  10
  -3   8  -7 465.047 124.353  13
  -3   8  -7 363.401 145.079  10
  -3   8  -8 818.160 107.294  13
  -3   7   9 65.2423 76.4873  17
  -3   7   8 6587.24 388.818  17
   3  -7  -8 6480.80 360.333   6
  -3   7   7 12473.3 591.930  17
   3  -7  -7 12689.8 554.839   6
  -3   7   6 28016.6 933.645  17
   3  -7  -6 27174.9 839.164   6
  -3   7   5 304.235 162.686  17
   3  -7  -5 171.052 102.817   6
   3  -7  -4 30302.5 834.587   6
  -3   7   4 30773.4 976.660  17
   3  -7  -3 2721.98 279.775   2
  -3   7   3 3166.09 320.751  17
  -3   7   2 1710.34 223.471  17
   3  -7  -2 1313.62 214.510   2
  -3   7   1 4825.01 358.397  17
   3  -7  -1 4664.74 362.570   2
  -3   7   0 584.728 168.496  17
   3  -7   0 700.178 153.128   2
  -3   7  -1 16500.4 623.755  17
  -3   7  -1 15702.5 569.044  11
  -3   7  -1 14952.3 533.207  18
   3  -7   1 15804.7 648.696   2
   3  -7   2 719.628 163.073   2
  -3   7  -2 728.020 161.371  17
  -3   7  -2 1015.39 161.639  11
  -3   7  -2 471.149 123.164  18
  -3   7  -3 82.2196 91.4959  17
   3  -7   3 45.2894 102.614   2
  -3   7  -3 112.312 84.9374   4
  -3   7  -3 173.556 93.9864  11
  -3   7  -3-12.4129 85.1049  10
  -3   7  -4 3682.23 301.520  11
  -3   7  -4 3391.95 319.239  10
  -3   7  -4 3581.40 314.674  17
   3  -7   4 3917.11 336.210   2
  -3   7  -5 463.220 178.596  13
  -3   7  -5 217.181 136.763  10
  -3   7  -6 7486.69 479.324  13
  -3   7  -6 6618.01 476.104  10
  -3   7  -7 1253.38 202.146   8
  -3   7  -7 1204.41 211.265  13
  -3   7  -7 1233.89 239.330  10
  -3   7  -8 605.230 140.907   8
  -3   7  -8 697.467 144.936  13
  -3   7  -9 9159.19 300.834  13
  -3   7  -9 8817.30 340.791   8
  -3   6  10 33.3240 63.6954  17
   3  -6 -10 153.707 72.5679   6
  -3   6   9 3299.53 269.948  17
   3  -6  -9 3272.20 263.909   6
   3  -6  -8 23228.9 761.211   6
  -3   6   8 23382.5 792.124  17
   3  -6  -7 23234.7 795.664   6
   3  -6  -6 114034. 1750.56   6
   3  -6  -5 23683.6 769.711   2
   3  -6  -5 25787.9 795.966   6
   3  -6  -4 56847.6 1197.92   2
   3  -6  -4 57917.2 1102.71   6
  -3   6   3 31226.5 874.197  17
   3  -6  -3 29125.7 843.797   2
   3  -6  -2 31074.9 853.292   2
   3  -6  -1 50814.7 1069.48   2
   3  -6   0 410.154 116.974   2
   3  -6   1 25723.0 761.325   2
   3  -6   2 18454.9 655.445   2
   3  -6   3 36987.7 934.247   2
  -3   6  -3 37131.2 924.835   4
  -3   6  -4 1578.21 217.389  10
  -3   6  -4 1910.41 229.075  11
   3  -6   4 1854.73 221.370   2
  -3   6  -4 1491.76 206.804   4
  -3   6  -5 40978.2 965.394   4
  -3   6  -5 41929.8 1082.45  13
  -3   6  -5 41123.0 1043.19  10
  -3   6  -5 43909.3 1004.05  11
   3  -6   5 43861.5 1038.41   2
  -3   6  -6 6513.31 455.347  13
  -3   6  -6 7070.18 474.083  10
  -3   6  -7 7404.63 449.847   8
  -3   6  -7 8319.65 482.818  13
  -3   6  -7 8092.52 510.329  10
  -3   6  -8 27978.8 839.223   8
  -3   6  -8 30592.9 832.472  13
  -3   6  -9 266.589 108.108   8
  -3   6  -9 207.852 94.8367  13
  -3   6 -10 4186.50 223.209   8
  -3   5  10 597.983 125.549  17
   3  -5 -10 491.610 121.028   6
   3  -5  -9 267.293 135.351   6
   3  -5  -8 6186.27 428.086   6
   3  -5  -7 2621.26 280.396   6
   3  -5  -6 115704. 1756.22  15
   3  -5  -6 118189. 1755.26   6
   3  -5  -5 54698.3 1132.43   2
   3  -5  -5 53638.5 1113.09  15
   3  -5  -5 56384.3 1130.69   6
   3  -5  -4 80905.1 1351.21   2
   3  -5  -3 108531. 1502.75   2
   3  -5  -2 12161.2 490.538   2
   3  -5  -1 53603.7 995.141   2
   3  -5   0 31364.3 747.359   2
   3  -5   1 46537.2 919.145   2
   3  -5   2 55979.1 1021.39   2
   3  -5   3 27812.3 733.427   2
  -3   5  -3 27656.0 762.554   4
   3  -5   4 12138.3 504.954   2
  -3   5  -4 12283.5 528.321   4
  -3   5  -5 42.6509 74.5889   4
  -3   5  -5-49.1347 99.7391  10
  -3   5  -5 101.110 97.0296   9
  -3   5  -5-110.642 92.9117  13
  -3   5  -5 172.993 106.409  11
  -3   5  -6 11336.2 521.959   4
  -3   5  -6 11532.6 563.324  13
  -3   5  -6 11252.9 557.060  10
  -3   5  -6 12100.4 533.862   9
  -3   5  -7 18026.8 694.241   8
  -3   5  -7 19883.3 743.202  13
  -3   5  -7 20040.7 774.152  10
  -3   5  -7 20523.9 707.086   9
  -3   5  -8 62681.7 1286.56   8
  -3   5  -8 64636.6 1263.11  13
  -3   5  -9 28690.9 807.707   8
  -3   5  -9 30522.9 759.133  13
  -3   5 -10 176.149 97.3438   8
  -3   5 -10 374.244 90.5989  13
  -3   4  11 2524.90 180.284  17
   3  -4 -11 2836.60 197.828   6
   3  -4 -10 17.6163 81.2863   6
   3  -4  -9 8192.35 484.371   6
   3  -4  -8 26174.8 894.027  15
   3  -4  -8 26308.0 886.803   6
   3  -4  -7 44375.4 1134.27  15
   3  -4  -7 48039.4 1168.69   6
  -3   4   6 4236.30 281.273   1
   3  -4  -6 4249.85 345.951  15
   3  -4  -6 3983.70 319.987   6
   3  -4  -5-19.4196 70.1652   2
  -3   4   5 78.2663 77.2570   1
  -3   4   4 3824.77 218.979   1
   3  -4  -4 3897.62 286.018   2
   3  -4  -3 2169.79 209.664   2
  -3   4   3 2628.44 157.728   1
   3  -4  -2 10971.7 427.080   2
   3  -4  -1 8295.03 357.432   2
   3  -4   0 568.034 106.810   2
   3  -4   1 22788.2 566.608   2
   3  -4   2 75128.6 1032.86   2
  -3   4  -3 1373.16 174.449   4
   3  -4   3 1361.91 156.649   2
  -3   4  -4 11827.8 498.508   4
   3  -4   4 12037.9 438.485   2
  -3   4  -5 468.851 120.659   9
  -3   4  -5 334.447 117.943   4
  -3   4  -5 115.163 125.388  13
  -3   4  -5 357.392 105.561  10
  -3   4  -6 343.813 135.800   9
  -3   4  -6-108.768 106.622   8
  -3   4  -6 535.583 157.028  13
  -3   4  -6 196.966 131.041  10
  -3   4  -6 768.054 163.942   4
  -3   4  -7 13379.5 595.640   8
  -3   4  -7 12573.7 586.184  13
  -3   4  -7 14186.4 582.626   9
  -3   4  -8 30500.7 906.276   8
  -3   4  -8 31345.3 886.409  13
  -3   4  -8 31785.7 855.840   9
  -3   4  -9 943.950 179.932   8
  -3   4  -9 956.205 174.490  13
  -3   4  -9 1173.26 162.982   9
  -3   4 -10 7537.67 370.235   8
  -3   4 -10 8326.86 351.163  13
  -3   4 -11 2256.22 153.417   8
   3  -3 -11 861.028 133.040   6
   3  -3 -10 6617.61 406.332   6
   3  -3  -9 42831.5 1112.22  15
   3  -3  -9 42627.8 1124.21   6
   3  -3  -8 31418.4 968.780  15
   3  -3  -8 30583.6 961.299   6
   3  -3  -7 183943. 2230.04  15
  -3   3   7 183712. 1960.74   1
   3  -3  -6 63987.7 1210.30  15
  -3   3   6 63658.0 1075.05   1
  -3   3   5 89123.6 1156.80   1
  -3   3   4 35684.1 661.073   1
   3  -3  -4 35205.4 797.393   2
  -3   3   3 53709.0 709.340   1
   3  -3  -3 52609.7 916.228   2
   3  -3  -2 148692. 1425.94   2
  -3   3   2 148292. 1042.37   1
   3  -3  -1 33972.9 644.087   2
  -3   3   1 36095.3 426.372   1
   3  -3   0 73742.5 902.891   2
  -3   3  -1 111603. 666.809   3
   3  -3   1 113957. 1082.81   2
   3  -3   2 103482. 1034.37   2
  -3   3  -3 4793.86 293.191   4
   3  -3   3 4910.69 232.774   2
  -3   3  -4 35972.3 832.538   4
  -3   3  -5 58498.7 1125.13   4
  -3   3  -6 88486.4 1442.44   4
  -3   3  -6 89039.1 1423.88  13
  -3   3  -6 87627.9 1355.00   8
  -3   3  -6 92090.4 1416.20   9
  -3   3  -7 102945. 1580.47   9
  -3   3  -7 99917.3 1579.54   8
  -3   3  -8 12919.4 584.726   8
  -3   3  -8 12636.8 569.031  13
  -3   3  -8 13463.6 571.335   9
  -3   3  -9 753.589 147.730   9
  -3   3  -9 710.099 177.173   8
  -3   3  -9 615.510 158.298  13
  -3   3 -10 653.335 114.438   9
  -3   3 -10 699.579 150.226   8
  -3   3 -11 82.2923 62.8884   8
   3  -2 -11 7076.01 365.154   6
   3  -2 -10 315.569 142.475   6
   3  -2 -10 391.250 137.424  15
   3  -2  -9 8043.85 491.343  15
   3  -2  -9 7421.70 484.545   6
   3  -2  -8 731.694 185.039  15
  -3   2   7 44858.0 982.198   1
   3  -2  -7 46199.2 1097.67  15
   3  -2  -6 102786. 1479.77  15
   3  -2  -6 98658.8 1489.60   7
  -3   2   6 98801.4 1353.53   1
  -3   2   5 81974.5 1123.60   1
  -3   2   4 120120. 1231.35   1
   3  -2  -4 121826. 1430.10   2
  -3   2   3 14372.5 391.493   1
   3  -2  -3 14479.7 459.720   2
   3  -2  -2 104004. 1132.54   2
  -3   2   2 102619. 945.292   1
   3  -2  -1 30122.5 560.722   2
  -3   2   1 30544.8 495.541   1
   3  -2   0 47882.3 646.750   2
  -3   2  -1 67526.4 733.391   3
   3  -2   1 67637.5 724.400   2
  -3   2  -2 106825. 846.584   3
   3  -2   2 108808. 861.148   2
  -3   2  -2 105868. 1196.48   4
  -3   2  -3 15823.9 501.040   4
  -3   2  -3 15925.4 339.864   3
  -3   2  -4 33482.7 782.425   4
  -3   2  -5 56968.7 1092.85   4
   3  -2   5 60154.0 878.773   1
  -3   2  -6 14865.1 585.280   9
  -3   2  -6 15032.4 552.079   8
  -3   2  -6 15617.8 585.499  13
  -3   2  -7 121547. 1705.17   8
  -3   2  -7 117479. 1676.06  13
  -3   2  -7 120671. 1746.91   9
  -3   2  -8 25235.8 802.301   9
  -3   2  -8 24454.5 791.782   8
  -3   2  -8 25827.6 790.970  13
  -3   2  -9 24422.9 740.602   9
  -3   2  -9 26312.3 786.475   8
  -3   2  -9 25429.7 743.854  13
  -3   2 -10 1903.59 196.630   8
  -3   2 -10 1991.66 183.853   9
  -3   2 -11 1429.93 137.702   8
   3  -1 -11 1415.24 178.980   6
   3  -1 -10 6741.61 408.496  15
   3  -1 -10 6398.52 427.507   6
   3  -1  -9 37612.1 1025.73  15
   3  -1  -8 102457. 1682.82  15
   3  -1  -8 102523. 1738.26   7
   3  -1  -7 87207.4 1466.86  15
   3  -1  -7 85080.2 1506.27   7
  -3   1   7 85279.1 1373.66   1
  -3   1   6 2241.68 220.422   1
  -3   1   5 1785.47 177.759   1
  -3   1   4 4085.18 246.854   1
  -3   1   3 73971.7 935.346   1
  -3   1   2 12392.0 364.199   1
   3  -1  -2 12149.8 375.799   2
   3  -1  -1 11174.8 323.756   2
  -3   1   1 11262.0 338.111   1
   3  -1   0 32335.9 489.282   2
  -3   1   0 33601.4 578.675   1
  -3   1  -1 48932.5 708.961   4
  -3   1  -1 50964.3 749.902   3
   3  -1   1 49865.5 523.515   2
  -3   1  -2 117.971 78.8520   4
  -3   1  -2 382.654 86.4336   3
  -3   1  -3 7905.33 346.428   4
  -3   1  -3 7767.69 303.019   3
  -3   1  -4 9454.37 411.752   4
  -3   1  -4 9129.46 344.297   3
  -3   1  -5 4110.88 294.771   4
  -3   1  -6 26003.5 786.954   9
  -3   1  -6 26436.3 724.025   8
  -3   1  -6 25814.5 733.736  13
   3  -1   6 25270.1 673.139   1
  -3   1  -7 14949.7 641.525   9
  -3   1  -7 15078.6 598.355   8
  -3   1  -7 15286.8 598.692  13
  -3   1  -8 3479.93 325.404   9
  -3   1  -8 3687.42 308.231  13
  -3   1  -8 3583.79 311.136   8
  -3   1  -9 4020.35 321.579   9
  -3   1  -9 4375.75 325.245   8
  -3   1 -10 2614.74 214.799   9
  -3   1 -10 2914.21 234.733   8
  -3   1 -11 4470.71 214.726   8
   3   0 -11 3043.09 256.801   6
   3   0 -10 26852.2 767.007  15
   3   0  -9 8292.78 475.781  15
   3   0  -9 8047.00 499.901   7
   3   0  -8 9365.43 546.592   7
   3   0  -8 9094.82 506.984  15
   3   0  -7 142185. 1874.44  15
   3   0  -7 146787. 1986.15   7
  -3   0   7 145402. 1840.95   1
  -3   0   6 80499.4 1282.08   1
  -3   0   5 44278.0 888.362   1
  -3   0   4 23207.7 600.307   1
  -3   0   3 16129.1 476.497   1
  -3   0   2 147521. 1364.67   1
  -3   0   1 173347. 1468.15   1
  -3   0   1 176683. 986.369   4
  -3   0   0 88620.5 797.396   4
  -3   0   0 87728.3 1105.37   3
  -3   0   0 85574.5 1043.62   1
  -3   0  -1 196823. 1353.79   4
  -3   0  -1 193532. 1650.55   3
  -3   0  -2 58004.3 823.675   4
  -3   0  -2 58112.7 928.779   3
  -3   0  -3 34895.6 703.135   4
  -3   0  -3 33807.3 744.042   3
  -3   0  -4 54346.2 976.129   3
  -3   0  -5 73607.5 1181.97   3
  -3   0  -6 165679. 2067.48   9
  -3   0  -6 168913. 1827.10   8
  -3   0  -6 169511. 1841.65  13
  -3   0  -7 20078.5 763.443   9
  -3   0  -7 19969.9 681.009   8
  -3   0  -7 20157.2 675.888  13
  -3   0  -8 14993.5 595.138   8
  -3   0  -8 14397.9 651.747   9
  -3   0  -9 2434.05 258.723   9
  -3   0  -9 2081.46 227.095   8
  -3   0 -10 2970.23 232.040   8
  -3   0 -10 2380.85 211.563   9
   3   1 -11 199.918 96.9004   6
   3   1 -10 385.445 108.739  15
   3   1  -9 709.762 164.547  15
   3   1  -9 430.955 143.349   7
   3   1  -8 129562. 2007.33   7
   3   1  -8 126946. 1816.45  15
   3   1  -7 14793.1 611.809  15
   3   1  -7 15731.7 676.222   7
  -3  -1   7 15382.4 621.695   1
   3   1  -6 13973.6 557.993  15
  -3  -1   6 13567.9 553.338   1
   3   1  -6 13818.9 579.101   7
  -3  -1   5 2676.75 242.932   1
  -3  -1   4 5734.03 327.338   1
  -3  -1   3 253567. 2026.38   1
  -3  -1   2 38029.2 765.903   1
  -3  -1   1 21717.8 577.906   1
  -3  -1   0 84299.2 1189.74   3
  -3  -1   0 83719.0 710.154   4
  -3  -1  -1 198116. 1872.49   3
  -3  -1  -2 668.744 137.465   3
  -3  -1  -3 21694.9 676.622   3
  -3  -1  -4 41453.1 971.823   3
  -3  -1  -5 19200.2 687.246   9
  -3  -1  -5 19187.8 584.427   8
  -3  -1  -5 19897.3 584.796  13
  -3  -1  -5 18934.3 679.312   3
  -3  -1  -6 117601. 1844.94   9
  -3  -1  -6 116990. 1562.08   8
  -3  -1  -6 117101. 1683.65   3
  -3  -1  -7 14452.3 677.683   9
  -3  -1  -7 14247.9 571.576   8
  -3  -1  -8 28118.5 926.509   9
  -3  -1  -8 26845.7 767.773   8
  -3  -1  -9 6507.86 411.600   9
  -3  -1  -9 7301.88 385.718   8
  -3  -1 -10 1080.66 144.734   9
   3   2 -11 642.329 118.850   6
   3   2 -10 3217.83 292.967   7
   3   2  -9 12333.4 527.727  15
   3   2  -9 12031.0 487.277   8
   3   2  -9 12650.5 622.670   7
   3   2  -8 339.982 136.353  15
   3   2  -8 111.407 123.449   7
  -3  -2   7 312.315 136.272   1
   3   2  -7 229.019 112.644  15
   3   2  -7 160.620 112.951   7
  -3  -2   6 4296.18 334.191   1
   3   2  -6 5092.09 345.908  15
   3   2  -6 4496.56 352.897   7
  -3  -2   5 1234.33 183.863   1
  -3  -2   4 1497.00 194.055   1
  -3  -2   3 30078.5 756.891   1
  -3  -2   2 20799.0 624.095   1
  -3  -2   2 20921.8 666.056   3
  -3  -2   1 163.348 93.2008   1
  -3  -2   1 234.465 113.632   3
  -3  -2   0 13088.6 530.827   3
  -3  -2  -1 36150.7 880.656   3
  -3  -2  -2 9090.76 465.060   3
  -3  -2  -3 258.503 125.629   3
  -3  -2  -4 1469.87 191.259   8
  -3  -2  -4 983.730 181.924   3
  -3  -2  -5 24054.4 832.644   9
  -3  -2  -5 24217.8 836.500   3
  -3  -2  -5 23919.6 698.213   8
  -3  -2  -6 19384.8 791.315   9
  -3  -2  -6 19381.4 657.205   8
  -3  -2  -7 6129.63 469.858   9
  -3  -2  -7 7116.50 427.741   8
  -3  -2  -8 2460.65 310.212   9
  -3  -2  -8 2260.67 212.887  18
  -3  -2  -9-75.0844 129.388   9
  -3  -2 -10 2847.61 199.173   9
   3   3 -11 1009.78 108.422   6
   3   3 -10 2324.26 188.175   8
   3   3 -10 2485.48 243.197   7
   3   3  -9 22916.7 807.071   7
   3   3  -8 10124.6 484.658  15
   3   3  -8 9548.34 565.000   7
   3   3  -7 9595.85 496.077  15
   3   3  -7 9440.71 559.409   7
   3   3  -6 4121.95 342.604  15
  -3  -3   6 4386.60 350.168   1
   3   3  -5 6155.46 394.393  15
  -3  -3   5 6044.10 399.388   1
  -3  -3   4 62428.0 1203.33   1
  -3  -3   3 51804.7 1117.40   3
  -3  -3   3 52433.8 1084.24   1
  -3  -3   2 103306. 1496.10   1
  -3  -3   2 102788. 1551.84   3
  -3  -3   1 52517.5 1113.05   3
  -3  -3   0 101568. 1560.48   3
  -3  -3  -1 246.551 122.026   3
  -3  -3  -2 19832.1 731.181   3
  -3  -3  -3 41376.3 1099.15   3
  -3  -3  -3 39660.7 932.189  12
  -3  -3  -4 51760.6 1246.84   3
  -3  -3  -4 47260.1 1039.65  12
  -3  -3  -5 200827. 2507.09   9
  -3  -3  -6 3719.31 376.112   9
  -3  -3  -7 9816.74 584.359   9
  -3  -3  -8 19022.7 730.087   9
  -3  -3  -8 20172.1 621.326  18
  -3  -3  -9 7660.72 377.827   9
   3   4 -10 158.104 45.3779   8
   3   4 -10 51.5937 64.7921   7
   3   4  -9 7678.61 447.952   7
   3   4  -8 3117.48 331.341   7
   3   4  -7 653.653 136.386  15
   3   4  -7 616.802 177.357   5
   3   4  -7 610.320 183.033   7
   3   4  -6 1312.98 214.297  15
   3   4  -5 129.815 104.359  15
  -3  -4   5 233.160 116.377   1
   3   4  -5 179.441 105.011  10
  -3  -4   4 10683.5 529.512   3
   3   4  -4 10626.7 530.039  15
  -3  -4   4 11124.1 517.178  12
  -3  -4   4 11366.4 551.327   1
  -3  -4   3 27962.5 858.561   3
  -3  -4   3 28930.6 858.166   1
  -3  -4   3 30189.5 827.780  12
  -3  -4   2 480.858 144.737  12
  -3  -4   2 301.339 123.825   3
  -3  -4   1 19787.2 729.365   3
  -3  -4   1 21315.7 694.307  12
  -3  -4   0 39369.7 1037.29   3
  -3  -4   0 38669.6 943.772  12
   3   4   0 36892.7 839.412   5
  -3  -4  -1 26614.9 873.159   3
  -3  -4  -1 27977.2 821.129  12
  -3  -4  -2 23215.3 843.392   3
  -3  -4  -2 22896.6 768.686  12
  -3  -4  -3 6346.49 463.786   3
  -3  -4  -3 5933.93 406.481  12
  -3  -4  -4 2072.06 260.273  12
  -3  -4  -5-105.129 122.264   9
  -3  -4  -5 91.4962 112.665  12
  -3  -4  -6 34808.4 1030.15   9
  -3  -4  -7 25641.5 823.649   9
  -3  -4  -8 6046.66 349.334   9
  -3  -4  -8 6499.47 303.135  18
  -3  -4  -9 2015.67 146.566   9
   3   5 -10 2378.68 171.756   7
   3   5  -9 38.9532 80.9090   7
   3   5  -8 1771.10 242.180   7
   3   5  -7 1230.85 226.882   7
   3   5  -6 2003.62 228.460  15
   3   5  -6 2762.31 319.828   5
   3   5  -6 2293.16 228.757  10
   3   5  -5 12131.5 554.427  15
   3   5  -5 13069.1 662.261   5
   3   5  -5 12845.1 531.694  10
   3   5  -4 9303.91 559.080   5
   3   5  -4 7914.96 469.072  15
  -3  -5   4 8215.10 459.107  12
  -3  -5   3 5553.58 390.077  12
   3   5  -3 5866.45 436.128   5
  -3  -5   2 126.425 108.367  12
  -3  -5   2-130.708 119.024   3
   3   5  -2 316.363 145.269   5
   3   5  -1 908.968 179.727   5
  -3  -5   1 781.229 178.760  12
  -3  -5   1 727.020 164.518   3
  -3  -5   0 106.730 88.0877  12
  -3  -5   0 194.398 140.448   3
  -3  -5  -1 214.834 97.5142  12
  -3  -5  -1 81.3529 148.984   3
  -3  -5  -2 4019.83 352.607  12
  -3  -5  -3 2695.82 294.538  12
  -3  -5  -4 18172.7 710.257  12
  -3  -5  -5 1311.07 205.838   9
  -3  -5  -5 1247.71 192.659  12
  -3  -5  -6 297.756 126.539   9
  -3  -5  -7 359.549 104.026   9
  -3  -5  -8 2165.78 153.876   9
   3   6  -9 344.569 82.9197   7
   3   6  -8 932.456 155.930   7
   3   6  -7 881.861 183.450   7
   3   6  -6 290.710 121.761  10
   3   6  -5 4449.93 309.372  15
   3   6  -5 5562.85 345.896  10
   3   6  -5 5355.88 419.900   5
   3   6  -4 9661.86 489.299  15
   3   6  -4 10168.0 568.277   5
   3   6  -3 14575.9 628.472  15
  -3  -6   3 16235.6 646.925  12
   3   6  -3 15612.6 694.299   5
   3   6  -2 19631.5 738.812   5
  -3  -6   2 19054.5 722.607  12
  -3  -6   1 16524.9 684.218  12
  -3  -6   0 4821.94 386.754  12
  -3  -6  -1 7548.19 475.395  12
  -3  -6  -2 605.191 174.489  12
  -3  -6  -3 4283.45 357.009  12
  -3  -6  -4 26688.4 726.281   9
  -3  -6  -4 25855.2 790.320  12
  -3  -6  -5 10663.3 438.774   9
  -3  -6  -5 9959.00 433.483  12
  -3  -6  -6 1802.57 171.749   9
  -3  -6  -7 18182.5 382.878  18
   3   7  -8 442.020 93.6985   7
   3   7  -7 678.414 138.490   7
   3   7  -6 10.5014 78.4473  10
   3   7  -5 381.342 122.832  10
   3   7  -4 13999.1 533.823  10
   3   7  -3-130.060 106.861  15
  -3  -7   3 96.5838 107.739  12
   3   7  -2 2294.26 250.583  15
  -3  -7   2 1944.51 235.271  12
  -3  -7   1 7954.64 456.659  12
  -3  -7   0 2532.06 276.674  12
  -3  -7  -1 2327.08 264.557  12
  -3  -7  -2 219.580 126.154  12
  -3  -7  -3 13.5836 83.6298  12
  -3  -7  -4 1688.81 183.791  12
  -3  -7  -5 1841.46 160.386  12
   3   8  -6 3977.38 219.690   7
   3   8  -5 2837.38 188.221  10
   3   8  -4 99.8080 71.7655  10
   3   8  -3 1126.91 157.444  10
   3   8  -2 1023.69 145.018  15
  -3  -8   2 803.565 137.474  12
   3   8  -1 681.106 134.382  15
  -3  -8   1 665.360 141.234  12
  -3  -8   0 234.972 115.390  12
  -3  -8  -1-13.1404 90.9211  12
  -3  -8  -2 573.112 131.850  12
  -3  -8  -3 2607.38 188.267  12
   3   9  -3 4580.63 190.600  10
   3   9  -2 66.3397 64.0059  10
   3   9  -1 492.325 81.3351  10
   3   9   0 877.745 92.6795  10
  -4  11   3 111.849 74.8577  17
  -4  11   2 6222.10 243.397  11
  -4  11   2 7339.23 333.790  17
  -4  11   1 323.928 111.693  17
  -4  11   1 583.888 91.9165  11
  -4  11   0 2889.68 229.923  17
  -4  11  -1-76.2681 74.6681  17
  -4  11  -2 417.209 98.2461  17
  -4  11  -3 3697.42 228.616  13
  -4  11  -4 962.735 113.640  13
  -4  10   6 1988.98 150.753  17
  -4  10   5 3447.64 241.817  17
  -4  10   5 3181.30 205.233  11
  -4  10   4 8000.42 351.928  11
  -4  10   4 7396.31 390.052  17
  -4  10   3 4815.20 299.425  11
  -4  10   3 4501.75 327.041  17
  -4  10   2 2690.96 245.684  11
  -4  10   2 3000.02 290.947  17
  -4  10   1 2425.98 236.087  11
  -4  10   1 2848.58 285.032  17
  -4  10   0 1599.55 200.434  11
  -4  10   0 1852.24 231.090  17
  -4  10  -1 253.082 93.4280  17
  -4  10  -1 263.702 113.059  11
  -4  10  -2 835.728 161.709  17
  -4  10  -2 1010.23 161.966  11
  -4  10  -3 95.4570 91.7944  17
  -4  10  -4 469.626 130.514  13
  -4  10  -5 3265.26 233.250  13
  -4  10  -6 2701.77 172.060  13
  -4   9   7 8275.64 328.064  17
  -4   9   6 5549.86 331.170  17
  -4   9   5 6085.85 390.844  17
  -4   9   4 17395.1 687.454  17
  -4   9   3 14975.5 656.257  17
  -4   9   2 17418.3 659.401  11
  -4   9   2 17308.3 713.089  17
  -4   9   1 15055.4 608.916  11
  -4   9   1 14827.9 651.934  17
  -4   9   0 4427.21 342.823  11
  -4   9   0 4475.82 360.485  17
  -4   9  -1 1405.38 222.670  17
  -4   9  -1 1351.37 211.897  11
  -4   9  -2 13557.8 556.379  11
  -4   9  -2 13393.1 571.690  17
  -4   9  -3 805.190 154.651  17
  -4   9  -3 808.719 161.933  11
  -4   9  -4 4470.38 310.138  11
  -4   9  -4 4008.84 280.986  10
  -4   9  -5 3055.95 285.238  13
  -4   9  -5 2323.15 219.894  10
  -4   9  -6 1294.03 175.099  13
  -4   9  -6 1424.89 168.827  10
  -4   9  -7 1425.71 146.922  13
  -4   8   8 379.816 94.1049  17
  -4   8   7 866.920 165.942  17
  -4   8   6 304.505 151.324  17
  -4   8   5 86.9769 157.335  17
  -4   8   4 7708.72 498.894  17
  -4   8   3 6302.51 451.643  17
  -4   8   2 4016.54 358.986  17
  -4   8   1 5391.82 400.906  17
  -4   8   1 5950.69 415.065  11
  -4   8   0 1143.90 210.233  17
  -4   8   0 1166.54 219.427  11
  -4   8  -1 50.2651 97.6947  17
  -4   8  -1 233.837 109.241  11
  -4   8  -2 5186.41 374.118  11
  -4   8  -2 4956.69 364.419  17
  -4   8  -3 257.737 131.845  11
  -4   8  -4 1482.27 209.389  10
  -4   8  -4 1862.39 222.859  11
  -4   8  -5-374.342 178.055  13
  -4   8  -5 78.1019 121.734  10
  -4   8  -6 200.201 113.866  10
  -4   8  -6 289.248 143.319  13
  -4   8  -7 2834.16 248.683  13
  -4   8  -8 2927.49 199.066  13
  -4   7   9 4625.47 254.026  17
   4  -7  -9 4114.76 204.152   6
  -4   7   8 16643.4 590.340  17
   4  -7  -8 16825.1 518.419   6
  -4   7   7 29769.8 887.979  17
   4  -7  -7 31041.3 788.588   6
  -4   7   6 3510.58 341.367  17
   4  -7  -6 3580.84 285.315   6
  -4   7   5 46493.4 1198.33  17
  -4   7   4 12427.8 620.231  17
  -4   7   3 16733.8 691.621  17
   4  -7  -3 17306.6 715.907   2
  -4   7   2 18842.3 704.469  17
   4  -7  -2 20276.5 769.777   2
   4  -7  -1 14949.8 652.959   2
  -4   7   1 14604.3 590.221  17
  -4   7   1 14292.5 578.760  18
  -4   7   0 20515.5 679.507  17
   4  -7   0 22180.5 789.511   2
  -4   7   0 21724.6 739.493  11
  -4   7   0 19911.3 662.167  18
   4  -7   1 11970.0 574.189   2
  -4   7  -1 11735.4 547.366  11
  -4   7  -1 11036.0 487.855  18
   4  -7   2 4296.83 352.258   2
  -4   7  -2 4263.23 351.498  11
  -4   7  -2 3957.04 296.973  18
  -4   7  -3 9057.27 498.908  11
  -4   7  -3 8789.74 405.356  18
   4  -7   3 9403.47 508.247   2
  -4   7  -3 9358.84 521.256   4
  -4   7  -4 12640.2 585.484  11
  -4   7  -4 11991.7 546.356  10
  -4   7  -5 8257.41 547.291  13
  -4   7  -5 8122.41 477.695  10
  -4   7  -6 7505.53 498.978  13
  -4   7  -6 7541.67 470.694  10
  -4   7  -7 1271.39 215.421  13
  -4   7  -8 139.667 114.146  13
  -4   7  -9 1742.86 144.604  13
  -4   6  10 12754.4 372.007  17
  -4   6   9 21760.7 647.191  17
   4  -6  -9 22116.2 599.864   6
  -4   6   8 37907.3 986.629  17
   4  -6  -8 38126.8 907.889   6
   4  -6  -7 4588.17 337.415   6
   4  -6  -6 7366.59 426.262   6
   4  -6  -5 28825.8 796.024   6
   4  -6  -5 28645.2 835.161  15
   4  -6  -4 35245.5 859.563  15
   4  -6  -4 37123.4 1015.41   2
  -4   6   3 37987.8 954.864  17
   4  -6  -3 36714.6 1001.57   2
   4  -6  -2 118810. 1751.10   2
  -4   6   2 116633. 1542.63  18
   4  -6  -1 26282.6 806.389   2
  -4   6   1 27337.7 729.112  18
   4  -6   0 11705.6 536.752   2
   4  -6   1 29993.0 844.398   2
  -4   6  -1 33022.6 900.727  11
   4  -6   2 20702.6 699.320   2
  -4   6  -2 21338.1 597.623  18
  -4   6  -3 22000.1 757.422  11
  -4   6  -3 20426.7 576.598  18
   4  -6   3 21739.2 717.032   2
  -4   6  -3 22441.9 812.063   4
  -4   6  -4 19514.8 725.953  11
  -4   6  -4 18195.3 635.716  10
  -4   6  -4 18350.2 732.591   4
  -4   6  -5 25144.2 893.778  13
  -4   6  -5 25589.4 806.899  10
  -4   6  -6 20473.3 802.150  13
  -4   6  -6 19817.8 748.904  10
  -4   6  -7 13063.6 617.073  13
  -4   6  -8 234.277 134.581  13
  -4   6  -9 4018.01 259.472  13
  -4   5  10 202.805 98.8468  17
   4  -5 -10 227.538 83.8962   6
   4  -5  -9 66.0815 105.839   6
   4  -5  -8 4521.15 354.298   6
   4  -5  -7 11722.8 585.113  15
   4  -5  -7 12561.9 579.184   6
   4  -5  -6 2497.20 282.059  15
   4  -5  -6 2817.78 278.367   6
   4  -5  -5 6363.33 420.087   2
   4  -5  -5 6791.09 409.867  15
   4  -5  -5 6070.50 364.503   6
   4  -5  -4 81.1293 122.263  15
   4  -5  -4 113.788 89.3189   2
   4  -5  -3 20709.2 709.832   2
   4  -5  -2 491.207 131.445   2
   4  -5  -1 4678.38 319.165   2
   4  -5   0 1250.81 173.163   2
   4  -5   1 4284.64 291.194   2
   4  -5   2 41173.9 889.684   2
   4  -5   3 15737.4 548.683   2
  -4   5  -3 15708.5 646.205   4
  -4   5  -4 2952.34 297.773   4
  -4   5  -4 3477.82 306.949  13
  -4   5  -4 2841.99 277.576  11
  -4   5  -4 3082.63 265.375  10
  -4   5  -4 3288.13 286.628   9
  -4   5  -5 282.241 121.976   9
  -4   5  -5 417.572 158.175   4
  -4   5  -5 70.9652 114.417  13
  -4   5  -5 77.5899 93.7822  10
  -4   5  -6 2932.34 314.137  13
  -4   5  -6 2829.61 292.760   9
  -4   5  -7 9118.74 441.059   8
  -4   5  -7 8654.04 505.846  13
  -4   5  -7 9249.42 499.979   9
  -4   5  -8 1078.68 159.204   8
  -4   5  -8 1222.07 209.346  13
  -4   5  -9 305.091 103.378   8
  -4   5  -9 292.776 109.469  13
  -4   4  11 14368.3 393.015  17
   4  -4 -11 14245.3 379.123   6
   4  -4 -10 26246.4 698.507   6
   4  -4  -9 25966.2 822.586  15
   4  -4  -9 25206.2 793.811   6
   4  -4  -8 14715.0 664.523  15
   4  -4  -8 15242.8 656.333   6
   4  -4  -7 2781.01 305.782  15
   4  -4  -7 3006.54 300.404   6
   4  -4  -6 34912.0 955.463  15
   4  -4  -6 36106.3 940.430   6
   4  -4  -5 37706.9 907.346  15
   4  -4  -5 36499.6 965.134   2
   4  -4  -4 33252.0 886.786   2
   4  -4  -3 227760. 2206.46   2
   4  -4  -2 37640.3 855.183   2
   4  -4  -1 66610.7 1076.92   2
   4  -4   0 24112.8 624.378   2
   4  -4   1 305.034 84.4548   2
   4  -4   2 207105. 1746.83   2
  -4   4  -2 201223. 2086.35   4
  -4   4  -3 69318.6 1269.30   4
   4  -4   3 71047.4 1003.11   2
  -4   4  -4 30396.3 873.734   4
  -4   4  -4 29909.5 824.273  13
  -4   4  -4 31437.2 825.893  11
  -4   4  -4 32422.4 810.800   9
  -4   4  -5 15095.2 646.373   4
  -4   4  -5 14867.4 624.844  13
  -4   4  -5 15763.2 611.597   9
  -4   4  -6 3610.07 325.860   4
  -4   4  -6 3227.38 300.947   9
  -4   4  -6 3313.61 315.052  13
  -4   4  -7 1560.60 209.043   8
  -4   4  -7 1253.46 221.465  13
  -4   4  -7 1447.07 216.921   9
  -4   4  -8 8155.11 417.313   8
  -4   4  -8 7711.33 452.478  13
  -4   4  -8 6995.45 418.897   9
  -4   4  -9 13204.9 469.802   8
  -4   4  -9 13497.4 513.643  13
  -4   4  -9 13437.9 504.241   9
  -4   4 -10 6655.63 263.359   8
   4  -3 -11 14012.8 429.206   6
   4  -3 -10 21601.5 689.301   6
   4  -3  -9 22184.1 783.001  15
   4  -3  -9 21168.3 765.225   6
   4  -3  -8 33735.2 999.711  15
   4  -3  -8 33816.8 988.234   6
   4  -3  -7 879.698 202.543  15
   4  -3  -6 45973.4 1066.27  15
  -4   3   6 45013.3 949.537   1
   4  -3  -5 43364.9 944.527  15
  -4   3   5 42968.1 871.145   1
   4  -3  -4 76279.8 1287.98   2
  -4   3   4 73578.7 1054.48   1
  -4   3   3 54546.7 845.963   1
   4  -3  -3 55562.8 1036.32   2
   4  -3  -2 15233.4 508.739   2
  -4   3   2 15139.9 416.566   1
   4  -3  -1 55641.1 909.658   2
   4  -3   0 73481.0 998.368   2
   4  -3   1 516713. 2467.80   2
   4  -3   2 4947.05 233.918   2
  -4   3  -2 4573.78 305.772   4
  -4   3  -3 42885.1 958.852   4
  -4   3  -4 37148.2 942.662   4
  -4   3  -5 35166.5 897.439   9
  -4   3  -5 36391.5 972.238   4
  -4   3  -5 35862.7 907.307  13
  -4   3  -6 78135.1 1427.35   9
  -4   3  -6 81163.8 1471.14   4
  -4   3  -6 78862.8 1235.89   8
  -4   3  -6 80774.5 1440.61  13
  -4   3  -7 340.745 120.874   8
  -4   3  -7 423.507 148.533   9
  -4   3  -7 135.322 115.205  13
  -4   3  -8 15546.9 578.548   8
  -4   3  -8 15516.0 620.856  13
  -4   3  -8 15865.4 633.477   9
  -4   3  -9 5948.54 331.967   8
  -4   3  -9 6247.00 357.100  13
  -4   3  -9 6102.85 353.884   9
  -4   3 -10 7535.50 292.836   8
   4  -2 -11 61.4193 65.3591   6
   4  -2 -10 804.020 168.046  15
   4  -2 -10 718.029 173.910   6
   4  -2  -9 233.688 158.200  15
   4  -2  -8 10397.5 563.394  15
   4  -2  -7 1436.00 236.767  15
  -4   2   7 1718.68 217.993   1
   4  -2  -6 7555.42 434.360  15
   4  -2  -6 6967.51 433.230   7
  -4   2   6 7091.46 397.250   1
  -4   2   5 13509.8 509.421   1
  -4   2   4 22150.8 612.870   1
  -4   2   3 957.992 137.595   1
   4  -2  -3 464.632 111.829   2
   4  -2  -2 133.944 76.9049   2
  -4   2   2 217.219 75.8912   1
   4  -2  -1 294.094 83.0675   2
  -4   2   1 326.820 89.8483   1
   4  -2   0 10881.6 350.697   2
  -4   2  -1 23365.6 567.520   3
   4  -2   1 22748.2 461.990   2
  -4   2  -1 21818.8 577.668   4
  -4   2  -2 9581.91 411.691   4
  -4   2  -2 10114.2 344.751   3
  -4   2  -3 4555.66 304.852   4
  -4   2  -4 13530.8 552.557   4
  -4   2  -5 26413.6 780.317   9
  -4   2  -5 27217.3 816.531   4
  -4   2  -5 26328.7 745.194  13
  -4   2  -5 24959.1 646.221  18
  -4   2  -6 2392.58 263.902   9
  -4   2  -6 2488.11 232.324   8
  -4   2  -6 2252.83 260.224  13
  -4   2  -7 11671.3 577.483   9
  -4   2  -7 12148.9 520.682   8
  -4   2  -7 11718.3 551.227  13
  -4   2  -8 2307.56 241.413   8
  -4   2  -8 2484.67 275.665   9
  -4   2  -8 2435.16 264.407  13
  -4   2  -9 1373.57 172.014   8
  -4   2  -9 1334.24 177.191   9
  -4   2 -10 536.954 119.307   8
  -4   2 -10 250.702 82.5625   9
   4  -1 -11 17950.7 538.891   6
   4  -1 -10 10052.8 473.873  15
   4  -1 -10 10615.0 513.778   6
   4  -1  -9 25210.4 832.460  15
   4  -1  -8 314.853 142.625  15
   4  -1  -8 26.0810 111.308   7
   4  -1  -7 15151.2 658.537  15
  -4   1   7 15154.9 623.078   1
   4  -1  -7 14258.0 646.551   7
   4  -1  -6 38810.6 977.201  15
   4  -1  -6 39126.3 981.774   7
  -4   1   6 38442.5 949.022   1
  -4   1   5 61219.8 1135.96   1
  -4   1   4 116020. 1471.77   1
  -4   1   3 26521.0 671.321   1
  -4   1   2 168931. 1637.94   1
  -4   1   1 133400. 1471.07   1
  -4   1   1 134223. 1148.59   4
  -4   1   0 144470. 1582.99   3
  -4   1   0 148257. 1303.54   4
  -4   1  -1 29949.5 634.251   4
  -4   1  -1 29216.2 709.066   3
  -4   1  -2 133376. 1453.54   4
  -4   1  -2 136771. 1506.89   3
  -4   1  -3 12953.2 489.186   4
  -4   1  -3 13346.1 469.274   3
  -4   1  -4 16430.0 587.052   4
  -4   1  -5 55643.2 1161.97   9
  -4   1  -5 52394.7 991.606  18
  -4   1  -5 52937.5 938.609   8
  -4   1  -5 56454.6 1046.88  13
  -4   1  -6 227.587 108.192   9
  -4   1  -6 161.507 111.154   8
  -4   1  -6 143.716 94.6333  13
  -4   1  -6 301.351 105.067  18
  -4   1  -7 38652.8 1059.88   9
  -4   1  -7 40469.6 929.708   8
  -4   1  -7 40477.4 966.907  13
  -4   1  -8 11372.8 559.039   9
  -4   1  -8 11219.0 482.499   8
  -4   1  -8 11347.5 509.141  13
  -4   1  -9 33376.7 839.074   9
  -4   1  -9 35562.2 766.992   8
  -4   1 -10 9556.51 357.015   9
   4   0 -11 21393.9 578.761   6
   4   0 -10 11943.4 492.426  15
   4   0  -9 21997.7 755.161  15
   4   0  -9 22408.8 819.304   7
   4   0  -8 15345.5 659.671  15
   4   0  -8 15156.3 690.047   7
   4   0  -7 17526.6 699.877  15
   4   0  -7 17061.6 713.567   7
  -4   0   6 11646.0 546.316   1
   4   0  -6 12402.5 572.791  15
   4   0  -6 12280.8 565.832   7
  -4   0   5 15271.7 598.667   1
   4   0  -5 16420.3 614.414  15
  -4   0   4 57295.1 1099.81   1
  -4   0   3 20207.6 626.408   1
  -4   0   2 78168.4 1206.52   1
  -4   0   1 56513.3 1032.85   1
  -4   0   0 132667. 1635.37   3
  -4   0   0 133251. 1125.49   4
  -4   0  -1 46944.6 978.670   3
  -4   0  -1 48530.7 758.288   4
  -4   0  -2 49833.6 844.466   4
  -4   0  -2 48367.9 1007.01   3
  -4   0  -3 88591.7 1235.41   4
  -4   0  -3 85996.4 1379.65   3
  -4   0  -4 63207.1 981.842  13
  -4   0  -4 64668.6 1193.16   3
  -4   0  -5 43447.8 1063.30   9
  -4   0  -5 43998.1 886.938   8
  -4   0  -5 43402.4 893.354  13
  -4   0  -5 41317.5 944.436  18
  -4   0  -6 1.83773 92.9550   9
  -4   0  -6 104.032 95.8540   8
  -4   0  -6 234.505 103.685  13
  -4   0  -6-100.478 90.7062  18
  -4   0  -7 28.4208 128.906   9
  -4   0  -7 281.796 109.330   8
  -4   0  -7 51.1486 82.2981  18
  -4   0  -8 16168.2 570.904   8
  -4   0  -8 14789.4 642.429   9
  -4   0  -9 21004.9 670.737   9
  -4   0 -10 47724.3 763.537   9
   4   1 -11 858.775 127.380   6
   4   1 -10 682.759 142.454  15
   4   1  -9 10770.2 511.863  15
   4   1  -9 10894.9 568.987   7
   4   1  -8 896.452 191.334  15
   4   1  -8 769.510 200.530   7
   4   1  -7 5683.33 410.925  15
   4   1  -7 5880.50 442.585   7
   4   1  -6 12434.0 583.224  15
  -4  -1   6 12773.0 587.628   1
   4   1  -6 12203.6 585.019   7
   4   1  -5 29341.0 850.936  15
  -4  -1   5 27683.6 833.342   1
   4   1  -5 28844.2 817.776   7
  -4  -1   4 1649.89 217.706   1
  -4  -1   3 4370.65 325.636   1
  -4  -1   2 808.566 167.110   1
  -4  -1   1 5447.44 376.564   3
  -4  -1   1 5371.88 354.333   1
  -4  -1   0 3371.04 299.465   3
  -4  -1  -1 8770.65 469.227   3
  -4  -1  -2 7250.31 431.546   3
  -4  -1  -3 7792.33 459.363   3
  -4  -1  -4 828.559 165.175   9
  -4  -1  -4 885.527 187.489   3
  -4  -1  -5 10017.8 539.326   9
  -4  -1  -5 10971.9 477.611   8
  -4  -1  -5 9449.57 511.971   3
  -4  -1  -6 56459.2 1327.97   9
  -4  -1  -6 57268.7 1094.75   8
  -4  -1  -6 54262.8 1155.86  18
  -4  -1  -7 225.456 129.498   9
  -4  -1  -7 227.772 125.285  18
  -4  -1  -8 3314.79 316.536   9
  -4  -1  -9 558.095 140.871   9
   4   2 -11 494.513 88.2042   6
   4   2 -10 5866.89 350.265   7
   4   2  -9 901.302 164.345  15
   4   2  -9 754.788 171.384   7
   4   2  -8 4070.15 341.779  15
   4   2  -8 3903.16 370.778   7
   4   2  -7 6228.01 432.583  15
   4   2  -7 6547.12 462.677   7
   4   2  -6 43918.2 1115.27  15
   4   2  -6 43930.6 1135.48   7
   4   2  -5 52677.1 1195.10  15
   4   2  -5 52690.9 1161.31   7
  -4  -2   5 51968.7 1188.33   1
  -4  -2   4 12042.6 571.444   1
   4   2  -4 11557.0 553.118  15
  -4  -2   3 64834.8 1356.65   3
  -4  -2   3 64753.8 1283.91   1
  -4  -2   2 38742.5 992.728   1
  -4  -2   2 39242.7 1038.66   3
  -4  -2   1 87416.9 1545.69   3
  -4  -2   0 25171.2 835.338   3
  -4  -2  -1 89926.0 1569.60   3
  -4  -2  -2 28904.3 909.137   3
  -4  -2  -2 27699.8 780.183  12
  -4  -2  -3 17152.2 606.500   9
  -4  -2  -3 15989.5 700.851   3
  -4  -2  -3 16391.2 606.035  12
  -4  -2  -4 25376.0 819.487   9
  -4  -2  -4 24926.5 872.502   3
  -4  -2  -5 167.344 129.471   9
  -4  -2  -6 10450.7 578.321   9
  -4  -2  -7 25341.8 865.255   9
  -4  -2  -7 25372.1 769.344  18
  -4  -2  -8 54113.6 1130.09   9
  -4  -2  -8 57356.1 936.435  18
  -4  -2  -9 37054.8 715.895   9
   4   3 -10 12984.8 465.081   7
   4   3  -9 9543.72 375.705  15
   4   3  -9 10430.3 503.103   7
   4   3  -8 47.9535 106.036  15
   4   3  -8 134.533 111.158   7
   4   3  -7 8176.50 469.572  15
   4   3  -7 8678.92 530.094   7
   4   3  -6-33.6870 108.651  15
   4   3  -6 113.326 101.329   7
  -4  -3   5 18322.2 744.460   3
   4   3  -5 18610.5 738.147  15
   4   3  -4 1070.45 206.333  15
  -4  -3   4 895.806 207.982   3
  -4  -3   4 643.568 186.149   1
  -4  -3   3 17814.8 717.631   1
  -4  -3   3 17269.4 727.284   3
   4   3  -3 18412.8 717.346  15
  -4  -3   3 17515.8 686.151  12
  -4  -3   2 71210.4 1467.76   3
  -4  -3   2 76113.7 1400.93  12
  -4  -3   1 25786.0 888.328   3
  -4  -3   1 25887.1 812.814  12
  -4  -3   0 8888.13 527.670   3
  -4  -3   0 8787.95 485.135  12
  -4  -3  -1 26332.9 899.526   3
  -4  -3  -1 26646.3 840.908  12
  -4  -3  -2 33862.4 1044.28   3
  -4  -3  -2 33007.6 933.406  12
  -4  -3  -3 22999.5 784.037  12
  -4  -3  -4 27413.2 854.656   9
  -4  -3  -4 27471.4 837.259  12
  -4  -3  -5 2641.03 298.759   9
  -4  -3  -6 2865.31 288.652   9
  -4  -3  -7 5434.63 360.094   9
  -4  -3  -7 5327.74 332.594  18
  -4  -3  -8 15840.9 502.281   9
  -4  -3  -8 16177.8 420.440  18
   4   4 -10 5328.12 249.114   7
   4   4  -9 1245.30 173.148   7
   4   4  -8 627.651 120.702  15
   4   4  -8 486.130 151.705   7
   4   4  -7 17371.2 613.691  15
   4   4  -7 19258.4 745.076   7
   4   4  -6 5838.16 395.161  15
   4   4  -6 6136.12 433.329   7
   4   4  -5 378.962 154.374  15
   4   4  -4-33.5331 108.630  15
   4   4  -3 14094.5 649.094  15
  -4  -4   3 14586.4 653.364  12
  -4  -4   2 64638.7 1422.05   3
  -4  -4   2 65826.3 1373.20  12
  -4  -4   1 116.681 99.5328  12
  -4  -4   1-33.3667 104.223   3
  -4  -4   0 1414.28 217.769  12
  -4  -4   0 1263.61 231.742   3
  -4  -4  -1 579.117 161.456  12
  -4  -4  -2 6291.67 437.555  12
  -4  -4  -3 710.250 166.206  12
  -4  -4  -4 6116.63 387.128   9
  -4  -4  -4 6061.25 407.529  12
  -4  -4  -5 23062.6 731.557   9
  -4  -4  -6 5333.35 336.910   9
  -4  -4  -7 5194.25 284.050   9
  -4  -4  -7 5147.56 277.273  18
   4   5  -9 83.5999 62.6756   7
   4   5  -8 3834.92 283.461   7
   4   5  -7 1782.09 183.888  15
   4   5  -7 2437.41 252.433   7
   4   5  -6 9934.15 457.346  15
   4   5  -6 9989.93 515.753   7
   4   5  -5 473.293 137.582  15
   4   5  -5 804.300 180.902   5
   4   5  -4 8756.64 502.456  15
   4   5  -4 9268.86 538.990   5
   4   5  -3 74355.5 1465.44  15
  -4  -5   3 73415.9 1445.60  12
  -4  -5   2 731.207 196.881  12
   4   5  -2 721.925 165.904   5
  -4  -5   1-177.455 145.342  12
  -4  -5   0 21847.1 812.763  12
  -4  -5  -1 10728.2 573.353  12
  -4  -5  -2 25400.4 861.734  12
  -4  -5  -3 5847.28 404.715  12
  -4  -5  -4 2525.37 256.571  12
  -4  -5  -5 10615.5 397.175   9
  -4  -5  -5 11344.0 430.073  12
  -4  -5  -6 11621.6 353.024   9
  -4  -5  -6 12164.8 418.143  18
   4   6  -8 64.2927 53.1557   7
   4   6  -7 203.842 91.5246   7
   4   6  -6 8010.81 397.922   7
   4   6  -5 969.346 137.122  10
   4   6  -5 806.504 134.802  15
   4   6  -5 805.866 150.033   7
   4   6  -4 6040.71 372.575  15
   4   6  -4 6098.75 332.259  10
   4   6  -3 1833.58 242.147  15
   4   6  -2 5153.54 388.104  15
  -4  -6   2 5065.82 375.177  12
  -4  -6   1 1609.43 236.898  12
  -4  -6   0 8977.43 498.566  12
  -4  -6  -1 19982.9 726.572  12
  -4  -6  -2-64.5363 105.115  12
  -4  -6  -3 6282.89 374.597  12
  -4  -6  -4-76.4509 83.8053  12
  -4  -6  -5-95.2828 74.8654  18
   4   7  -6-18.2940 44.9029   7
   4   7  -5-17.7941 40.5649   7
   4   7  -4 117.492 73.1471  15
   4   7  -4 159.454 65.7053   7
   4   7  -4 76.3874 77.8754  10
   4   7  -3 149.995 94.6510  15
   4   7  -3 380.707 108.103  10
   4   7  -2 145.484 96.3337  15
   4   7  -1 183.220 110.548  15
  -4  -7   1 34.1445 94.8942  12
  -4  -7   0 39.2596 93.9181  12
  -4  -7  -1 1646.87 202.087  12
  -4  -7  -2 254.351 101.329  12
  -4  -7  -2 155.487 64.1924  18
  -4  -7  -3 2378.34 186.922  12
  -4  -7  -3 2091.07 140.081  18
   4   8  -2 79.0709 58.3554  10
   4   8  -1 6186.72 240.619  10
   4   8   0 3027.96 166.815  15
  -5  11   3 2509.88 155.643  11
  -5  11   2-92.6487 64.8536  17
  -5  11   2-79.7477 59.0849  11
  -5  11   1 3824.43 220.386  11
  -5  11   1 3456.29 203.590  17
  -5  11   0 13.4540 55.5395  11
  -5  11  -1 737.644 119.753  11
  -5  11  -2 421.046 111.311  13
  -5  11  -3 2272.70 180.120  13
  -5  11  -4 1731.72 135.099  13
  -5  10   5 4202.24 228.133  11
  -5  10   5 3859.89 224.083  17
  -5  10   4 6196.72 311.151  11
  -5  10   4 5869.54 307.946  17
  -5  10   3 5483.48 318.507  11
  -5  10   3 5477.05 318.423  17
  -5  10   2 16510.0 562.157  11
  -5  10   2 16043.4 550.625  17
  -5  10   1 8710.10 423.583  11
  -5  10   1 8594.62 408.211  17
  -5  10   0 12561.6 501.463  11
  -5  10   0 11863.2 464.068  17
  -5  10  -1 9521.86 431.628  11
  -5  10  -2 1930.97 208.266  11
  -5  10  -3 10120.2 465.434  13
  -5  10  -3 9090.04 383.923  11
  -5  10  -4 42.5552 95.7233  13
  -5  10  -5 5253.45 278.394  13
  -5  10  -6 4147.12 194.904  13
  -5   9   7 374.531 78.3929  17
  -5   9   7 522.058 88.9243  11
  -5   9   6 1249.94 157.333  17
  -5   9   6 1299.34 159.187  11
  -5   9   5 249.411 114.172  17
  -5   9   5 244.324 120.187  11
  -5   9   4 1399.30 205.643  17
  -5   9   4 1412.61 215.432  11
  -5   9   3 2056.13 243.078  17
  -5   9   3 2082.15 258.669  11
  -5   9   2 1070.90 183.576  17
  -5   9   2 604.209 180.615  11
  -5   9   1 2768.16 296.047  11
  -5   9   1 2307.76 249.651  17
  -5   9   0 151.887 133.958  11
  -5   9  -1 1016.89 204.000  11
  -5   9  -2 67.9630 118.021  11
  -5   9  -3 409.549 134.899  11
  -5   9  -4 4806.63 376.716  13
  -5   9  -4 4433.12 318.514  11
  -5   9  -5 2268.57 247.922  13
  -5   9  -6 4236.12 280.317  13
  -5   9  -7 181.898 74.1558  13
  -5   8   8 1689.25 146.968  17
  -5   8   8 1847.02 134.254  11
  -5   8   7 8631.81 391.530  17
  -5   8   6 939.741 178.948  17
  -5   8   5 3647.52 315.439  17
  -5   8   4 15.6510 110.796  17
  -5   8   3 19176.2 709.953  17
  -5   8   2 15831.4 634.161  17
  -5   8   2 16077.3 677.554  11
  -5   8   1 28882.6 900.842  11
  -5   8   1 28432.0 816.196  17
  -5   8   0 20660.4 773.523  11
  -5   8   0 19788.0 710.670  18
  -5   8  -1 2036.53 253.785  18
  -5   8  -1 1816.24 270.866  11
  -5   8  -2 13833.1 638.176  11
  -5   8  -2 13601.2 562.815  18
  -5   8  -3 2535.01 295.825  11
  -5   8  -3 1645.23 201.866  18
  -5   8  -4 16560.9 789.168  13
  -5   8  -4 15314.5 641.082  11
  -5   8  -5 917.843 226.173  13
  -5   8  -6 54.2358 132.514  13
  -5   8  -7 127.077 101.426  13
  -5   8  -8 241.675 70.6387  13
  -5   7   9 21620.1 463.453  17
  -5   7   8 10902.7 436.355  17
  -5   7   7 17309.8 629.247  17
  -5   7   6 9242.68 500.404  17
  -5   7   5 14188.0 626.306  17
  -5   7   4 5529.49 401.579  17
  -5   7   3 17022.3 660.820  17
  -5   7   3 17316.3 628.270  16
  -5   7   2 43480.1 1002.52  17
  -5   7   2 42129.0 951.018  16
  -5   7   2 45305.1 1127.11  11
  -5   7   2 43695.1 1048.99  18
  -5   7   1 23111.9 703.353  16
   5  -7  -1 25432.5 869.791   2
  -5   7   1 23432.8 825.703  11
  -5   7   1 22460.9 749.455  18
  -5   7   0 25976.0 737.058  16
   5  -7   0 27380.0 888.427   2
  -5   7   0 29158.4 931.088  11
  -5   7   0 27679.2 811.647  18
  -5   7  -1 5787.31 367.531  16
   5  -7   1 6202.52 419.433   2
  -5   7  -1 6353.79 463.423  11
  -5   7  -1 5828.59 383.996  18
  -5   7  -2 46004.9 1204.17  11
  -5   7  -2 42662.5 976.836  18
  -5   7  -3 64093.3 1432.61  11
  -5   7  -3 59887.0 1110.75  18
  -5   7  -4 9915.82 600.027  13
  -5   7  -4 10826.4 597.327  11
  -5   7  -5 21831.4 863.402  13
  -5   7  -6-214.625 157.042  13
  -5   7  -7 984.672 198.139  13
  -5   7  -8 2750.25 228.067  13
  -5   6   9 9474.53 385.946  17
   5  -6  -9 8609.89 310.917   6
  -5   6   8 2969.42 273.246  17
   5  -6  -8 2926.41 230.943   6
   5  -6  -7 792.608 139.979   6
   5  -6  -6 2851.11 289.724  15
   5  -6  -5 1021.88 192.038  15
  -5   6   4 2638.20 274.022  17
  -5   6   3 90.7683 94.2462  17
  -5   6   3 16.9171 114.609  18
  -5   6   2 1137.01 202.153  16
   5  -6  -2 1489.40 226.344   2
  -5   6   2 1347.18 203.157  18
  -5   6   1 150.935 136.353  16
   5  -6  -1 13.9903 100.278   2
  -5   6   1 363.804 154.716  11
  -5   6   1 258.866 132.098  18
  -5   6   0 13213.4 539.981  16
   5  -6   0 12153.0 559.375   2
  -5   6   0 13458.0 634.566  11
  -5   6   0 13652.6 539.830  18
  -5   6  -1 71.6578 153.931  16
   5  -6   1 97.6401 105.132   2
  -5   6  -1 60.7796 135.081  11
  -5   6  -1 305.108 122.567  18
  -5   6  -2 21982.5 715.489  16
   5  -6   2 23260.9 741.983   2
  -5   6  -2 23621.4 847.898  11
  -5   6  -2 23218.5 685.069  18
  -5   6  -2 24899.9 919.786   4
  -5   6  -3 16.4932 100.661   4
  -5   6  -3 10.2480 108.653  11
  -5   6  -3 115.312 106.704  18
  -5   6  -4 9097.51 419.107  18
  -5   6  -4 9256.24 550.396  13
  -5   6  -4 8882.66 536.141  11
  -5   6  -5 5373.96 434.604  13
  -5   6  -6 1717.26 274.784  13
  -5   6  -7 3706.45 328.507  13
  -5   6  -8 318.289 118.374  13
  -5   6  -9 1552.98 153.374  13
  -5   5  10 6450.57 282.669  17
   5  -5 -10 5647.76 231.482   6
   5  -5  -9 4721.62 281.895   6
   5  -5  -8 19559.6 688.767  15
   5  -5  -8 20281.0 652.534   6
   5  -5  -7 8632.90 487.671  15
   5  -5  -7 8582.36 446.728   6
   5  -5  -6 7339.18 438.861  15
   5  -5  -6 7773.97 421.557   6
   5  -5  -5 6588.45 407.113  15
   5  -5  -4 37620.3 864.576  15
  -5   5   4 38068.0 957.764  14
  -5   5   4 38166.8 874.260  18
   5  -5  -4 40417.2 1076.27   2
  -5   5   3 39324.9 967.024  14
   5  -5  -3 42710.8 1070.36   2
  -5   5   3 40745.9 897.338  18
   5  -5  -2 75218.3 1375.29   2
  -5   5   2 72873.3 1299.56  14
  -5   5   2 74960.8 1183.61  18
  -5   5   1 65056.2 1200.82  16
   5  -5  -1 64359.4 1233.12   2
  -5   5   1 64414.4 1202.13  14
  -5   5   1 61885.4 1177.94  11
  -5   5   1 65799.3 1085.63  18
  -5   5   0 15659.6 602.404  16
   5  -5   0 15651.3 586.084   2
  -5   5   0 15944.1 598.060  14
  -5   5   0 15662.5 604.650  11
  -5   5   0 15822.5 533.716  18
  -5   5  -1 46931.5 1033.77  16
   5  -5   1 46431.7 976.792   2
  -5   5  -1 46252.4 987.285  14
  -5   5  -1 45467.1 1039.32  11
  -5   5  -1 47493.6 917.417  18
  -5   5  -2 66430.3 1258.94  16
  -5   5  -2 63336.0 1254.03  11
  -5   5  -2 66225.5 1092.25  18
  -5   5  -2 64800.2 1377.90   4
  -5   5  -3 15822.7 700.903   4
  -5   5  -3 15505.0 629.380  13
  -5   5  -3 15252.9 647.493  11
  -5   5  -3 15710.9 544.378  18
  -5   5  -4 3966.13 368.312   4
  -5   5  -4 3348.17 262.370  18
  -5   5  -4 3846.93 349.438  13
  -5   5  -4 3579.16 340.219  11
  -5   5  -4 3892.30 337.293   9
  -5   5  -5 763.353 180.461   9
  -5   5  -5 789.769 193.421  13
  -5   5  -6 1242.82 225.500  13
  -5   5  -6 1169.74 218.271   9
  -5   5  -7 10647.0 538.324  13
  -5   5  -8 2102.11 228.001  13
  -5   5  -9 7295.51 323.143  13
   5  -4 -10 37354.0 707.662   6
   5  -4  -9 19460.8 661.364  15
   5  -4  -9 19507.0 632.682   6
   5  -4  -8 20872.8 749.450  15
   5  -4  -8 21352.8 719.974   6
   5  -4  -7 24552.7 826.234  15
   5  -4  -7 24357.3 782.419   6
   5  -4  -6 1896.20 250.016  15
   5  -4  -6 2234.17 226.543   6
   5  -4  -5 15999.8 617.074  15
  -5   4   5 15994.4 596.960  14
   5  -4  -4 17594.1 591.875  15
  -5   4   4 17785.7 630.431  14
   5  -4  -4 18400.5 704.180   2
  -5   4   3 61017.5 1149.66  14
   5  -4  -3 60318.0 1220.54   2
   5  -4  -2 70734.8 1253.80   2
   5  -4  -1 92027.1 1377.10   2
   5  -4   0 41506.0 880.889   2
   5  -4   1 97890.8 1281.70   2
  -5   4  -1 97408.2 1532.53   4
  -5   4  -2 98387.8 1599.11   4
  -5   4  -2 103095. 1584.64  16
  -5   4  -2 99509.0 1434.23  11
  -5   4  -2 99402.8 1296.68  18
  -5   4  -3 44280.8 1100.02   4
  -5   4  -3 42365.6 955.171  13
  -5   4  -3 45420.1 1027.85  11
  -5   4  -3 43908.9 886.935  18
  -5   4  -3 46824.9 992.145   9
  -5   4  -4 31685.0 966.079   4
  -5   4  -4 31110.4 872.098  13
  -5   4  -4 30131.9 746.936  18
  -5   4  -4 30990.8 861.880   9
  -5   4  -5 12483.6 583.252  13
  -5   4  -5 12321.1 474.414  18
  -5   4  -5 11744.0 554.493   9
  -5   4  -6 14107.1 622.874  13
  -5   4  -6 14320.7 627.289   9
  -5   4  -7 7407.10 445.368  13
  -5   4  -7 7762.69 462.615   9
  -5   4  -8 7408.13 398.588  13
  -5   4  -8 7217.72 405.468   9
  -5   4  -9 219.607 96.6718  13
   5  -3 -10 2113.35 204.974  15
   5  -3 -10 2035.13 195.233   6
   5  -3  -9 1951.65 252.195  15
   5  -3  -9 2074.28 234.797   6
   5  -3  -8 3468.58 336.480  15
   5  -3  -8 2979.93 286.359   6
   5  -3  -7 4782.50 382.254  15
   5  -3  -6 32122.7 925.032  15
   5  -3  -5 3481.11 305.027  15
  -5   3   5 2968.29 270.722  14
   5  -3  -4 2021.42 220.997  15
  -5   3   4 1891.87 224.819  14
   5  -3  -3 17202.4 630.364   2
   5  -3  -2 6660.97 370.700   2
   5  -3  -1 9823.45 420.762   2
   5  -3   0 1567.40 164.069   2
  -5   3  -1 22995.1 700.400   4
  -5   3  -2 11752.9 527.692   4
  -5   3  -3 8692.16 472.216   4
  -5   3  -3 8369.92 396.115  13
  -5   3  -3 8598.91 438.971  11
  -5   3  -3 8699.97 406.343  18
  -5   3  -3 8696.17 421.219   9
  -5   3  -4 13200.9 555.317   9
  -5   3  -4 13765.0 610.086   4
  -5   3  -4 13473.1 542.002  13
  -5   3  -4 12692.6 496.943  18
  -5   3  -5 2095.90 248.590   9
  -5   3  -5 1951.16 222.890  13
  -5   3  -5 2466.26 231.639  18
  -5   3  -6 251.553 131.468   9
  -5   3  -6 78.2227 104.177  13
  -5   3  -6 274.444 98.0308  18
  -5   3  -7 70.6465 112.057   9
  -5   3  -7 111.862 127.081  13
  -5   3  -8 44.1506 105.692   9
  -5   3  -8 90.8653 94.9220  13
  -5   3  -9 74.9195 72.5551   9
   5  -2 -11 13805.9 367.989   6
   5  -2 -10 8831.13 407.235  15
   5  -2 -10 8484.71 402.573   6
   5  -2  -9 21071.7 724.864  15
   5  -2  -8 19412.0 749.124  15
   5  -2  -7 19508.8 753.901  15
   5  -2  -6 42319.5 1078.87  15
  -5   2   6 41027.4 1003.15   1
   5  -2  -5 61805.5 1219.69  15
  -5   2   5 58947.1 1110.33  14
  -5   2   5 57254.3 1156.49   1
   5  -2  -5 60060.7 1166.75   7
   5  -2  -4 72687.7 1234.33  15
  -5   2   4 68732.6 1207.74   1
  -5   2   3 105959. 1463.35   1
  -5   2   2 24337.4 697.739   1
  -5   2   1 64123.2 976.133   4
  -5   2   0 60405.6 999.003   4
  -5   2   0 59471.9 1131.41   3
  -5   2  -1 98575.0 1354.79   4
  -5   2  -1 101850. 1425.42   3
  -5   2  -2 31492.7 811.411   4
  -5   2  -3 22714.9 663.538   9
  -5   2  -3 22436.5 719.074   4
  -5   2  -3 21962.5 649.104  18
  -5   2  -4 2362.28 246.173   9
  -5   2  -4 2448.87 258.909   4
  -5   2  -4 1731.27 199.968  13
  -5   2  -4 1808.90 214.590  18
  -5   2  -5 5328.95 381.067   9
  -5   2  -5 5077.08 338.057  18
  -5   2  -5 5052.01 342.692  13
  -5   2  -6 25735.6 846.759   9
  -5   2  -6 26117.2 771.046  13
  -5   2  -6 25668.3 701.325  18
  -5   2  -7 10176.7 531.277   9
  -5   2  -7 10855.8 424.507   8
  -5   2  -7 10483.6 485.958  13
  -5   2  -8 6705.56 364.488  13
  -5   2  -8 5948.93 375.354   9
  -5   2  -9 15535.6 504.133   9
   5  -1 -11 7164.14 275.384   6
   5  -1 -10 5196.99 312.222  15
   5  -1 -10 5511.56 334.296   6
   5  -1  -9 657.093 174.252  15
   5  -1  -8 7971.62 481.433  15
   5  -1  -7 64931.0 1377.47  15
   5  -1  -7 64703.6 1363.60   7
   5  -1  -6 7876.04 482.772  15
   5  -1  -6 7945.39 467.356   7
  -5   1   6 6798.86 437.634   1
   5  -1  -5 12345.9 575.490  15
   5  -1  -5 12637.9 541.260   7
  -5   1   5 13476.0 588.247   1
   5  -1  -4 6066.11 377.977  15
  -5   1   4 5594.54 379.565   1
  -5   1   3 13629.4 565.180   1
  -5   1   2 161728. 1914.09   1
  -5   1   1 63254.7 1280.74   3
  -5   1   0 74808.9 1009.08   4
  -5   1   0 74184.9 1341.51   3
  -5   1  -1 115284. 1352.10   4
  -5   1  -1 113436. 1649.28   3
  -5   1  -2 77267.6 1191.47   4
  -5   1  -2 77262.7 1320.32   3
  -5   1  -2 75791.5 1192.45  18
  -5   1  -3 14702.1 539.908   9
  -5   1  -3 13786.3 538.627   4
  -5   1  -3 14545.9 555.814  18
  -5   1  -4 14756.7 590.764   9
  -5   1  -4 13118.2 473.255  13
  -5   1  -4 14202.5 568.367  18
  -5   1  -5 17125.0 679.143   9
  -5   1  -5 15729.1 553.420  13
  -5   1  -5 16630.9 617.095  18
  -5   1  -6 35112.6 992.337   9
  -5   1  -6 36682.3 796.511   8
  -5   1  -6 35943.7 850.173  13
  -5   1  -6 33687.6 846.099  18
  -5   1  -7 16140.1 656.168   9
  -5   1  -7 15091.6 509.125  18
  -5   1  -8 4789.56 341.246   9
  -5   1  -9 14775.2 482.363   9
   5   0 -10 370.964 107.693  15
   5   0  -9 1316.77 199.369  15
   5   0  -8 5421.25 401.558  15
   5   0  -8 5591.86 412.650   7
   5   0  -7 1314.15 223.663  15
   5   0  -7 1220.97 202.653   7
   5   0  -6 1911.40 264.120  15
   5   0  -6 1613.60 228.113   7
   5   0  -5 7430.72 465.275  15
   5   0  -5 7332.60 414.034   7
  -5   0   5 7264.51 455.070   1
  -5   0   4 13277.9 602.685   1
   5   0  -4 13295.6 590.426  15
   5   0  -3 11371.6 522.155  15
  -5   0   3 11003.0 545.132   1
  -5   0   2 1076.51 209.619   3
  -5   0   2 1192.00 202.255   1
  -5   0   1 739.110 203.572   3
  -5   0   0 590.305 158.862   3
  -5   0  -1 12887.2 597.215   3
  -5   0  -1 12505.1 493.064  18
  -5   0  -2 6476.19 427.142   3
  -5   0  -2 6539.34 380.495  18
  -5   0  -3 11321.3 479.160   9
  -5   0  -3 10495.8 544.750   3
  -5   0  -3 9882.92 487.261  18
  -5   0  -4 4284.21 327.002   9
  -5   0  -4 4082.57 339.518  18
  -5   0  -5 1983.17 251.428   9
  -5   0  -5 1733.56 227.479  18
  -5   0  -6 2703.71 303.712   9
  -5   0  -6 3326.25 299.687  18
  -5   0  -7 6817.96 435.075   9
  -5   0  -7 6640.12 357.634  18
  -5   0  -8 954.397 168.896   9
  -5   0  -9 88.8074 80.5344   9
   5   1 -10 1340.98 137.077  15
   5   1  -9 19714.3 630.928  15
   5   1  -9 20559.2 692.230   7
   5   1  -8 2783.23 290.366  15
   5   1  -8 2961.82 297.264   7
   5   1  -7 4927.05 390.899  15
   5   1  -7 4735.74 382.120   7
   5   1  -6 22994.4 834.651  15
   5   1  -6 22126.7 784.873   7
  -5  -1   5 9765.57 547.294   1
   5   1  -5 9338.67 536.790  15
   5   1  -5 8423.45 465.944   7
   5   1  -4 39348.8 1051.35  15
  -5  -1   4 40335.2 1083.94   1
  -5  -1   3 48991.2 1273.31   3
   5   1  -3 50221.8 1147.61  15
  -5  -1   3 50383.3 1202.85   1
  -5  -1   2 25625.2 904.298   3
   5   1  -2 26455.5 814.703  15
  -5  -1   1 65647.9 1430.13   3
  -5  -1   1 63323.1 1267.12  12
  -5  -1   0 63484.9 1394.51   3
  -5  -1   0 59455.9 1213.08  12
  -5  -1   0 61669.7 1053.76  18
  -5  -1  -1 31681.4 981.149   3
  -5  -1  -1 31655.8 874.659  12
  -5  -1  -1 31020.0 804.336  18
  -5  -1  -2 1159.62 210.044  12
  -5  -1  -2 1347.01 230.018   3
  -5  -1  -2 917.856 166.442  18
  -5  -1  -3 7472.69 485.452   3
  -5  -1  -3 7264.68 437.634  18
  -5  -1  -4 14726.4 596.905   9
  -5  -1  -4 14431.2 627.947  18
  -5  -1  -5 55391.9 1217.31   9
  -5  -1  -5 56434.7 1225.43  18
  -5  -1  -6 44163.2 1077.40   9
  -5  -1  -6 42749.8 1017.09  18
  -5  -1  -7-47.5400 92.1851   9
  -5  -1  -7 189.932 118.206  18
  -5  -1  -8 6289.37 337.143   9
   5   2  -9 14129.9 476.432  15
   5   2  -9 14823.0 549.029   7
   5   2  -8 3743.49 305.941  15
   5   2  -8 3985.00 334.283   7
   5   2  -7 3750.17 336.703  15
   5   2  -7 4168.34 348.666   7
   5   2  -6 3188.78 325.878  15
   5   2  -6 3355.20 316.938   7
   5   2  -5 2313.45 293.278  15
   5   2  -5 1953.47 242.277   7
   5   2  -4 19208.6 781.620  15
  -5  -2   3 19699.7 817.250   3
   5   2  -3 19819.3 772.088  15
  -5  -2   2 56717.3 1376.25   3
   5   2  -2 54326.7 1246.54  15
  -5  -2   1 3428.64 358.808   3
  -5  -2   1 3518.61 335.671  12
  -5  -2   0 33580.3 979.190  12
  -5  -2   0 34172.0 815.915  18
  -5  -2  -1 9686.61 563.526   3
  -5  -2  -1 9007.04 513.943  12
  -5  -2  -2 26988.0 849.797  12
  -5  -2  -3 27797.7 836.956  12
  -5  -2  -4 6509.46 393.093   9
  -5  -2  -4 5665.43 419.185  18
  -5  -2  -5 52289.0 1112.54   9
  -5  -2  -5 51076.5 1173.61  18
  -5  -2  -6 305.199 128.674   9
  -5  -2  -6 394.892 152.306  18
  -5  -2  -7 16897.5 540.347   9
  -5  -2  -7 16920.3 530.080  18
  -5  -2  -8 12496.7 360.838   9
   5   3  -9 499.971 91.3689  15
   5   3  -9 241.509 84.7591   7
   5   3  -8 30.8718 78.5600  15
   5   3  -8 133.722 93.2516   7
   5   3  -7 199.114 114.764  15
   5   3  -7 196.654 121.356   7
   5   3  -6 92.8690 122.847  15
   5   3  -6 129.860 92.7295   7
   5   3  -5 6043.82 447.731  15
   5   3  -5 6041.21 400.230   7
   5   3  -4 127.157 142.924  15
   5   3  -4 280.065 86.5375   7
   5   3  -3-18.0229 132.556  15
   5   3  -2 5897.41 443.290  15
  -5  -3   2 5579.25 436.399  12
  -5  -3   1 848.230 194.464  12
  -5  -3   0 6140.45 440.986  12
  -5  -3   0 5679.47 342.515  18
  -5  -3  -1-19.5560 111.713  12
  -5  -3  -2 116.283 114.536  12
  -5  -3  -3 2164.20 266.815  12
  -5  -3  -4 10911.9 542.802  18
  -5  -3  -5 0.79081 100.613   9
  -5  -3  -5 332.223 137.278  18
  -5  -3  -6 4106.01 254.574   9
  -5  -3  -6 4401.42 297.084  18
  -5  -3  -7 608.692 92.5619   9
  -5  -3  -7 934.821 124.653  18
   5   4  -9 862.225 97.4281   7
   5   4  -8 496.197 95.3364  15
   5   4  -8 712.391 124.778   7
   5   4  -7 4798.02 292.853  15
   5   4  -7 5180.89 327.554   7
   5   4  -6 1353.47 195.696  15
   5   4  -6 1218.20 197.639   7
   5   4  -5 11594.7 559.443  15
   5   4  -5 9516.34 469.054   7
   5   4  -4 3453.31 344.154  15
   5   4  -3 6602.79 469.478  15
   5   4  -2 6481.07 468.649  15
  -5  -4   1 18322.2 762.619  12
  -5  -4   0 4435.79 386.887  12
  -5  -4  -1 8405.43 513.688  12
  -5  -4  -1 8712.29 422.484  18
  -5  -4  -2 16798.8 688.444  12
  -5  -4  -2 16927.1 608.895  18
  -5  -4  -3 2794.07 267.441  12
  -5  -4  -3 2921.84 272.841  18
  -5  -4  -4 29932.9 743.756  12
  -5  -4  -4 31024.2 796.849  18
  -5  -4  -5 4029.05 270.880  18
  -5  -4  -6 8032.19 304.937  18
   5   5  -7 212.861 52.7989  15
   5   5  -7 158.470 75.7241   7
   5   5  -6 1155.92 159.247  15
   5   5  -6 1221.56 155.893   7
   5   5  -5 3720.29 272.552  15
   5   5  -5 3103.52 237.052   7
   5   5  -4 1976.77 237.650  15
   5   5  -3 13304.1 586.848  15
   5   5  -2 364.321 163.237  15
   5   5  -1 6412.18 429.938  15
  -5  -5   1 5916.61 415.886  12
  -5  -5   0 2157.18 272.548  12
  -5  -5  -1 2390.45 266.171  12
  -5  -5  -1 2150.56 190.257  18
  -5  -5  -2 2781.54 265.909  12
  -5  -5  -2 3099.64 234.009  18
  -5  -5  -3 484.216 128.334  12
  -5  -5  -3 117.746 93.3965  18
  -5  -5  -4 25576.6 578.516  18
  -5  -5  -5 5877.36 237.174  18
   5   6  -5-61.2739 62.5809  15
   5   6  -4 426.988 102.808  15
   5   6  -3 200.590 90.6425  15
   5   6  -3 71.2264 59.8643  10
   5   6  -2 1046.15 177.769  15
   5   6  -1 52.4032 88.0868  15
   5   6   0 144.282 105.363  15
   5   6   1 250.889 114.932  15
  -5  -6  -1 315.927 107.570  12
  -5  -6  -2 390.689 69.0292  18
   5   6   3 6227.06 270.185  15
   5   7  -2 7052.52 257.249  15
   5   7  -1 285.630 73.6003  15
   5   7   0 583.569 89.5925  15
  -6  11   2-3.54348 47.7493  11
  -6  11   1 643.076 106.464  11
  -6  11   0 1950.56 156.067  11
  -6  11  -1 1621.85 148.113  13
  -6  11  -1 1517.10 137.210  11
  -6  11  -2 11070.4 345.301  13
  -6  11  -3 2859.51 162.879  13
  -6  10   5 2315.07 150.570  11
  -6  10   4 1988.65 168.351  11
  -6  10   3 501.611 127.027  11
  -6  10   2 211.812 127.059  11
  -6  10   1 214.184 118.163  11
  -6  10   0 306.575 130.709  11
  -6  10  -1 528.477 143.623  11
  -6  10  -2 10744.6 450.530  13
  -6  10  -2 10305.8 422.548  11
  -6  10  -3 4655.40 295.224  13
  -6  10  -4 6277.89 303.652  13
  -6  10  -5 156.255 71.3961  13
  -6   9   6 7234.23 277.329  11
  -6   9   5 290.182 77.9865  17
  -6   9   5 399.493 118.938  11
  -6   9   4 10976.4 457.175  11
  -6   9   4 10774.5 400.368  17
  -6   9   3 938.928 185.429  11
  -6   9   2 1458.88 222.057  11
  -6   9   1 6073.26 408.107  11
  -6   9   0 10864.4 531.049  11
  -6   9  -1 31242.7 887.960  11
  -6   9  -2 66.9532 149.367  11
  -6   9  -3 714.053 173.286  13
  -6   9  -3 748.591 169.832  11
  -6   9  -4 117.521 130.671  13
  -6   9  -5 424.402 128.430  13
  -6   9  -6 675.504 117.966  13
  -6   8   7 18274.3 432.035  17
  -6   8   7 18109.5 421.446  11
  -6   8   6 8179.65 356.666  17
  -6   8   6 7754.18 313.050  16
  -6   8   6 8104.65 359.224  11
  -6   8   5 12119.8 466.320  17
  -6   8   5 12008.8 441.342  16
  -6   8   5 12055.7 494.216  11
  -6   8   4 7887.19 388.340  16
  -6   8   4 7882.08 436.054  11
  -6   8   3 3640.55 283.578  16
  -6   8   3 3554.51 328.352  11
  -6   8   2 3931.16 308.039  16
  -6   8   2 3703.52 349.062  11
  -6   8   1 24668.1 722.202  16
  -6   8   1 24846.9 849.473  11
  -6   8   1 24001.6 785.195  18
  -6   8   0 14605.2 564.097  16
  -6   8   0 15373.3 687.143  11
  -6   8   0 15981.5 641.113  18
  -6   8  -1 55628.7 1302.96  11
  -6   8  -1 53594.6 1149.41  18
  -6   8  -2 14989.5 703.579  11
  -6   8  -2 13659.4 565.289  18
  -6   8  -3 12137.5 615.510  13
  -6   8  -3 12536.3 625.134  11
  -6   8  -3 11577.3 490.136  18
  -6   8  -4 3910.58 353.304  13
  -6   8  -5 138.850 140.429  13
  -6   8  -6 5107.34 339.224  13
  -6   8  -7 883.405 137.614  13
  -6   7   8 3896.65 209.389  17
  -6   7   8 3997.91 203.311  16
  -6   7   7 1336.97 169.845  17
  -6   7   7 1388.12 167.790  16
  -6   7   7 1319.40 146.372  11
  -6   7   6 5794.24 342.270  17
  -6   7   6 5750.63 352.072  16
  -6   7   6 6068.60 337.226  11
  -6   7   5 584.992 136.839  17
  -6   7   5 250.377 139.375  16
  -6   7   5 483.492 149.207  11
  -6   7   4 10551.1 513.052  16
  -6   7   4 11015.8 534.386  11
  -6   7   3 385.685 154.687  16
  -6   7   3 76.2668 137.490  11
  -6   7   2 2366.36 276.472  16
  -6   7   2 2349.05 282.337  18
  -6   7   2 2301.49 304.780  11
  -6   7   1 587.780 204.476  11
  -6   7   1 719.525 189.774  18
  -6   7   0 7407.74 457.720  16
  -6   7   0 8129.01 529.815  11
  -6   7   0 7529.67 454.541  18
  -6   7  -1 25318.8 803.214  16
  -6   7  -1 27766.3 979.053  11
  -6   7  -1 25538.3 798.945  18
  -6   7  -2 8849.69 584.119  11
  -6   7  -2 8021.71 453.957  18
  -6   7  -3 27807.6 914.674  13
  -6   7  -3 31142.9 1051.42  11
  -6   7  -3 29550.4 807.414  18
  -6   7  -4 722.370 194.828  13
  -6   7  -4 542.333 140.753  18
  -6   7  -5 204.314 145.596  13
  -6   7  -6 1003.57 187.230  13
  -6   7  -7 90.1332 96.5484  13
  -6   7  -8 933.058 119.335  13
  -6   6   9 19665.3 419.788  16
  -6   6   8 11891.4 419.971  17
  -6   6   7 11276.5 467.584  17
  -6   6   6 8186.12 424.653  17
   6  -6  -6 7646.08 401.108  15
  -6   6   4 3465.47 340.119  16
  -6   6   4 3476.41 317.180  11
  -6   6   3 2940.06 316.101  16
  -6   6   3 2609.68 278.743  11
  -6   6   3 2724.32 279.618  18
  -6   6   2 53795.9 1209.96  16
  -6   6   2 53780.1 1206.57  11
  -6   6   2 56491.2 1155.17  18
  -6   6   1 31230.6 931.482  16
  -6   6   1 28108.3 886.292  11
  -6   6   1 30259.6 850.843  18
  -6   6   0 61735.6 1299.02  16
  -6   6   0 59305.0 1300.39  11
  -6   6   0 62520.7 1204.99  18
  -6   6  -1 1432.08 242.543  16
  -6   6  -1 1162.34 249.792  11
  -6   6  -1 1122.17 202.857  18
  -6   6  -2 3.93097 129.014  13
  -6   6  -2-31.6972 147.967  11
  -6   6  -2 26.4417 120.161  18
  -6   6  -3 11509.9 572.858  13
  -6   6  -3 11642.0 616.126  11
  -6   6  -3 11566.4 518.446  18
  -6   6  -4 489.696 173.360  13
  -6   6  -4 404.282 143.640  18
  -6   6  -5 12884.6 602.304  13
  -6   6  -5 13082.9 472.247  18
  -6   6  -6 1366.67 204.864  13
  -6   6  -7 2156.36 224.798  13
  -6   6  -8 1722.87 165.750  13
  -6   5   9 19754.5 481.569  17
   6  -5  -8 12692.2 492.435  15
   6  -5  -7 27535.1 776.948  15
   6  -5  -6 7421.93 424.501  15
   6  -5  -5 62056.7 1160.18  15
  -6   5   5 62157.3 1252.07  14
  -6   5   4 20427.2 746.296  14
  -6   5   4 20369.1 660.062  11
  -6   5   4 21614.1 668.034  18
  -6   5   3 35400.6 1021.10  16
  -6   5   3 37327.9 1013.89  14
  -6   5   3 35730.6 882.799  11
  -6   5   3 35868.1 882.083  18
  -6   5   2 21146.7 787.307  16
  -6   5   2 20555.4 759.791  14
   6  -5  -2 21861.2 764.327   2
  -6   5   2 21059.8 690.435  11
  -6   5   2 20500.2 671.694  18
  -6   5   1 9453.03 561.064  16
  -6   5   1 9135.03 503.608  14
   6  -5  -1 9830.27 497.509   2
  -6   5   1 9109.09 465.174  11
  -6   5   1 9188.54 452.621  18
  -6   5   0 129033. 1968.17  16
  -6   5   0 127500. 1804.84  14
   6  -5   0 126445. 1682.37   2
  -6   5   0 121577. 1694.64  11
  -6   5   0 125556. 1633.23  18
  -6   5  -1 22943.6 854.508  16
  -6   5  -1 21287.2 723.380  14
  -6   5  -1 21174.8 739.771  11
  -6   5  -1 22164.7 697.110  18
  -6   5  -1 22560.9 829.561   4
  -6   5  -2 116643. 1906.52  16
  -6   5  -2 112705. 1582.02  13
  -6   5  -2 116265. 1577.31  18
  -6   5  -3 10659.3 517.598  13
  -6   5  -3 11279.2 571.240  11
  -6   5  -3 11141.2 499.691  18
  -6   5  -4 6692.73 429.044  13
  -6   5  -4 6935.08 393.000  18
  -6   5  -5 10677.1 531.485  13
  -6   5  -5 10578.4 441.662  18
  -6   5  -6 4766.90 345.896  13
  -6   5  -7 21947.7 644.579  13
  -6   5  -8 3540.74 229.713  13
  -6   4  10 1935.90 137.343  16
   6  -4  -9 606.784 130.306  15
   6  -4  -9 613.010 101.881   6
   6  -4  -8 481.651 143.676  15
   6  -4  -8 462.642 112.636   6
   6  -4  -7 420.663 152.078  15
   6  -4  -7 129.287 98.7356   6
   6  -4  -6 7329.98 437.489  15
  -6   4   6 7801.24 428.236  14
   6  -4  -5 9558.54 485.681  15
  -6   4   5 10213.5 517.389  14
   6  -4  -4 537.264 147.851  15
  -6   4   4 719.752 172.647  14
  -6   4   3 3212.93 333.757  16
  -6   4   3 3108.54 307.573  14
  -6   4   3 3391.55 275.348  18
  -6   4   2 105.173 148.090  16
  -6   4   2 152.999 107.458  14
   6  -4  -2 156.644 77.7486   2
  -6   4   2-52.7883 104.151  18
  -6   4   1 280.597 157.666  16
  -6   4   1 135.418 119.635  14
   6  -4  -1 260.037 113.071   2
  -6   4   1 120.043 134.898  18
  -6   4   0 35916.8 1057.77  16
  -6   4   0 33528.6 905.981  14
  -6   4   0 32578.6 800.488  11
  -6   4   0 34069.2 832.021  18
  -6   4   0 33862.8 921.988   4
  -6   4  -1 34246.5 960.054   4
  -6   4  -1 35702.4 1049.16  16
  -6   4  -1 34070.8 873.877  14
  -6   4  -1 32658.5 836.418  11
  -6   4  -1 35086.2 855.083  18
  -6   4  -2 683.488 206.144  16
  -6   4  -2 753.720 174.435   4
  -6   4  -2 605.210 150.588  11
  -6   4  -2 712.813 159.958  18
  -6   4  -3 395.421 135.621   9
  -6   4  -3 564.643 141.313  13
  -6   4  -3 405.616 147.305  18
  -6   4  -4 2643.65 263.743  13
  -6   4  -4 2601.90 261.371  18
  -6   4  -4 2588.31 274.362   9
  -6   4  -5 5877.49 378.884  13
  -6   4  -5 5688.63 343.011  18
  -6   4  -5 5629.14 387.119   9
  -6   4  -6 6280.88 378.121  13
  -6   4  -6 5800.21 305.641  18
  -6   4  -6 6370.66 412.759   9
  -6   4  -7 2475.21 221.308  13
  -6   4  -7 2898.33 270.910   9
  -6   4  -8 1897.15 173.126  13
  -6   3  10 15344.2 361.832  16
   6  -3  -9 10861.0 455.386  15
   6  -3  -9 9978.36 396.021   6
   6  -3  -8 25391.0 780.080  15
   6  -3  -8 24295.1 697.110   6
   6  -3  -7 15207.5 632.358  15
   6  -3  -6 25031.8 811.939  15
  -6   3   6 26111.8 775.138  14
   6  -3  -5 14478.6 605.420  15
  -6   3   5 14060.9 605.234  14
   6  -3  -4 15379.3 587.494  15
  -6   3   4 14632.6 624.935  14
  -6   3   3 22260.7 786.110  16
   6  -3  -3 21008.8 642.944  15
  -6   3   3 21912.6 760.070  14
  -6   3   2 9157.05 498.478  16
  -6   3   2 8899.87 481.095  14
  -6   3   2 8389.25 387.333  18
  -6   3   1 103212. 1631.05  16
  -6   3   1 105882. 1594.88  14
  -6   3   1 105877. 1392.00  18
  -6   3   0 13008.8 532.987   4
  -6   3   0 13034.4 598.047  16
  -6   3   0 12539.9 543.297  14
  -6   3   0 13126.6 514.165  18
  -6   3  -1 39720.5 961.219   4
  -6   3  -1 38222.8 1011.33  16
  -6   3  -1 38760.7 890.750  18
  -6   3  -1 37836.9 901.689  14
  -6   3  -2 7150.60 427.940   4
  -6   3  -2 7297.74 407.739  18
  -6   3  -2 7169.17 380.745   9
  -6   3  -3 16863.2 618.289  18
  -6   3  -3 16045.8 597.273   9
  -6   3  -4 12496.1 505.937  13
  -6   3  -4 11525.8 514.375  18
  -6   3  -4 12146.4 547.012   9
  -6   3  -5 5202.12 340.728  13
  -6   3  -5 5289.02 342.994  18
  -6   3  -5 5496.40 384.796   9
  -6   3  -6 25336.5 702.574  13
  -6   3  -6 24472.7 648.747  18
  -6   3  -6 24968.4 777.754   9
  -6   3  -7 6098.23 328.954  13
  -6   3  -7 5848.38 361.901   9
  -6   3  -8 17312.6 534.054   9
   6  -2 -10 13231.6 400.904  15
   6  -2 -10 10086.3 323.201   6
   6  -2  -9 10328.2 450.012  15
   6  -2  -9 9382.40 407.416   6
   6  -2  -8 18874.7 684.507  15
   6  -2  -7 6872.02 445.515  15
   6  -2  -6 57646.5 1262.27  15
  -6   2   6 56842.1 1149.85  14
   6  -2  -5 27951.3 866.403  15
  -6   2   5 27020.8 835.976  14
   6  -2  -4 20619.6 709.120  15
  -6   2   3 22254.6 731.768  16
   6  -2  -3 22760.1 708.754  15
  -6   2   2 21440.5 706.182  16
  -6   2   2 20734.0 805.095   3
  -6   2   2 21180.8 590.617  18
  -6   2   1 111149. 1565.91  16
  -6   2   1 109227. 1768.27   3
  -6   2   1 113187. 1416.38  18
  -6   2   0 31802.5 854.820  16
  -6   2   0 33402.4 806.213  18
  -6   2  -1 27714.7 812.227  16
  -6   2  -1 26670.8 751.579  14
  -6   2  -1 28974.8 781.353  18
  -6   2  -2 28945.7 788.600   4
  -6   2  -2 30799.5 827.942  18
  -6   2  -3 4702.55 342.612  18
  -6   2  -3 4437.52 308.490   9
  -6   2  -4 44014.0 1011.11  18
  -6   2  -4 44619.2 1017.46   9
  -6   2  -5 47141.3 902.544  13
  -6   2  -5 46824.5 1006.93  18
  -6   2  -5 47684.9 1077.28   9
  -6   2  -6 33090.0 745.967  13
  -6   2  -6 31495.2 761.286  18
  -6   2  -6 33164.3 886.922   9
  -6   2  -7 20470.2 517.307  18
  -6   2  -7 20661.8 655.860   9
  -6   2  -8 5576.49 304.086   9
   6  -1 -10 4260.21 226.351  15
   6  -1 -10 2774.29 176.974   6
   6  -1  -9 630.205 148.868  15
   6  -1  -8 366.863 140.585  15
   6  -1  -7 3313.11 329.684  15
   6  -1  -6 5786.26 421.882  15
  -6   1   6 5387.53 369.480  14
   6  -1  -5 2280.26 272.911  15
  -6   1   4 6.93894 58.2293  16
   6  -1  -4 39.2144 112.001  15
   6  -1  -3-311.079 120.918  15
  -6   1   3 22.9555 102.658   1
  -6   1   2 3999.31 385.201   3
   6  -1  -2 2329.54 252.732  15
  -6   1   1 9697.34 558.834   3
   6  -1  -1 10078.9 467.771  15
  -6   1   1 10231.2 439.065  18
  -6   1   0 1540.58 258.828   3
  -6   1   0 1702.04 213.635  18
  -6   1  -1 1403.82 202.817  18
  -6   1  -2 944.950 182.647  18
  -6   1  -3 275.453 137.156  18
  -6   1  -4 3672.65 300.801   9
  -6   1  -4 3609.31 310.161  18
  -6   1  -5 1164.05 198.916   9
  -6   1  -5 1393.27 213.570  18
  -6   1  -6 4986.21 325.885  18
  -6   1  -6 5213.26 351.405   9
  -6   1  -7 730.952 134.959  18
  -6   1  -7 1160.56 169.512   9
  -6   1  -8 19175.6 506.067   9
   6   0 -10 567.826 87.7390   6
   6   0  -9 7235.52 354.821  15
   6   0  -8 14416.5 580.766  15
   6   0  -7 21519.7 770.337  15
  -6   0   7 20802.6 623.702  14
   6   0  -7 21996.6 721.995   7
   6   0  -6 4197.15 370.572  15
   6   0  -6 4214.35 325.483   7
   6   0  -5 17602.1 723.470  15
   6   0  -4 9303.03 525.509  15
   6   0  -3 4490.92 365.569  15
  -6   0   2 47922.2 1287.93   3
   6   0  -2 47026.7 1103.04  15
  -6   0   1 9885.90 593.083   3
   6   0  -1 9089.73 478.241  15
  -6   0   1 9375.39 413.519  18
   6   0   0 17380.6 637.328  15
  -6   0   0 17301.7 757.237   3
  -6   0   0 17558.9 603.562  18
  -6   0  -1 16067.9 721.957   3
  -6   0  -1 17451.8 632.247  18
  -6   0  -2 19997.6 701.041  18
  -6   0  -3 36236.0 962.889  18
  -6   0  -4 26208.8 737.403   9
  -6   0  -4 26075.8 814.694  18
  -6   0  -5 15806.7 583.264   9
  -6   0  -5 17564.6 646.269  18
  -6   0  -6 16049.0 567.347   9
  -6   0  -6 15594.9 547.746  18
  -6   0  -7 1696.25 167.392  18
  -6   0  -7 1547.28 169.706   9
   6   1  -9 6963.13 311.582  15
   6   1  -8 4093.35 305.378  15
   6   1  -7 16853.1 656.795  15
   6   1  -7 16517.8 599.907   7
   6   1  -6 32408.5 968.127  15
   6   1  -6 30707.4 830.102   7
   6   1  -5 5806.10 433.610  15
   6   1  -4 4753.34 392.416  15
   6   1  -3 2414.27 288.439  15
   6   1  -2 24831.0 854.511  15
   6   1  -1 43909.8 1096.05  15
   6   1   0 6754.73 433.819  15
  -6  -1   0 7115.80 388.120  18
  -6  -1  -1 14675.3 582.639  18
  -6  -1  -2 7733.63 452.516  18
  -6  -1  -3 30645.5 888.553  18
  -6  -1  -4 39817.7 1000.31  18
  -6  -1  -5 24334.4 643.574   9
  -6  -1  -5 25259.4 754.813  18
  -6  -1  -6 13347.8 442.493   9
  -6  -1  -6 13348.8 488.267  18
  -6  -1  -7 17949.5 436.192  18
  -6  -1  -7 16332.0 393.451   9
   6   2  -8 177.436 100.885  15
   6   2  -7 6514.19 387.008  15
   6   2  -7 6123.00 338.387   7
   6   2  -6 1175.73 214.510  15
   6   2  -6 863.983 166.188   7
   6   2  -5 647.021 188.786  15
   6   2  -4 116.696 146.432  15
   6   2  -3 392.707 156.910  15
   6   2  -2 23606.0 850.480  15
   6   2  -1 10676.4 573.724  15
   6   2   0 2709.16 299.246  15
  -6  -2   0 2194.76 214.728  18
  -6  -2  -1 845.702 166.933  18
  -6  -2  -2 1513.81 217.761  18
  -6  -2  -3 1465.17 227.441  18
  -6  -2  -4 1670.53 229.044  18
  -6  -2  -5 2002.92 216.993  18
  -6  -2  -6 432.478 105.656  18
   6   3  -8 5998.02 246.625  15
   6   3  -7 4943.26 290.059  15
   6   3  -7 4435.34 244.362   7
   6   3  -6 1095.87 182.795  15
   6   3  -5 8.00542 128.748  15
   6   3  -4-129.097 129.823  15
   6   3  -3 5859.59 426.267  15
   6   3  -2 54020.3 1253.85  15
   6   3  -1 340.531 141.905  15
   6   3   0 3568.65 332.322  15
  -6  -3  -1 7858.77 382.819  18
  -6  -3  -2 15474.1 544.519  18
  -6  -3  -3 36871.1 822.683  18
  -6  -3  -4 4408.97 281.122  18
  -6  -3  -5 7882.77 319.584  18
   6   4  -7 1369.44 117.851  15
   6   4  -6 2150.90 188.034  15
   6   4  -5 1373.11 178.431  15
   6   4  -4 1662.36 214.172  15
   6   4  -3 13627.7 567.688  15
   6   4  -2 679.076 172.333  15
   6   4  -1 432.041 153.485  15
   6   4   0 3529.34 308.919  15
   6   4   1 4693.48 331.803  15
  -6  -4  -1 4855.44 249.665  18
   6   4   2 22736.4 646.528  15
  -6  -4  -2 23630.8 548.336  18
   6   4   3 9041.39 358.791  15
  -6  -4  -3 9213.27 336.457  18
  -6  -4  -4 4450.56 214.190  18
   6   5  -5 186.377 75.2617  15
   6   5  -4 1005.58 139.907  15
   6   5  -3 220.902 91.3796  15
   6   5  -2 853.085 153.784  15
   6   5  -1 2848.69 238.689  15
   6   5   0-223.656 87.0432  15
   6   5   1 255.907 81.2451  15
   6   5   2 2818.06 185.953  15
  -7  10   3 513.658 97.8573  11
  -7  10   2 722.590 117.918  11
  -7  10   1 725.843 134.881  11
  -7  10   0 1556.94 141.444  13
  -7  10   0 1553.87 171.033  11
  -7  10  -1-22.7858 73.1580  13
  -7  10  -1-41.5772 90.3018  11
  -7  10  -2 476.450 98.5168  13
  -7  10  -3 546.351 85.8816  13
  -7   9   5 5697.24 231.041  11
  -7   9   4 4756.92 261.694  11
  -7   9   3 14960.0 401.977  16
  -7   9   3 18845.4 554.533  11
  -7   9   2 10490.5 360.497  16
  -7   9   2 12740.6 492.716  11
  -7   9   1 21297.0 659.992  11
  -7   9   0 5408.39 302.385  13
  -7   9   0 6030.97 370.476  11
  -7   9  -1 376.145 102.491  13
  -7   9  -1 581.042 165.928  11
  -7   9  -2 2042.88 210.373  13
  -7   9  -2 2090.60 231.040  11
  -7   9  -3 3403.91 245.134  13
  -7   9  -4 16254.4 465.018  13
  -7   9  -5 1552.23 133.195  13
  -7   8   6 458.355 85.5084  16
  -7   8   5 2727.22 204.266  16
  -7   8   5 3066.46 207.294  11
  -7   8   4 824.374 152.170  16
  -7   8   4 901.323 151.355  11
  -7   8   3 4230.27 294.705  16
  -7   8   3 4856.39 328.933  11
  -7   8   2 8857.14 435.740  16
  -7   8   2 9565.22 475.976  11
  -7   8   1 5642.34 364.526  16
  -7   8   1 6276.16 407.402  11
  -7   8   1 6184.74 390.917  18
  -7   8   0 6572.90 383.760  16
  -7   8   0 6505.34 349.819  13
  -7   8   0 7124.38 449.783  11
  -7   8   0 7343.27 425.142  18
  -7   8  -1-152.008 104.535  13
  -7   8  -1 68.6555 120.287  11
  -7   8  -1 4.46732 111.914  18
  -7   8  -2 1221.08 183.208  13
  -7   8  -2 1228.09 226.864  11
  -7   8  -2 1080.08 177.175  18
  -7   8  -3 4362.79 306.553  13
  -7   8  -3 4457.82 289.284  18
  -7   8  -4 282.518 112.092  13
  -7   8  -4 531.522 103.245  18
  -7   8  -5 4095.87 254.633  13
  -7   8  -6 76.0926 67.7935  13
  -7   7   7 12029.7 368.527  16
  -7   7   6 8596.49 374.633  16
  -7   7   5 7715.41 398.729  16
  -7   7   5 7632.91 344.095  11
  -7   7   4 14278.1 568.083  16
  -7   7   4 13718.4 516.816  11
  -7   7   3 6488.30 414.564  16
  -7   7   3 5891.95 380.330  11
  -7   7   2 2930.12 297.615  16
  -7   7   2 2773.96 290.821  11
  -7   7   2 2897.71 285.256  18
  -7   7   1 1412.93 243.408  16
  -7   7   1 1565.79 226.089  11
  -7   7   1 1422.84 224.535  18
  -7   7   0 2630.81 305.749  16
  -7   7   0 2564.72 296.740  11
  -7   7   0 2814.34 292.757  18
  -7   7  -1 7787.65 485.453  11
  -7   7  -1 8057.02 450.900  18
  -7   7  -2 3183.71 278.536  13
  -7   7  -2 3178.20 331.101  11
  -7   7  -2 3565.91 303.471  18
  -7   7  -3 15219.3 566.483  13
  -7   7  -3 15801.2 565.663  18
  -7   7  -4 6603.52 370.250  13
  -7   7  -4 7525.72 358.813  18
  -7   7  -5 1383.55 171.730  13
  -7   7  -6 487.827 100.617  13
  -7   6   8 14722.3 390.628  16
  -7   6   7 13906.5 472.885  16
  -7   6   6 26268.0 734.373  16
  -7   6   5 7991.87 450.240  16
  -7   6   4 54152.0 1194.53  16
  -7   6   3 36098.4 1005.54  16
  -7   6   3 34768.1 845.528  11
  -7   6   3 35377.6 885.126  18
  -7   6   2 36421.6 1035.72  16
  -7   6   2 34525.3 887.450  11
  -7   6   2 37747.5 941.470  18
  -7   6   1 27076.1 906.852  16
  -7   6   1 26538.1 804.392  11
  -7   6   1 26832.8 806.375  18
  -7   6   0 164.381 173.528  16
  -7   6   0 199.630 142.283  11
  -7   6   0 117.595 127.082  18
  -7   6  -1 10964.3 612.535  16
  -7   6  -1 9881.05 523.696  11
  -7   6  -1 10524.5 509.968  18
  -7   6  -2 15370.7 650.342  11
  -7   6  -2 16517.5 625.312  18
  -7   6  -3 22195.5 667.244  13
  -7   6  -3 24574.4 727.307  18
  -7   6  -4 21472.6 649.849  13
  -7   6  -4 23115.7 653.638  18
  -7   6  -5 5059.83 304.097  13
  -7   6  -5 5132.78 280.055  18
  -7   6  -6 12627.2 418.333  13
  -7   6  -7 9024.04 284.147  13
  -7   5   8 270.867 107.410  16
  -7   5   7 324.344 128.670  16
   7  -5  -7 443.025 110.331  15
  -7   5   6 677.714 188.737  16
   7  -5  -6 822.590 142.906  15
  -7   5   5 9880.81 530.604  16
  -7   5   4 9767.51 546.302  16
  -7   5   4 9065.65 513.947  14
  -7   5   3 27756.8 922.987  16
  -7   5   3 27259.6 891.946  14
  -7   5   3 26716.3 755.517  18
  -7   5   2 9432.33 571.275  16
  -7   5   2 9543.24 539.980  14
  -7   5   2 9928.90 480.687  18
  -7   5   1 16353.0 756.271  16
  -7   5   1 15748.6 682.781  14
  -7   5   1 16103.2 617.334  18
  -7   5   0 1682.07 302.567  16
  -7   5   0 1614.92 236.035  14
  -7   5   0 1613.99 218.258  11
  -7   5   0 1665.48 222.889  18
  -7   5  -1 49.2135 184.931  16
  -7   5  -1 253.119 101.115  14
  -7   5  -1 104.158 121.386  11
  -7   5  -1 140.590 129.153  18
  -7   5  -2 521.445 154.427  18
  -7   5  -3 322.346 131.999  18
  -7   5  -4 6530.15 342.056  13
  -7   5  -4 6773.58 379.640  18
  -7   5  -5 3232.02 235.525  13
  -7   5  -5 2973.57 239.865  18
  -7   5  -6 7780.50 323.890  13
  -7   5  -7 3157.39 176.169  13
  -7   4   8 18302.7 514.699  16
   7  -4  -8 17926.5 511.599  15
  -7   4   7 31031.3 786.514  16
   7  -4  -7 30571.0 743.636  15
  -7   4   6 1225.00 216.241  16
   7  -4  -6 893.819 169.986  15
  -7   4   6 971.669 169.199  14
  -7   4   5 41235.5 1056.68  16
   7  -4  -5 41425.0 911.596  15
  -7   4   5 40350.7 1014.54  14
  -7   4   4 18735.3 742.100  16
  -7   4   4 19113.8 743.095  14
  -7   4   3 13255.8 646.788  16
  -7   4   3 12729.0 616.443  14
  -7   4   3 12855.4 509.223  18
  -7   4   2 8318.72 517.971  16
  -7   4   2 8295.52 504.722  14
  -7   4   2 8983.29 444.227  18
  -7   4   1 13678.1 665.312  16
  -7   4   1 14160.8 644.594  14
  -7   4   1 14040.1 558.899  18
  -7   4   0 22925.2 864.685  16
  -7   4   0 23179.6 793.101  14
  -7   4   0 22213.9 710.643  18
  -7   4  -1 5944.00 458.240  16
  -7   4  -1 5923.66 399.629  14
  -7   4  -1 5796.41 383.717  18
  -7   4  -2 40463.9 968.641  18
  -7   4  -3 29911.6 821.329  18
  -7   4  -4 7066.95 392.644  18
  -7   4  -5 6763.39 312.777  13
  -7   4  -5 7025.15 356.712  18
  -7   4  -6 1229.76 131.686  13
  -7   4  -6 1272.59 136.532  18
   7  -3  -9 7574.81 288.231  15
  -7   3   8 3246.15 232.225  16
   7  -3  -8 3800.63 260.714  15
  -7   3   7 6388.70 356.721  16
   7  -3  -7 6382.91 371.747  15
  -7   3   6 50239.2 1049.14  16
   7  -3  -6 50620.8 1054.41  15
  -7   3   6 50009.3 1038.36  14
  -7   3   5 56461.5 1172.34  16
   7  -3  -5 56581.1 1118.16  15
  -7   3   5 54176.8 1189.40  14
  -7   3   4 61869.7 1265.12  16
   7  -3  -4 61448.2 1144.00  15
  -7   3   4 60620.7 1312.13  14
  -7   3   3 22115.2 774.640  16
  -7   3   3 21775.9 801.856  14
  -7   3   2 14174.6 632.548  16
  -7   3   2 13683.2 639.118  14
  -7   3   2 13793.7 521.736  18
  -7   3   1 343.667 167.736  16
  -7   3   1 407.607 166.835  14
  -7   3   1 452.486 154.454  18
  -7   3   0 11783.9 584.403  16
  -7   3   0 11952.5 571.960  14
  -7   3   0 12406.0 533.130  18
  -7   3  -1 32502.2 878.893  14
  -7   3  -1 32082.3 861.334  18
  -7   3  -2 35159.9 908.505  18
  -7   3  -3 57464.6 1149.58  18
  -7   3  -4 13125.3 535.251  18
  -7   3  -5 26097.9 687.672  18
  -7   3  -6 18340.6 491.284  18
   7  -2  -9-17.4953 55.1664  15
   7  -2  -8 152.628 102.277  15
  -7   2   7 6395.44 314.441  16
   7  -2  -7 6412.36 375.146  15
  -7   2   7 6355.66 317.269  14
  -7   2   6 1319.12 186.752  16
   7  -2  -6 1093.11 187.648  15
  -7   2   6 1145.45 191.805  14
  -7   2   5 5507.32 347.881  16
   7  -2  -5 5256.36 366.694  15
  -7   2   5 5052.48 382.844  14
  -7   2   4 6035.78 380.186  16
   7  -2  -4 5438.96 374.001  15
  -7   2   4 5360.77 414.167  14
  -7   2   3 3637.83 309.734  16
   7  -2  -3 3500.89 298.411  15
  -7   2   3 3262.98 327.476  14
  -7   2   2 51503.9 1087.91  16
  -7   2   2 52226.6 1228.21  14
  -7   2   2 51531.2 957.042  18
  -7   2   1 5781.58 387.384  16
  -7   2   1 5975.41 422.061  14
  -7   2   1 5810.44 351.123  18
  -7   2   0 476.252 172.302  16
  -7   2   0 302.335 123.414  14
  -7   2   0 488.734 146.962  18
  -7   2  -1 4646.45 339.011  14
  -7   2  -1 4720.57 346.490  18
  -7   2  -2 373.349 142.218  18
  -7   2  -3 1787.30 241.367  18
  -7   2  -4 3774.40 301.810  18
  -7   2  -4 3257.60 254.463   9
  -7   2  -5 18206.6 580.385  18
  -7   2  -5 17394.6 549.558   9
  -7   2  -6 3252.73 222.501  18
  -7   2  -6 3280.48 230.871   9
   7  -1  -9 2412.31 165.461  15
   7  -1  -8 14618.1 491.156  15
   7  -1  -7 8638.84 431.723  15
  -7   1   7 7959.17 349.651  14
   7  -1  -6 17143.6 641.391  15
  -7   1   6 16243.9 596.286  14
   7  -1  -5 24708.4 793.173  15
  -7   1   5 23152.9 773.745  14
   7  -1  -4 2581.74 285.484  15
   7  -1  -3 1668.87 227.073  15
   7  -1  -2 2327.20 255.348  15
  -7   1   1 10435.9 451.150  18
  -7   1   0 38801.7 899.446  18
  -7   1  -1 34782.8 891.532  14
  -7   1  -1 33547.2 868.824  18
  -7   1  -2 45839.6 1033.67  18
  -7   1  -3 1589.63 226.642  18
  -7   1  -4 7066.96 402.335  18
  -7   1  -5 5864.19 336.570  18
  -7   1  -6 5927.42 284.666  18
  -7   1  -6 4888.14 235.462   9
   7   0  -8 7336.79 331.528  15
   7   0  -7 3628.80 276.894  15
  -7   0   7 3678.64 241.241  14
   7   0  -6 25775.3 775.327  15
  -7   0   6 25999.0 721.483  14
   7   0  -5 20964.8 728.894  15
   7   0  -4 13868.4 610.597  15
   7   0  -3 24745.1 798.346  15
   7   0  -2 2041.16 256.901  15
   7   0  -1 30963.6 851.016  15
  -7   0   1 31287.4 728.570  18
  -7   0   0 4042.45 300.350  18
  -7   0  -1 20047.3 655.775  18
  -7   0  -2 29356.6 804.565  18
  -7   0  -3 19824.4 656.367  18
  -7   0  -4 43382.1 922.322  18
  -7   0  -5 11039.6 432.184  18
  -7   0  -6 21821.3 488.784  18
   7   1  -8 30.7558 57.4328  15
   7   1  -7 833.064 140.813  15
  -7  -1   7 679.507 105.332  14
   7   1  -6 575.206 144.179  15
  -7  -1   6 790.889 136.787  14
   7   1  -5 3349.61 303.831  15
   7   1  -4 1341.79 211.715  15
   7   1  -3 14403.4 614.990  15
   7   1  -2 511.920 161.631  15
   7   1  -1 9994.43 501.360  15
   7   1   0 2736.71 273.052  15
  -7  -1   0 2516.18 222.417  18
  -7  -1  -1 331.551 114.988  18
  -7  -1  -2 11518.3 481.713  18
  -7  -1  -3 4163.30 295.442  18
  -7  -1  -4 1201.52 167.131  18
  -7  -1  -5 507.975 112.093  18
   7   2  -7 5410.69 260.095  15
   7   2  -6 9141.75 389.957  15
   7   2  -5 3103.77 262.606  15
   7   2  -4 2565.24 259.801  15
   7   2  -3 3383.45 293.919  15
   7   2  -2 10262.7 498.860  15
   7   2  -1 9089.05 466.480  15
   7   2   0 12293.3 517.519  15
   7   2   1 16099.3 540.601  15
  -7  -2  -1 15949.8 478.197  18
  -7  -2  -2 3452.02 235.661  18
  -7  -2  -3 12097.0 407.589  18
  -7  -2  -4 1646.77 150.009  18
   7   3  -6 4167.62 211.864  15
   7   3  -5 1310.02 160.142  15
   7   3  -4 7571.14 361.932  15
   7   3  -3 654.438 138.926  15
   7   3  -2 4041.77 291.648  15
   7   3  -1 2449.44 232.044  15
   7   3   0 7153.92 353.488  15
   7   3   1 17414.9 492.845  15
  -7  -3  -2 6789.45 240.572  18
  -7  -3  -3 4043.59 176.706  18
   7   4  -4 4260.70 212.902  15
   7   4  -3 659.751 112.410  15
   7   4  -2 2594.01 188.908  15
   7   4  -1 356.729 92.5462  15
   7   4   0 31.5563 65.7599  15
  -8   9   2 9972.76 327.668  11
  -8   9   1 5348.55 269.562  11
  -8   9   0 1717.98 178.784  11
  -8   8   5 6102.31 229.264  16
  -8   8   4 130.138 90.3595  16
  -8   8   3 2630.73 210.665  16
  -8   8   3 2679.09 183.372  11
  -8   8   2 608.987 135.644  16
  -8   8   2 709.828 127.596  11
  -8   8   1 2730.59 221.536  11
  -8   8   0 2698.35 234.085  11
  -8   8   0 2582.07 226.474  18
  -8   8  -1-71.5397 91.2628  11
  -8   8  -1 184.980 109.050  18
  -8   8  -2 239.687 112.774  18
  -8   8  -3 1472.02 150.324  18
  -8   7   6 13783.5 367.509  16
  -8   7   5 8863.16 360.270  16
  -8   7   4 30452.4 721.234  16
  -8   7   3 19420.1 622.450  16
  -8   7   2 14069.2 557.605  16
  -8   7   2 13197.5 445.998  11
  -8   7   2 14951.9 529.255  18
  -8   7   1 6597.23 402.762  16
  -8   7   1 6827.24 351.508  11
  -8   7   1 7638.64 398.948  18
  -8   7   0 2733.31 238.738  11
  -8   7   0 3063.57 271.812  18
  -8   7  -1 9233.87 427.634  18
  -8   7  -2 1081.93 174.268  18
  -8   7  -3 18835.5 525.117  18
  -8   7  -4 7341.68 286.021  18
  -8   6   7-14.7754 62.4572  16
  -8   6   6 329.006 111.300  16
  -8   6   5 16346.1 541.092  16
  -8   6   4 8281.27 430.286  16
  -8   6   3 13838.7 582.088  16
  -8   6   3 13703.7 484.883  18
  -8   6   2 480.184 169.317  16
  -8   6   2 606.747 157.558  18
  -8   6   1 310.598 187.022  16
  -8   6   1 240.495 121.553  18
  -8   6   0 13535.7 623.655  16
  -8   6   0 14045.6 547.840  18
  -8   6  -1 1713.67 228.253  18
  -8   6  -2 4256.23 306.446  18
  -8   6  -3 1002.66 152.833  18
  -8   6  -4 1135.79 144.387  18
  -8   5   7 9437.93 319.213  16
  -8   5   6 6016.15 317.433  16
  -8   5   5 3318.95 275.766  16
  -8   5   4 7950.97 441.260  16
  -8   5   4 7975.89 439.125  14
  -8   5   3 3537.35 325.386  16
  -8   5   3 3860.98 327.905  14
  -8   5   3 3683.94 260.361  18
  -8   5   2 2713.32 303.577  16
  -8   5   2 2484.60 275.580  14
  -8   5   2 2987.52 254.227  18
  -8   5   1 3900.99 364.020  16
  -8   5   1 3724.35 322.947  14
  -8   5   1 3592.41 294.532  18
  -8   5   0 1865.09 278.325  16
  -8   5   0 1798.19 221.922  14
  -8   5   0 1980.93 235.754  18
  -8   5  -1 773.365 170.656  18
  -8   5  -2 16741.0 579.569  18
  -8   5  -3 6280.17 347.213  18
  -8   5  -4 12546.9 431.778  18
  -8   5  -5 170.127 79.5142  18
  -8   4   7 9487.66 318.436  16
  -8   4   6 15949.3 491.653  16
  -8   4   5 19919.4 616.268  16
  -8   4   5 20128.1 643.113  14
  -8   4   4 19292.0 652.299  16
  -8   4   4 20702.9 709.805  14
  -8   4   3 12231.5 548.554  16
  -8   4   3 12731.2 586.459  14
  -8   4   2 7677.98 463.485  16
  -8   4   2 9044.64 497.615  14
  -8   4   2 8278.23 395.167  18
  -8   4   1 39350.6 1022.60  16
  -8   4   1 40615.6 1016.30  14
  -8   4   1 40093.4 891.726  18
  -8   4   0 19650.9 683.700  14
  -8   4   0 19774.1 645.256  18
  -8   4  -1 19212.5 621.073  14
  -8   4  -1 18396.7 620.592  18
  -8   4  -2 10826.7 474.321  18
  -8   4  -3 14736.5 520.341  18
  -8   4  -4 11801.0 427.919  18
  -8   4  -5 13387.8 384.811  18
   8  -3  -7 214.416 69.1343  15
  -8   3   6 8970.30 341.452  16
   8  -3  -6 8961.13 349.365  15
  -8   3   6 9434.75 390.031  14
  -8   3   5 1881.36 201.772  16
   8  -3  -5 1867.67 185.846  15
  -8   3   5 1792.13 220.357  14
  -8   3   4 3237.58 261.058  16
  -8   3   4 3259.68 303.252  14
  -8   3   3 1036.33 179.760  16
  -8   3   3 875.546 182.756  14
  -8   3   2-97.5949 127.242  16
  -8   3   2-31.4511 103.527  14
  -8   3   2 168.303 101.166  18
  -8   3   1 14751.8 582.576  16
  -8   3   1 14637.6 617.951  14
  -8   3   1 14157.7 518.711  18
  -8   3   0 4146.99 321.546  14
  -8   3   0 4078.82 304.593  18
  -8   3  -1 1835.94 202.969  14
  -8   3  -1 1508.92 204.987  18
  -8   3  -2 4948.39 330.577  18
  -8   3  -3 76.4333 101.764  18
  -8   3  -4 6890.73 336.256  18
  -8   3  -5 8566.58 311.850  18
   8  -2  -7 3815.16 210.787  15
   8  -2  -6 2735.68 207.794  15
  -8   2   6 3143.54 226.067  14
   8  -2  -5 3231.64 231.565  15
  -8   2   5 3134.44 269.287  14
   8  -2  -4 11574.0 437.262  15
  -8   2   4 11570.9 530.464  14
  -8   2   3 7226.94 436.357  14
  -8   2   2 22839.1 770.662  14
  -8   2   1 3180.28 298.162  14
  -8   2   1 2660.12 232.563  18
  -8   2   0 2599.27 252.982  14
  -8   2   0 2970.87 246.945  18
  -8   2  -1 4659.33 307.993  18
  -8   2  -2 3224.82 267.447  18
  -8   2  -3 8569.15 393.877  18
  -8   2  -4 2302.41 205.766  18
  -8   2  -5 2824.86 184.703  18
   8  -1  -7 9887.27 321.186  15
   8  -1  -6 2448.92 199.035  15
  -8   1   6 2265.60 192.079  14
   8  -1  -5 14527.0 484.246  15
  -8   1   5 14697.2 528.268  14
   8  -1  -4 7279.58 359.990  15
  -8   1   4 7453.81 413.247  14
   8  -1  -3 2340.08 213.934  15
  -8   1   3 2811.62 273.519  14
  -8   1   2 44306.7 1034.10  14
  -8   1   1 12965.1 551.497  14
  -8   1   1 12274.5 415.924  18
  -8   1   0 29654.3 782.488  14
  -8   1   0 29107.5 676.030  18
  -8   1  -1 9222.32 399.325  18
  -8   1  -2 5977.13 326.149  18
  -8   1  -3 13784.8 464.356  18
  -8   1  -4 8609.64 334.517  18
  -8   1  -5 8088.30 264.524  18
   8   0  -6 1231.80 140.507  15
  -8   0   6 1299.13 132.138  14
   8   0  -5 1666.51 184.809  15
  -8   0   5 2035.68 191.973  14
   8   0  -4 58.5836 83.4786  15
  -8   0   4 10.0376 100.457  14
   8   0  -3 1962.66 189.820  15
  -8   0   3 2028.41 227.541  14
   8   0  -2 10449.6 410.493  15
  -8   0   2 11716.4 507.608  14
  -8   0   1 18263.3 613.027  14
  -8   0   0 610.584 131.254  14
  -8   0   0 469.051 99.5280  18
  -8   0  -1 2037.32 185.211  18
  -8   0  -2 129.506 89.8021  18
  -8   0  -3 2489.59 181.756  18
  -8   0  -4 1951.79 146.403  18
   8   1  -5 3762.83 218.507  15
  -8  -1   5 4029.05 229.847  14
   8   1  -4 1016.92 142.067  15
  -8  -1   4 1097.00 147.791  14
   8   1  -3 18303.6 518.309  15
  -8  -1   3 19544.0 582.202  14
   8   1  -2 102.607 74.8379  15
  -8  -1   2 120.001 91.1794  14
   8   1  -1 16092.9 446.076  15
  -8  -1   1 16923.2 520.010  14
  -8  -1   0 174.742 80.2276  14
  -8  -1  -1 92.1380 67.9045  18
  -8  -1  -2 2372.15 150.530  18
   8   2  -4 1108.24 113.012  15
  -8  -2   4 1022.74 113.762  14
   8   2  -3 26388.8 515.978  15
  -8  -2   3 27887.0 564.316  14
   8   2  -2 16075.3 400.957  15
  -8  -2   2 16533.0 435.849  14
  -8  -2   1 1112.45 119.883  14
  -9   7   1 1796.39 157.615  18
  -9   7   0 5331.69 260.768  18
  -9   7  -1 4798.14 238.664  18
  -9   7  -2 15405.3 380.099  18
  -9   6   4 2328.20 177.980  16
  -9   6   3 9711.95 373.583  16
  -9   6   2 8620.01 306.522  18
  -9   6   1 10161.7 366.559  18
  -9   6   0 347.247 118.673  18
  -9   6  -1 3094.77 215.302  18
  -9   6  -2 3337.36 209.067  18
  -9   6  -3 100.990 59.0051  18
  -9   5   4 3944.80 229.321  16
  -9   5   3 34210.2 695.502  16
  -9   5   2 15178.4 404.987  18
  -9   5   1 16009.5 456.523  18
  -9   5   0 19430.4 521.010  18
  -9   5  -1 17038.5 481.861  18
  -9   5  -2 15295.1 434.711  18
  -9   5  -3 3470.40 191.017  18
  -9   4   4 72.3334 67.8915  16
  -9   4   3 164.371 87.0371  14
  -9   4   2 842.237 147.717  14
  -9   4   1 10299.2 414.864  14
  -9   4   1 9219.81 338.508  18
  -9   4   0 6678.58 307.413  18
  -9   4  -1 44009.2 754.272  18
  -9   4  -2 2235.21 183.730  18
  -9   4  -3 2560.82 168.165  18
  -9   3   4 22668.9 570.560  14
  -9   3   3 9817.67 404.311  14
  -9   3   2 3490.42 252.409  14
  -9   3   1 4125.54 266.535  14
  -9   3   1 3677.53 199.549  18
  -9   3   0 474.776 110.759  14
  -9   3   0 541.685 126.904  18
  -9   3  -1 3458.73 214.372  18
  -9   3  -2 100.539 69.9093  18
  -9   3  -3 121.574 66.7662  18
  -9   2   5 4210.70 204.456  14
  -9   2   4 11358.6 383.700  14
  -9   2   3 14594.6 465.892  14
  -9   2   2 17436.4 511.688  14
  -9   2   1 15539.2 461.681  14
  -9   2   0 43560.0 613.141  18
  -9   2  -1 3887.27 202.189  18
  -9   2  -2 3512.78 184.898  18
  -9   1   4 47.2426 59.6974  14
  -9   1   3 2475.07 185.454  14
  -9   1   2 1453.91 147.932  14
  -9   1   1 9957.93 326.565  14
   0   0   0    0.00    0.00   0
TITL phenylpyridine in P-1
REM P-1 (#2 in standard setting)
CELL 1.54184   7.791235   9.533821   9.902302  93.4228  95.0786 111.7417
ZERR    2.00   0.000479   0.000698   0.000448   0.0047   0.0043   0.0063
LATT  1
SFAC C H N Cu
UNIT 34.00 22.00 6.00 2.00
TREF
HKLF 4
END
;
_shelx_hkl_checksum              42862
loop_
_space_group_symop_operation_xyz
'x, y, z'
'-x, -y, -z'
loop_
_atom_site_label
_atom_site_type_symbol
_atom_site_fract_x
_atom_site_fract_y
_atom_site_fract_z
_atom_site_U_iso_or_equiv
_atom_site_adp_type
_atom_site_occupancy
_atom_site_site_symmetry_order
_atom_site_calc_flag
_atom_site_refinement_flags_posn
_atom_site_refinement_flags_adp
Cu1 Cu 0.14960(5) 0.67235(5) 0.49702(4) 0.03550(16) Uani 1 1 d . .
N1 N -0.1042(3) 0.6061(2) 0.4112(2) 0.0265(4) Uani 1 1 d . .
N2 N 0.3545(3) 0.6691(3) 0.4099(2) 0.0298(5) Uani 1 1 d . .
N3 N 0.1725(3) 0.7776(3) 0.6824(2) 0.0316(5) Uani 1 1 d . .
C1 C -0.2426(3) 0.6067(3) 0.3579(2) 0.0212(5) Uani 1 1 d . .
C3 C 0.4674(3) 0.6412(3) 0.3585(2) 0.0213(5) Uani 1 1 d . .
C4 C -0.4531(3) 0.5534(3) 0.1409(2) 0.0200(4) Uani 1 1 d . .
C2 C -0.4059(3) 0.6044(3) 0.2870(2) 0.0204(5) Uani 1 1 d . .
C5 C -0.6152(3) 0.5531(3) 0.0675(2) 0.0224(5) Uani 1 1 d . .
H5 H -0.6938 0.5886 0.1117 0.027 Uiso 1 1 calc R U
C6 C -0.3389(3) 0.4990(3) 0.0695(2) 0.0235(5) Uani 1 1 d . .
H6 H -0.2300 0.4978 0.1153 0.028 Uiso 1 1 calc R U
C12 C 0.2063(3) 0.9818(3) 1.0887(2) 0.0237(5) Uani 1 1 d . .
C9 C 0.1949(3) 0.9130(3) 0.9481(2) 0.0248(5) Uani 1 1 d . .
C15 C 0.2286(4) 1.1102(3) 1.3541(3) 0.0300(5) Uani 1 1 d . .
H15 H 0.2356 1.1533 1.4422 0.036 Uiso 1 1 calc R U
C7 C 0.0648(5) 0.7051(3) 0.7725(3) 0.0431(7) Uani 1 1 d . .
H7 H -0.0208 0.6071 0.7459 0.052 Uiso 1 1 calc R U
C8 C 0.0727(5) 0.7671(3) 0.9039(3) 0.0440(8) Uani 1 1 d . .
H8 H -0.0052 0.7099 0.9630 0.053 Uiso 1 1 calc R U
C13 C 0.1060(6) 0.9004(4) 1.1839(4) 0.0698(14) Uani 1 1 d . .
H13 H 0.0281 0.7995 1.1596 0.084 Uiso 1 1 calc R U
C11 C 0.2897(5) 0.9187(5) 0.7249(4) 0.0639(12) Uani 1 1 d . .
H11 H 0.3674 0.9730 0.6642 0.077 Uiso 1 1 calc R U
C10 C 0.3032(5) 0.9891(4) 0.8529(4) 0.0629(12) Uani 1 1 d . .
H10 H 0.3860 1.0888 0.8754 0.075 Uiso 1 1 calc R U
C17 C 0.3183(6) 1.1296(3) 1.1296(3) 0.0563(10) Uani 1 1 d . .
H17 H 0.3880 1.1890 1.0676 0.068 Uiso 1 1 calc R U
C16 C 0.3302(7) 1.1928(4) 1.2611(3) 0.0641(12) Uani 1 1 d . .
H16 H 0.4088 1.2933 1.2863 0.077 Uiso 1 1 calc R U
C14 C 0.1173(6) 0.9640(4) 1.3155(4) 0.0653(12) Uani 1 1 d . .
H14 H 0.0474 0.9054 1.3778 0.078 Uiso 1 1 calc R U
loop_
_atom_site_aniso_label
_atom_site_aniso_U_11
_atom_site_aniso_U_22
_atom_site_aniso_U_33
_atom_site_aniso_U_23
_atom_site_aniso_U_13
_atom_site_aniso_U_12
Cu1 0.0243(2) 0.0596(3) 0.0238(2) -0.01628(18) -0.00334(15) 0.0217(2)
N1 0.0228(10) 0.0387(12) 0.0176(9) -0.0086(8) -0.0018(8) 0.0137(9)
N2 0.0240(10) 0.0484(13) 0.0179(10) -0.0070(9) -0.0021(8) 0.0172(10)
N3 0.0242(11) 0.0471(13) 0.0240(11) -0.0132(9) -0.0046(8) 0.0184(10)
C1 0.0233(12) 0.0247(11) 0.0141(10) -0.0038(8) 0.0032(9) 0.0080(9)
C3 0.0200(11) 0.0279(12) 0.0133(10) -0.0016(8) -0.0026(8) 0.0076(9)
C4 0.0186(11) 0.0239(11) 0.0142(10) -0.0009(8) 0.0020(8) 0.0048(9)
C2 0.0189(11) 0.0262(11) 0.0147(11) -0.0020(8) 0.0001(8) 0.0077(9)
C5 0.0174(11) 0.0303(12) 0.0192(11) -0.0023(9) 0.0034(9) 0.0093(9)
C6 0.0176(10) 0.0338(12) 0.0186(11) -0.0017(9) -0.0005(8) 0.0104(10)
C12 0.0217(11) 0.0279(12) 0.0224(12) -0.0047(9) -0.0030(9) 0.0128(10)
C9 0.0210(11) 0.0317(12) 0.0230(12) -0.0059(9) -0.0027(9) 0.0138(10)
C15 0.0379(14) 0.0324(13) 0.0205(12) -0.0049(10) 0.0001(10) 0.0161(12)
C7 0.062(2) 0.0308(14) 0.0270(14) -0.0095(11) 0.0031(13) 0.0091(14)
C8 0.069(2) 0.0279(14) 0.0248(14) -0.0046(11) 0.0079(13) 0.0065(14)
C13 0.081(3) 0.0417(18) 0.0434(19) -0.0241(15) 0.0324(19) -0.0280(18)
C11 0.053(2) 0.071(2) 0.0360(18) -0.0243(16) 0.0222(16) -0.0130(18)
C10 0.057(2) 0.056(2) 0.0396(18) -0.0258(16) 0.0201(16) -0.0191(17)
C17 0.101(3) 0.0255(14) 0.0256(15) -0.0015(11) 0.0180(16) 0.0026(16)
C16 0.114(3) 0.0242(14) 0.0312(16) -0.0076(12) 0.0167(19) -0.0006(18)
C14 0.079(3) 0.0478(19) 0.0358(17) -0.0142(14) 0.0295(18) -0.0167(18)
loop_
_atom_type_symbol
_atom_type_description
_atom_type_scat_dispersion_real
_atom_type_scat_dispersion_imag
_atom_type_scat_source
C C 0.0181 0.0091 'International Tables Vol C Tables 4.2.6.8 and 6.1.1.4'
H H 0.0000 0.0000 'International Tables Vol C Tables 4.2.6.8 and 6.1.1.4'
N N 0.0311 0.0180 'International Tables Vol C Tables 4.2.6.8 and 6.1.1.4'
Cu Cu -1.9646 0.5888 'International Tables Vol C Tables 4.2.6.8 and 6.1.1.4'
loop_
_geom_angle_atom_site_label_1
_geom_angle_atom_site_label_2
_geom_angle_atom_site_label_3
_geom_angle
_geom_angle_site_symmetry_1
_geom_angle_site_symmetry_3
N2 Cu1 N1 125.40(9) . .
N2 Cu1 N3 123.99(9) . .
N1 Cu1 N3 109.86(8) . .
C1 N1 Cu1 162.1(2) . .
C3 N2 Cu1 168.5(2) . .
C7 N3 C11 115.7(2) . .
C7 N3 Cu1 119.30(19) . .
C11 N3 Cu1 125.0(2) . .
N1 C1 C2 176.7(2) . .
N2 C3 C2 175.5(2) . 1_655
C5 C4 C6 117.1(2) . .
C5 C4 C2 121.8(2) . .
C6 C4 C2 121.1(2) . .
C1 C2 C3 119.0(2) . 1_455
C1 C2 C4 121.1(2) . .
C3 C2 C4 119.7(2) 1_455 .
C6 C5 C4 121.4(2) 2_465 .
C6 C5 H5 119.3 2_465 .
C4 C5 H5 119.3 . .
C5 C6 C4 121.5(2) 2_465 .
C5 C6 H6 119.3 2_465 .
C4 C6 H6 119.3 . .
C17 C12 C13 116.7(3) . .
C17 C12 C9 121.6(2) . .
C13 C12 C9 121.6(2) . .
C10 C9 C8 115.4(2) . .
C10 C9 C12 122.9(2) . .
C8 C9 C12 121.7(2) . .
C14 C15 C16 118.4(3) . .
C14 C15 H15 120.8 . .
C16 C15 H15 120.8 . .
N3 C7 C8 123.6(3) . .
N3 C7 H7 118.2 . .
C8 C7 H7 118.2 . .
C9 C8 C7 120.7(3) . .
C9 C8 H8 119.6 . .
C7 C8 H8 119.6 . .
C12 C13 C14 121.8(3) . .
C12 C13 H13 119.1 . .
C14 C13 H13 119.1 . .
N3 C11 C10 124.1(3) . .
N3 C11 H11 117.9 . .
C10 C11 H11 117.9 . .
C11 C10 C9 120.5(3) . .
C11 C10 H10 119.8 . .
C9 C10 H10 119.8 . .
C12 C17 C16 121.5(3) . .
C12 C17 H17 119.3 . .
C16 C17 H17 119.3 . .
C15 C16 C17 120.9(3) . .
C15 C16 H16 119.5 . .
C17 C16 H16 119.5 . .
C15 C14 C13 120.7(3) . .
C15 C14 H14 119.7 . .
C13 C14 H14 119.7 . .
loop_
_geom_bond_atom_site_label_1
_geom_bond_atom_site_label_2
_geom_bond_distance
_geom_bond_site_symmetry_2
Cu1 N2 1.890(2) .
Cu1 N1 1.935(2) .
Cu1 N3 2.000(2) .
N1 C1 1.160(3) .
N2 C3 1.158(3) .
N3 C7 1.324(4) .
N3 C11 1.332(4) .
C1 C2 1.390(3) .
C3 C2 1.396(3) 1_655
C4 C5 1.399(3) .
C4 C6 1.404(3) .
C4 C2 1.468(3) .
C2 C3 1.396(3) 1_455
C5 C6 1.385(3) 2_465
C5 H5 0.9300 .
C6 C5 1.385(3) 2_465
C6 H6 0.9300 .
C12 C17 1.367(4) .
C12 C13 1.367(4) .
C12 C9 1.484(3) .
C9 C10 1.377(4) .
C9 C8 1.380(4) .
C15 C14 1.350(4) .
C15 C16 1.360(4) .
C15 H15 0.9300 .
C7 C8 1.383(4) .
C7 H7 0.9300 .
C8 H8 0.9300 .
C13 C14 1.386(4) .
C13 H13 0.9300 .
C11 C10 1.375(4) .
C11 H11 0.9300 .
C10 H10 0.9300 .
C17 C16 1.382(4) .
C17 H17 0.9300 .
C16 H16 0.9300 .
C14 H14 0.9300 .
