#------------------------------------------------------------------------------
#$Date: 2015-06-04 06:32:09 +0300 (Thu, 04 Jun 2015) $
#$Revision: 137844 $
#$URL: svn://www.crystallography.net/cod/cif/4/51/31/4513154.cif $
#------------------------------------------------------------------------------
#
# This file is available in the Crystallography Open Database (COD),
# http://www.crystallography.net/
#
# All data on this site have been placed in the public domain by the
# contributors.
#
data_4513154
loop_
_publ_author_name
'Abrahams, Brendan F.'
'Elliott, Robert W.'
'Hudson, Timothy A.'
'Robson, Richard'
'Sutton, Ashley L.'
_publ_section_title
;
 New CuI2(TCNQ--II) and CuI2(F4TCNQ--II) Coordination Polymers
;
_journal_issue                   5
_journal_name_full               'Crystal Growth &amp; Design'
_journal_page_first              2437
_journal_paper_doi               10.1021/acs.cgd.5b00220
_journal_volume                  15
_journal_year                    2015
_chemical_formula_sum            'C37 H24 Cu2 N8 O'
_chemical_formula_weight         723.72
_chemical_name_common            '[Cu2(TCNQ)(phenanthroline)2].MeOH'
_space_group_crystal_system      triclinic
_space_group_IT_number           2
_space_group_name_Hall           '-P 1'
_space_group_name_H-M_alt        'P -1'
_symmetry_space_group_name_Hall  '-P 1'
_symmetry_space_group_name_H-M   'P -1'
_atom_sites_solution_hydrogens   geom
_audit_creation_method           SHELXL-2014/7
_cell_angle_alpha                74.646(9)
_cell_angle_beta                 83.290(8)
_cell_angle_gamma                73.618(9)
_cell_formula_units_Z            1
_cell_length_a                   7.4366(8)
_cell_length_b                   10.2836(11)
_cell_length_c                   12.2532(9)
_cell_measurement_reflns_used    3010
_cell_measurement_temperature    130(2)
_cell_measurement_theta_max      74.6609
_cell_measurement_theta_min      3.7417
_cell_volume                     866.03(16)
_computing_cell_refinement
;
CrysAlisPro, Agilent Technologies,
Version 1.171.36.20 (release 27-06-2012 CrysAlis171 .NET)
(compiled Jul 11 2012,15:38:31)
;
_computing_data_collection
;
CrysAlisPro, Agilent Technologies,
Version 1.171.36.20 (release 27-06-2012 CrysAlis171 .NET)
(compiled Jul 11 2012,15:38:31)
;
_computing_data_reduction
;
CrysAlisPro, Agilent Technologies,
Version 1.171.36.20 (release 27-06-2012 CrysAlis171 .NET)
(compiled Jul 11 2012,15:38:31)
;
_computing_structure_refinement  'SHELXL-2014/7 (Sheldrick, 2014)'
_computing_structure_solution    'SHELXS-97 (Sheldrick, 1997)'
_diffrn_ambient_temperature      130(2)
_diffrn_detector_area_resol_mean 10.2273
_diffrn_measured_fraction_theta_full 0.999
_diffrn_measured_fraction_theta_max 0.999
_diffrn_measurement_device_type  'SuperNova, Dual, Cu at zero, Atlas'
_diffrn_measurement_method       '\w scans'
_diffrn_radiation_monochromator  mirror
_diffrn_radiation_source         'SuperNova (Cu) X-ray Source'
_diffrn_radiation_type           CuK\a
_diffrn_radiation_wavelength     1.54184
_diffrn_reflns_av_unetI/netI     0.0413
_diffrn_reflns_laue_measured_fraction_full 0.999
_diffrn_reflns_laue_measured_fraction_max 0.999
_diffrn_reflns_limit_h_max       8
_diffrn_reflns_limit_h_min       -8
_diffrn_reflns_limit_k_max       12
_diffrn_reflns_limit_k_min       -11
_diffrn_reflns_limit_l_max       14
_diffrn_reflns_limit_l_min       -14
_diffrn_reflns_number            3108
_diffrn_reflns_point_group_measured_fraction_full 0.999
_diffrn_reflns_point_group_measured_fraction_max 0.999
_diffrn_reflns_theta_full        67.495
_diffrn_reflns_theta_max         67.495
_diffrn_reflns_theta_min         3.745
_exptl_absorpt_coefficient_mu    1.844
_exptl_absorpt_correction_T_max  0.895
_exptl_absorpt_correction_T_min  0.849
_exptl_absorpt_correction_type   gaussian
_exptl_absorpt_process_details
;
CrysAlisPro, Agilent Technologies,
Version 1.171.36.20 (release 27-06-2012 CrysAlis171 .NET)
(compiled Jul 11 2012,15:38:31)
Numerical absorption correction based on gaussian integration over
            a multifaceted crystal model
;
_exptl_crystal_colour            Red
_exptl_crystal_density_diffrn    1.388
_exptl_crystal_description       chunk
_exptl_crystal_F_000             368
_exptl_crystal_size_max          0.1325
_exptl_crystal_size_mid          0.1217
_exptl_crystal_size_min          0.0743
_refine_diff_density_max         1.504
_refine_diff_density_min         -0.642
_refine_diff_density_rms         0.155
_refine_ls_extinction_method     none
_refine_ls_goodness_of_fit_ref   1.116
_refine_ls_hydrogen_treatment    constr
_refine_ls_matrix_type           full
_refine_ls_number_parameters     224
_refine_ls_number_reflns         3108
_refine_ls_number_restraints     0
_refine_ls_restrained_S_all      1.116
_refine_ls_R_factor_all          0.0889
_refine_ls_R_factor_gt           0.0851
_refine_ls_shift/su_max          0.000
_refine_ls_shift/su_mean         0.000
_refine_ls_structure_factor_coef Fsqd
_refine_ls_weighting_details
'w=1/[\s^2^(Fo^2^)+(0.1393P)^2^+1.4202P] where P=(Fo^2^+2Fc^2^)/3'
_refine_ls_weighting_scheme      calc
_refine_ls_wR_factor_gt          0.2482
_refine_ls_wR_factor_ref         0.2520
_reflns_Friedel_coverage         0.000
_reflns_number_gt                2874
_reflns_number_total             3108
_reflns_threshold_expression     'I > 2\s(I)'
_cod_data_source_file            cg5b00220_si_002.cif
_cod_data_source_block           phenanthroline
_cod_database_code               4513154
_shelx_shelxl_version_number     2014/7
_shelx_space_group_comment
;
The symmetry employed for this shelxl refinement is uniquely defined
by the following loop, which should always be used as a source of
symmetry information in preference to the above space-group names.
They are only intended as comments.
;
_shelx_res_file
;

    shelx.res created by SHELXL-2014/7


TITL RWEB158F in P-1
CELL  1.54184   7.4366  10.2836  12.2532   74.646   83.290   73.618
ZERR     1.00   0.0008   0.0011   0.0009    0.009    0.008    0.009
LATT   1
SFAC  C    H    N    CU   O
UNIT  37   24   8    2    1
MERG   2
OMIT     0.00 135.00
conf c1 c3 c4 c5
conf c2 c3 c4 c6
FMAP   2
PLAN   20
ACTA
BOND
L.S.   24
TEMP  -143.00
list 4
omit   2   2   1
omit      2   6   5
omit      2   3   2
omit   -6   2   5
omit     0   1   0

WGHT    0.139300    1.420200
FVAR      14.11391
C18   1    0.231704    0.928805    0.380275    11.00000    0.05333    0.08170 =
         0.09802   -0.07083    0.03617   -0.04059
AFIX  43
H18   2    0.214473    0.903010    0.314060    11.00000   -1.20000
AFIX   0
C17   1    0.309267    0.829640    0.468965    11.00000    0.04751    0.05148 =
         0.11694   -0.05428    0.03896   -0.02397
AFIX  43
H17   2    0.348082    0.735059    0.463915    11.00000   -1.20000
AFIX   0
O1    5    0.192334    1.060324    1.016201    10.25000    0.10196
O4    5   -0.767590    1.168295    0.985667    10.25000    0.11831
C20   1    0.370112    0.999433    1.034027    10.25000    0.10939
C19   1    0.053398    1.031257    0.024718    10.25000    0.10229
MOLE    1
CU1   4    0.176171    1.259219    0.652356    11.00000    0.02494    0.04750 =
         0.06446   -0.03544    0.00543   -0.00809
N4    3    0.148409    1.246017    0.490790    11.00000    0.02196    0.03705 =
         0.04942   -0.02684    0.00617   -0.00554
N2    3   -0.656792    1.348543    0.695983    11.00000    0.02501    0.05715 =
         0.06301   -0.04247    0.01044   -0.00923
N1    3   -0.070802    1.308960    0.725646    11.00000    0.02292    0.05728 =
         0.06606   -0.04486    0.01107   -0.01247
N3    3    0.291059    1.043744    0.672016    11.00000    0.02512    0.04028 =
         0.06448   -0.02297    0.00319   -0.00594
C11   1    0.276860    1.004017    0.578153    11.00000    0.01618    0.03635 =
         0.07284   -0.02696    0.01337   -0.00701
C12   1    0.196903    1.111577    0.481990    11.00000    0.01752    0.04323 =
         0.06254   -0.03516    0.01365   -0.01053
C5    1   -0.316280    1.464497    0.959337    11.00000    0.01918    0.04052 =
         0.05471   -0.02752    0.00796   -0.00682
AFIX  43
H5    2   -0.189136    1.440446    0.932402    11.00000   -1.20000
AFIX   0
C4    1   -0.454434    1.441903    0.903818    11.00000    0.02546    0.03105 =
         0.05056   -0.02545    0.00518   -0.00732
C1    1   -0.223274    1.344603    0.760628    11.00000    0.03145    0.04641 =
         0.05336   -0.03260    0.00326   -0.01484
C3    1   -0.407719    1.384481    0.802492    11.00000    0.02175    0.04656 =
         0.05332   -0.03164    0.00683   -0.01058
C6    1   -0.639095    1.478856    0.947330    11.00000    0.02067    0.03933 =
         0.05323   -0.02729   -0.00018   -0.00552
AFIX  43
H6    2   -0.736500    1.464657    0.911805    11.00000   -1.20000
AFIX   0
C2    1   -0.546000    1.366151    0.743901    11.00000    0.02118    0.05069 =
         0.05922   -0.03959    0.01356   -0.00975
C10   1    0.335403    0.862564    0.571793    11.00000    0.02519    0.03729 =
         0.10365   -0.03810    0.02690   -0.01369
C13   1    0.172895    1.075637    0.382711    11.00000    0.03498    0.06612 =
         0.06390   -0.04571    0.01818   -0.02610
C7    1    0.367492    0.945473    0.761127    11.00000    0.03725    0.06221 =
         0.07729   -0.02023   -0.00286   -0.01429
AFIX  43
H7    2    0.379836    0.973788    0.827043    11.00000   -1.20000
AFIX   0
C14   1    0.091008    1.185100    0.291429    11.00000    0.04528    0.10045 =
         0.06169   -0.04980    0.01230   -0.03499
AFIX  43
H14   2    0.070374    1.164952    0.223314    11.00000   -1.20000
AFIX   0
C9    1    0.414040    0.762934    0.668828    11.00000    0.02422    0.03449 =
         0.12907   -0.01549    0.01886   -0.00365
AFIX  43
H9    2    0.455672    0.666980    0.667894    11.00000   -1.20000
AFIX   0
C16   1    0.071818    1.346331    0.402896    11.00000    0.02658    0.04906 =
         0.05998   -0.02404    0.00331   -0.00643
AFIX  43
H16   2    0.036057    1.440268    0.409581    11.00000   -1.20000
AFIX   0
C15   1    0.041536    1.320070    0.301345    11.00000    0.03806    0.08590 =
         0.05509   -0.02255    0.00064   -0.01985
AFIX  43
H15   2   -0.012476    1.394674    0.240260    11.00000   -1.20000
AFIX   0
C8    1    0.431058    0.802348    0.763640    11.00000    0.03613    0.05135 =
         0.10300   -0.00589   -0.00259   -0.00787
AFIX  43
H8    2    0.483998    0.735655    0.829320    11.00000   -1.20000
AFIX   0
HKLF    5

REM  RWEB158F in P-1
REM R1 =  0.0851 for    2874 Fo > 4sig(Fo)  and  0.0889 for all    3108 data
REM    224 parameters refined using      0 restraints

END

WGHT      0.1399      1.4080

REM Highest difference peak  1.504,  deepest hole -0.642,  1-sigma level  0.155
Q1    1   0.2086  1.2247  0.7377  11.00000  0.05    1.50
Q2    1   0.1634  1.2577  0.5701  11.00000  0.05    1.37
Q3    1   0.4990  0.9592  1.0188  11.00000  0.05    1.10
Q4    1   0.5000  1.0000  1.0000  10.50000  0.05    1.04
Q5    1  -0.6568  1.1168  1.0022  11.00000  0.05    1.04
Q6    1   0.2807  1.0318  1.0574  11.00000  0.05    0.79
Q7    1  -0.9031  1.1927  0.9991  11.00000  0.05    0.77
Q8    1  -0.0155  1.0817 -0.0062  11.00000  0.05    0.74
Q9    1   0.1271  0.9992  0.0509  11.00000  0.05    0.67
Q10   1   0.4272  0.7962  0.6981  11.00000  0.05    0.50
Q11   1  -0.3447  1.5175  0.9657  11.00000  0.05    0.49
Q12   1  -0.3101  1.4559  1.0222  11.00000  0.05    0.48
Q13   1  -0.3848  1.4742  0.8987  11.00000  0.05    0.40
Q14   1   0.3615  0.9355  0.7192  11.00000  0.05    0.40
Q15   1   0.1844  1.0993  0.4529  11.00000  0.05    0.39
Q16   1  -0.1764  1.3089  0.8160  11.00000  0.05    0.39
Q17   1  -0.4048  1.4086  0.9786  11.00000  0.05    0.38
Q18   1  -0.7100  1.3652  0.6877  11.00000  0.05    0.38
Q19   1   0.0609  1.3216  0.3765  11.00000  0.05    0.36
Q20   1   0.3813  0.7876  0.5953  11.00000  0.05    0.36
;
_shelx_res_checksum              58409
_shelx_hkl_file
;
   1   0   0    2724     742   1
   2   0   0  262527    3195   1
   3   0   0   30197    1349   1
   4   0   0   43416    1930   1
   5   0   0   30585    3309   1
   6   0   0   29026     851   1
   7   0   0     548     135   1
   8   0   0   45425    1314   1
  -8   1   0    5197     444   1
  -7   1   0   54680    1185   1
  -6   1   0    5664     300   1
  -5   1   0   63331    1140   1
  -4   1   0   25606    1874   1
  -3   1   0    9446     808   1
  -2   1   0  145243    2504   1
  -1   1   0  389468   10127   1
   1   1   0  101336    1390   1
   2   1   0 3996038   24831  -2
   2   1   0 3996038   24831   1
   3   1   0   12436    1451   1
   4   1   0  110431    3574   1
   5   1   0   66163    4975   1
   6   1   0    3208     232   1
   7   1   0   24084    2217   1
   8   1   0    1629     292   1
  -8   2   0   16481     686   1
  -7   2   0    2814     283   1
  -6   2   0    9290     453   1
  -5   2   0   18363     435   1
  -4   2   0    3909    1211   1
  -3   2   0  154542    4686   1
  -2   2   0   36074    1311   1
  -1   2   0  200341    1320   1
   0   2   0  140044    3062   1
   1   2   0  321105    5349   1
   2   2   0  255736    4811   1
   3   2   0  455517    5866   1
   4   2   0  318443   13752  -2
   4   2   0  318443   13752   1
   5   2   0   77692    5467   1
   6   2   0   11458     484   1
   7   2   0    2346     251   1
   8   2   0    8165     938   1
  -7   3   0   12791     523   1
  -6   3   0    7407     464   1
  -5   3   0   30763     507   1
  -4   3   0   93643    4737   1
  -3   3   0    1720     560   1
  -2   3   0   66700    2600   1
  -1   3   0   32869    1506   1
   0   3   0  104148    3313   1
   1   3   0  331758    6488   1
   2   3   0  130286    6661   1
   3   3   0    6336    1288   1
   4   3   0   29044    3113   1
   5   3   0   37518    3991   1
   6   3   0    1518     205  -2
   6   3   0    1518     205   1
   7   3   0    9779     480   1
   8   3   0    1590     197   1
  -7   4   0   28700    1493   1
  -6   4   0    2217     246   1
  -5   4   0    5255     247   1
  -4   4   0   17001     375   1
  -3   4   0   49722    2855   1
  -2   4   0  106359    3583   1
  -1   4   0  101179    1413   1
   0   4   0   86112    4165   1
   1   4   0    8899    1229   1
   2   4   0    7848     916   1
   3   4   0   84388    4798   1
   4   4   0    4123    1239   1
   5   4   0   17454    1025   1
   6   4   0   72438    2166   1
   7   4   0    4183     523   1
   8   4   0   27237    1152  -2
   8   4   0   27237    1152   1
  -6   5   0    2444     273   1
  -5   5   0   36392    1471   1
  -4   5   0   12617     446   1
  -3   5   0   17492     380   1
  -2   5   0  144258    7024   1
  -1   5   0   10154     982   1
   0   5   0    8336     430   1
   1   5   0  310424    7972   1
   2   5   0   53870    2571   1
   3   5   0  106755    5768   1
   4   5   0   58545    4856   1
   5   5   0   23600    1323   1
   6   5   0   27416    1273   1
   7   5   0     494     210   1
   8   5   0    8002     646   1
  -6   6   0   25258     842   1
  -5   6   0   12096     510   1
  -4   6   0   40404    1179   1
  -3   6   0   81178    1365   1
  -2   6   0    6561     260   1
  -1   6   0    8514    1701   1
   0   6   0   14118     699   1
   1   6   0    5879     429   1
   2   6   0   26803    1979   1
   3   6   0  220559    8906   1
   4   6   0   22049    3140   1
   5   6   0  124006    3900   1
   6   6   0     514     272   1
   7   6   0   18799    1087   1
   8   6   0   15159     867   1
  -5   7   0    1823     264   1
  -4   7   0   29503    1915   1
  -3   7   0    3526     251   1
  -2   7   0   47644    1332   1
  -1   7   0   16214     466   1
   0   7   0    1983     805   1
   1   7   0   73031    1633   1
   2   7   0   34741    1075   1
   3   7   0   10578     628   1
   4   7   0   50183    1521   1
   5   7   0   38856    1526   1
   6   7   0    7104     687   1
   7   7   0   56874    1825   1
   8   7   0     856     146   1
  -4   8   0    7613     956   1
  -3   8   0   22878     898   1
  -2   8   0    5976     312   1
  -1   8   0    2733     211   1
   0   8   0   16918     571   1
   1   8   0    2453     208   1
   2   8   0   30816    1401   1
   3   8   0    3118     262   1
   4   8   0     233     162   1
   5   8   0    6813    1032   1
   6   8   0   25532    1269   1
   7   8   0    2668     399   1
  -3   9   0     730     130   1
  -2   9   0   10260     416   1
  -1   9   0    8857     362   1
   0   9   0    1881     176   1
   1   9   0   15908     577   1
   2   9   0    3675     339   1
   3   9   0     213     134   1
   4   9   0   17608     776   1
   5   9   0      35     153   1
   6   9   0    2668     333   1
   7   9   0    5622     253   1
  -2  10   0     804     179   1
  -1  10   0     861     115   1
   0  10   0   21540     630   1
   1  10   0     620     132   1
   2  10   0    8139     394   1
   3  10   0    8075    1116   1
   4  10   0    1800     325   1
   5  10   0    4616     451   1
   6  10   0    5727    1103   1
   1 -11   0     496     115  -2
  -1  11   0     496     115   1
   0  11   0    1703     149   1
   1  11   0    1016     132   1
   2  11   0    2624     847   1
   3  11   0    1297     242   1
   4  11   0     428     190   1
   5  11   0    1757     253   1
  -4 -11   1    3788     360   1
  -3 -11   1    2342     172   1
  -2 -11   1    5310     252   1
  -3   9  -1    3720     304  -2
  -1 -11   1    3720     304   1
   0 -11   1     631     134   1
  -6 -10   1    5375     386   1
  -5 -10   1     778     213   1
  -4 -10   1    5328     328   1
  -3 -10   1    1219     174   1
  -2 -10   1    1180     230   1
  -1 -10   1    6786     708   1
   0 -10   1    7906     458   1
  -1  10  -1    1074     143  -2
   1 -10   1    1074     143   1
   2 -10   1     216      76   1
  -7  -9   1    4900     409   1
  -6  -9   1     641     186   1
  -5  -9   1    7038     475   1
  -4  -9   1    1155     247   1
  -3  -9   1     502     208   1
  -2  -9   1   29597    1098   1
  -1  -9   1    7805     410   1
   0  -9   1    9083     440   1
   1  -9   1   10101     464   1
   2  -9   1    5665     632   1
   1  11  -1    3277     297  -2
   3  -9   1    3277     297   1
  -7  -8   1   49530    1497   1
  -6  -8   1    3541     673   1
  -5  -8   1    2748     527   1
  -4  -8   1    2621     364   1
  -3  -8   1   21813     949   1
  -2  -8   1    5221     859   1
  -1  -8   1   38579    1268   1
   0  -8   1   30376     652   1
   1  -8   1    3489     242   1
   2  -8   1   16067     705   1
   3  -8   1   11548    1220   1
   4  -8   1    2761     792   1
  -8  -7   1   10434     633   1
  -7  -7   1    2465     397   1
  -6  -7   1    7959     715   1
  -5  -7   1   73016    2045   1
  -4  -7   1   20683     947   1
  -3  -7   1    1883     281   1
  -2  -7   1   44882    1233   1
  -1  -7   1   11074     516   1
   0  -7   1    3243     258   1
   1  -7   1   36656     709   1
   2  -7   1   63478    1096   1
   3  -7   1   39853    1245   1
   4  -7   1   15340    1569   1
   5  -7   1     786     126   1
  -8  -6   1     108     158   1
  -7  -6   1     165     204   1
  -6  -6   1   42755    1593   1
  -5  -6   1   21301     960   1
  -4  -6   1   22030     938   1
  -3  -6   1   51689    1200   1
  -2  -6   1    4285     361   1
  -1  -6   1   69262    2104   1
   0  -6   1   31547     975   1
   1  -6   1     178     421   1
   2  -6   1   28406     533   1
   3  -6   1   42588     708   1
   4  -6   1   10628     423   1
   5  -6   1   19778    2064   1
   6  -6   1     662     161   1
  -8  -5   1   11233     732   1
  -7  -5   1    7806     696   1
  -6  -5   1   27278    1248   1
  -5  -5   1   28270    1101   1
  -4  -5   1   26202    3257   1
  -3  -5   1    3867    1061   1
  -2  -5   1   54469    3618   1
  -1  -5   1   11516     487   1
   0  -5   1    9147     460   1
   1  -5   1   91054    4886   1
   2  -5   1    4285    1379   1
   3  -5   1    6719     266   1
   4  -5   1    7364     352   1
   5  -5   1   37049     869   1
   6  -5   1     862     143   1
  -8  -4   1    2265     362   1
  -7  -4   1   13748     882   1
  -6  -4   1     604     238   1
  -5  -4   1    7214    1074   1
  -4  -4   1   89701    5790   1
  -3  -4   1  124625    5908   1
  -2  -4   1     660     400   1
  -1  -4   1  172752    3180   1
   0  -4   1   72591    1089   1
   1  -4   1    6398     694   1
   2  -4   1   88480    5087   1
   3  -4   1   53157    4533   1
   4  -4   1   41252     776   1
   5  -4   1    2513     182   1
   6  -4   1     444     116   1
   7  -4   1    3719     900   1
  -8  -5  -1   11251     442  -2
  -8  -3   1   11251     442   1
  -7  -3   1   18422     639   1
  -6  -3   1   97245    1427   1
  -5  -3   1  188191    6318   1
  -4  -3   1    3326    1126   1
  -3  -3   1   13876    1901   1
  -2  -3   1  107539    4338   1
  -1  -3   1   35601    1421   1
   0  -3   1   36912     652   1
   1  -3   1  283101    2938   1
   2  -3   1    2627     461   1
   3  -3   1  135408   11688   1
   4  -3   1   32431     802   1
   5  -3   1    4971     214   1
   6  -3   1   12527    1049   1
   7  -3   1     522     146   1
  -8  -2   1    1647     187   1
  -7  -2   1    8531     454   1
  -6  -4  -1   53219    1391  -2
  -6  -2   1   53219    1391   1
  -5  -2   1     941     468   1
  -4  -2   1 1190067   19453   1
  -3  -2   1   84231    4424   1
  -2  -2   1  116637    4256   1
  -1  -2   1   95339    2998   1
   0  -2   1 1600493    7085   1
   1  -2   1   65413    1560   1
   2  -2   1   55393    4990   1
   3  -2   1   14209    1456   1
   4  -2   1   38209    4077   1
   5  -2   1   68155     827   1
   6  -2   1    8238     370   1
   7  -2   1   15056     616   1
   8  -2   1   14278     637   1
  -8  -1   1   16836     788   1
  -7  -1   1   20632     684   1
  -6  -1   1   24148     600   1
  -5  -1   1   94026    6185   1
  -4  -3  -1  225277    5735  -2
  -4  -1   1  225277    5735   1
  -3  -1   1   58614    3601   1
  -2  -1   1 2574511   23462   1
  -1  -1   1  154825    3535   1
   0  -1   1  748905    2490   1
   1  -1   1    6468     881   1
   2  -1   1   14750    1116   1
   3  -1   1   58157    1984   1
   4  -1   1   89128    3953   1
   5  -1   1    5981     283   1
   6  -1   1   56251    1201   1
   7  -1   1   13657     709   1
   8  -1   1    8460     574   1
  -8   0   1    2602     341   1
  -7   0   1   27153    1149   1
  -6   0   1    5468     382   1
  -5   0   1   38491    3818   1
  -4   0   1  118148    3881   1
  -3   0   1  152236    3068   1
  -2  -2  -1  876289    5785  -2
  -2   0   1  876289    5785   1
  -1   0   1  622771    9341   1
   0   0   1  363824    3378   1
   1   0   1   17158     678   1
   2   0   1     532     188   1
   3   0   1   27630    1322   1
   4   0   1   58262    4162   1
   5   0   1   99718    5669   1
   6   0   1   21095     876   1
   7   0   1   10498     696   1
   8   0   1   17544    1341   1
  -8   1   1   15825     722   1
  -7   1   1   17111     667   1
  -6   1   1    7303     343   1
  -5   1   1   29314     958   1
  -4   1   1   18502    1612   1
  -3   1   1  229974    4770   1
  -2   1   1  122069    3957   1
  -1   1   1    7344     752   1
   0  -1  -1    7691     610  -2
   0   1   1    7691     610   1
   1   1   1  706329   10863   1
   2   1   1   65774    1963   1
   3   1   1   56041    2277   1
   4   1   1   38578    2237   1
   5   1   1   15623    1603   1
   6   1   1   25244    1079   1
   7   1   1    1451     196   1
   8   1   1    1468     257   1
  -8   2   1    1297     208   1
  -7   2   1   29691     842   1
  -6   2   1   18769     591   1
  -5   2   1    9712     365   1
  -4   2   1  160421    4858   1
  -3   2   1    2817     575   1
  -2   2   1   11372    1222   1
  -1   2   1  591128    6689   1
   0   2   1   17984    1212   1
   1   2   1   32210    1765   1
   3   2   1   10024    1524   1
   4   2   1  136783    4112   1
   5   2   1   26272    3120   1
   6   2   1   23762     693   1
   7   2   1   24297     767   1
   8   2   1    4097     363   1
  -7   3   1    3354     279   1
  -6   3   1    2186     206   1
  -5   3   1   14801     396   1
  -4   3   1    2120     635   1
  -3   3   1   42988    2509   1
  -2   3   1  358338    8719   1
  -1   3   1  118344    1121   1
   0   3   1   80194    3162   1
   1   3   1  324843    6511   1
   2   3   1   30168    1355   1
   3   3   1   36459    1676   1
   4   1  -1  218708    8533  -2
   4   3   1  218708    8533   1
   5   3   1    4807    1443   1
   6   3   1  145694    5151   1
   7   3   1    3463     292   1
   8   3   1     864     157   1
  -7   4   1   15789     516   1
  -6   4   1   19255     671   1
  -5   4   1     340      99   1
  -4   4   1   37759     620   1
  -3   4   1   64089    3282   1
  -2   4   1   54353    3652   1
  -1   4   1  337679   16379   1
   0   4   1   32780    2356   1
   1   4   1  275139    6923   1
   2   4   1   52184    3333   1
   3   4   1   35224    3155   1
   4   4   1   36301    3645   1
   5   4   1   94507    6560   1
   6   2  -1   44004    2814  -2
   6   4   1   44004    2814   1
   7   4   1    3255     483   1
   8   4   1   12902     493   1
  -6   5   1   30277    1350   1
  -5   5   1    8259     358   1
  -4   5   1    3074     202   1
  -3   5   1   45925     680   1
  -2   5   1   53819    2931   1
  -1   5   1     710     176   1
   0   5   1   62442    1645   1
   1   5   1  487162   10475   1
   2   5   1    3321    1005   1
   3   5   1  226236    8475   1
   4   5   1    1283     791   1
   5   5   1   15084     815   1
   6   5   1    2304     407   1
   7   5   1   36236    1504   1
   8   3  -1   10471     557  -2
   8   5   1   10471     557   1
  -6   6   1   15508     688   1
  -5   6   1    3776     443   1
  -4   6   1   32699     900   1
  -3   6   1   20948     510   1
  -2   6   1   19064     733   1
  -1   6   1   39970    1204   1
   0   6   1    8598     849   1
   1   6   1   29574    2883   1
   2   6   1  361734   10520   1
   3   6   1   30324    3301   1
   4   6   1   50013    4683   1
   5   6   1   35813    1874   1
   6   6   1     269     226   1
   7   6   1    9657     797   1
   8   6   1     990     172   1
  -5   7   1   14857     724   1
  -4   7   1    3405     295   1
  -3   7   1   25765     810   1
  -2   7   1    8496     569   1
  -1   7   1     349      84   1
   0   7   1   25526    1009   1
   1   7   1   27276    1689   1
   2   7   1    7893    1663   1
   3   7   1       0     524   1
   4   7   1   54742    1613   1
   5   7   1    1978     380   1
   6   7   1   18536    1177   1
   7   7   1    6332     665   1
   8   7   1    1502     181   1
  -4   8   1   11221     655   1
  -3   8   1    4820     383   1
  -2   8   1    3225     230   1
  -1   8   1    8888     359   1
   0   8   1   10171     526   1
   1   8   1   28959     819   1
   2   8   1   57145    1681   1
   3   8   1    7314     580   1
   4   8   1   24711    1202   1
   5   8   1    1519     228   1
   6   8   1    1384     210   1
   7   8   1    9222     742   1
   8   8   1     308     123   1
  -3   9   1    5612     514   1
  -2   9   1   10090     473   1
  -1   9   1    2301     196   1
   0   9   1   24486     719   1
   1   9   1     620     110   1
   2   9   1    4156     338   1
   3   9   1   21375     737   1
   4   9   1    1252     308   1
   5   9   1    1610     307   1
   6   9   1    8735     590   1
   7   9   1    1018     207   1
  -2  10   1     354     202   1
  -1  10   1   12594     560   1
   0  10   1    1525     237   1
   1  10   1    1563     198   1
   2  10   1    4916     505   1
   3  10   1    2382     372   1
   4  10   1       6     168   1
   5  10   1    9149     635   1
   6  10   1     282      94   1
  -1  11   1     604     152   1
   0  11   1    1829     255   1
   1  11   1    4901     437   1
   2  11   1    5983     336   1
   3  11   1    5058     467   1
   4  11   1     746     211   1
   5  11   1     207     134   1
   2  12   1     955     165   1
   3  12   1     627      98   1
  -4 -11   2     239     130   1
  -5   7  -2    1335     129  -2
  -3 -11   2    1335     129   1
  -2 -11   2    3746     293   1
  -1 -11   2     305     127   1
  -5 -10   2    1438     502   1
  -4 -10   2    7030     346   1
  -3 -10   2    1195     173   1
  -2 -10   2    5678     754   1
  -3   8  -2    9591     583  -2
  -1 -10   2    9591     583   1
   0 -10   2     412     111   1
   1 -10   2    2818     439   1
   2 -10   2       0      90   1
  -6  -9   2     814     124   1
  -5  -9   2    5485     431   1
  -4  -9   2      29     136   1
  -3  -9   2   15131     793   1
  -2  -9   2   20807     938   1
  -1  -9   2    4512     633   1
   0  -9   2   11493     609   1
  -1   9  -2    1397     144  -2
   1  -9   2    1397     144   1
   2  -9   2     450     202   1
   3  -9   2    4642     378   1
  -7  -8   2     822     123   1
  -6  -8   2    5533    1095   1
  -5  -8   2    6191     513   1
  -4  -8   2   20288     943   1
  -3  -8   2     775     218   1
  -2  -8   2    3573     430   1
  -1  -8   2   57911    1592   1
   0  -8   2   15840     591   1
   1  -8   2    9967     444   1
   2  -8   2   14665     619   1
   1  10  -2    7220    1062  -2
   3  -8   2    7220    1062   1
   4  -8   2    2736     202   1
  -7  -7   2   10550     738   1
  -6  -7   2   26335    1234   1
  -5  -7   2    8981     710   1
  -3  -7   2   23880    1297   1
  -2  -7   2    3988     284   1
  -1  -7   2    5196    1067   1
   0  -7   2    1225     239   1
   1  -7   2   67551    1010   1
   2  -7   2     791     126   1
   3  -7   2   16839     853   1
   4  -7   2    2921     261   1
   3  11  -2     940     118  -2
   5  -7   2     940     118   1
  -8  -6   2    6487     518   1
  -7  -6   2    3378     463   1
  -6  -6   2     361     244   1
  -5  -6   2     262     124   1
  -4  -6   2   37891    1194   1
  -3  -6   2    4740     942   1
  -2  -6   2   27630     883   1
  -1  -6   2   88314    1657   1
   0  -6   2    1542     651   1
   1  -6   2     509     113   1
   2  -6   2    1421     179   1
   3  -6   2   37964     935   1
   4  -6   2   11770     511   1
   5  -6   2    5072     359   1
  -8  -5   2     461     191   1
  -7  -5   2    2039     375   1
  -6  -5   2   16579     975   1
  -5  -5   2   26053    1155   1
  -4  -5   2     321     324   1
  -3  -5   2   69144    4724   1
  -2  -5   2   19289     729   1
  -1  -5   2  141347    2650   1
   0  -5   2   21485    3057   1
   1  -5   2   50798    3805   1
   2  -5   2   37463    3667   1
   3  -5   2    2233     164   1
   4  -5   2    1348     207   1
   5  -5   2    6114     373   1
   6  -5   2    1998     189   1
  -8  -4   2   50531    1475   1
  -7  -4   2   24127    1168   1
  -6  -4   2    1961     356   1
  -5  -4   2   11096     612   1
  -4  -4   2   94624    4091   1
  -3  -4   2     895     580   1
  -2  -4   2   30334     685   1
  -1  -4   2     935     125   1
   0  -4   2   88437    1268   1
   1  -4   2  138258    3526   1
   2  -4   2   44654    3673   1
   3  -4   2    9884    1962   1
   4  -4   2   25969     645   1
   5  -4   2     343      97   1
   6  -4   2     140      94   1
   7  -4   2    1401     207   1
  -8  -3   2   44760    1353   1
  -7  -3   2    2368     243   1
  -6  -3   2  236192    2243   1
  -5  -3   2   27973    1835   1
  -4  -3   2   39297    2575   1
  -3  -3   2   21530    2391   1
  -2  -3   2    5933    1054   1
  -1  -3   2    4639     264   1
   0  -3   2  706085    2616   1
   1  -3   2   14573     908   1
   2  -3   2  114275    2658   1
   3  -3   2   39875    2637   1
   4  -3   2    3360     164   1
   5  -3   2   16212     437   1
   6  -3   2    4365     273   1
   7  -3   2    3555     276   1
  -8  -6  -2   10505     423  -2
  -8  -2   2   10505     423   1
  -7  -2   2   45246    1021   1
  -6  -2   2   87109    1387   1
  -5  -2   2   99351    6557   1
  -4  -2   2  518047    9102   1
  -3  -2   2    2084     520   1
  -2  -2   2     207     297   1
  -1  -2   2   97325    4221   1
   0  -2   2  387434    3834   1
   1  -2   2   66432    1777   1
   2  -2   2   72500    2330   1
   3  -2   2     410     243   1
   4  -2   2   99252    4806   1
   5  -2   2   30560     827   1
   6  -2   2    2549     186   1
   7  -2   2   15452     605   1
  -8  -1   2    7357     511   1
  -7  -1   2    6236     402   1
  -6  -5  -2   20755     682  -2
  -6  -1   2   20755     682   1
  -5  -1   2   14110    2441   1
  -4  -1   2  221418    8359   1
  -3  -1   2  280063    5545   1
  -2  -1   2  288607    3572   1
  -1  -1   2   27248     953   1
   0  -1   2  207662   10473   1
   1  -1   2  116012    2609   1
   2  -1   2   68172    1834   1
   3  -1   2   59891    3123   1
   4  -1   2   50209    4420   1
   5  -1   2   36525     596   1
   6  -1   2   35940     967   1
   7  -1   2    3366     320   1
   8  -1   2    5643     465   1
  -8   0   2   13809     682   1
  -7   0   2   32454    1245   1
  -6   0   2    3291     242   1
  -5   0   2   77932    2677   1
  -4  -4  -2   75017    3091  -2
  -4   0   2   75017    3091   1
  -3   0   2    5080     791   1
  -2   0   2  307343   13590   1
  -1   0   2  266261    7012   1
   0   0   2   33572     885   1
   1   0   2  146084   12600   1
   2   0   2   18703    1038   1
   3   0   2   29547    3949   1
   4   0   2   94151    5728   1
   5   0   2    1912     969   1
   6   0   2   20925     599   1
   7   0   2   12932     553   1
   8   0   2    1084     153   1
  -8   1   2    8356     509   1
  -7   1   2   22580    1024   1
  -6   1   2   31361     702   1
  -5   1   2    1504     148   1
  -4   1   2   55400    2821   1
  -3   1   2   64353    2600   1
  -2  -3  -2  148538    6916  -2
  -2   1   2  148538    6916   1
  -1   1   2    2249     317   1
   0   1   2   34032    3075   1
   1   1   2     886     321   1
   2   1   2  122297    4521   1
   3   1   2   14937    1188   1
   4   1   2    1536     464   1
   5   1   2   30232    2242   1
   6   1   2   51164    1165   1
   7   1   2   15256     605   1
   8   1   2     215     108   1
  -7   2   2    8090     431   1
  -6   2   2    3750     256   1
  -5   2   2   69528    2442   1
  -4   2   2   27534    1729   1
  -3   2   2    2135     551   1
  -2   2   2  141448    3534   1
  -1   2   2   37066     621   1
   0  -2  -2  391456    6331  -2
   0   2   2  391456    6331   1
   1   2   2  110803    3419   1
   2   2   2  143977    6356   1
   3   2   2   30314    2401   1
   4   2   2  137061    4235   1
   5   2   2   16115    1668   1
   6   2   2   74529    1265   1
   7   2   2     650     236   1
   8   2   2    1770     199   1
  -7   3   2    1497     191   1
  -6   3   2   36811     774   1
  -5   3   2    1109     149   1
  -4   3   2   36448     841   1
  -3   3   2  429240    8065   1
  -2   3   2    4338    1017   1
  -1   3   2  294674    2145   1
   0   3   2   18309    1633   1
   1   3   2    2094     666   1
   3   3   2  154582    5033   1
   4   3   2    1546     534   1
   5   3   2   99534    6347   1
   6   3   2     405     196   1
   7   3   2    7348     343   1
   8   3   2   15049     749   1
  -7   4   2   10129     388   1
  -6   4   2    1467     203   1
  -5   4   2    6210     327   1
  -4   4   2   14180     378   1
  -3   4   2    1029     659   1
  -2   4   2  321591    9355   1
  -1   4   2  227023    4988   1
   0   4   2   47094    2974   1
   1   4   2  275916    7240   1
   2   4   2   94132    4578   1
   3   4   2   49284    4048   1
   4   0  -2   67476    4877  -2
   4   4   2   67476    4877   1
   5   4   2    2604    1121   1
   6   4   2    8816     694   1
   7   4   2   10383     804   1
   8   4   2    2171     215   1
  -6   5   2    9237     410   1
  -5   5   2    9874     401   1
  -4   5   2   15156     501   1
  -3   5   2   93092    2572   1
  -2   5   2    1197     642   1
  -1   5   2    1332     232   1
   0   5   2  132665    5648   1
   1   5   2   31213    2786   1
   2   5   2  214968    7647   1
   3   5   2    3177    1046   1
   4   5   2    4448    1392   1
   5   5   2   38651    1318   1
   6   1  -2   18678    1026  -2
   6   5   2   18678    1026   1
   7   5   2    8471     774   1
   8   5   2    7402     394   1
  -6   6   2    3650     354   1
  -5   6   2    6333     564   1
  -4   6   2    2685     306   1
  -3   6   2   15216     490   1
  -2   6   2   53317     943   1
  -1   6   2    4340     567   1
   0   6   2    3765     371   1
   1   6   2   22352    2601   1
   2   6   2   51988    4149   1
   3   6   2     878     657   1
   4   6   2   40898    4327   1
   5   6   2    7689     458   1
   6   6   2    8366     780   1
   7   6   2   23576    1275   1
   8   2  -2    7422     396  -2
   8   6   2    7422     396   1
  -5   7   2    3799     382   1
  -4   7   2    5205     367   1
  -3   7   2   12161     628   1
  -2   7   2    1782     148   1
  -1   7   2    6975     309   1
   0   7   2   88948    3284   1
   1   7   2   24572     980   1
   2   7   2   57705    4698   1
   3   7   2   13314    1718   1
   4   7   2   23236    1098   1
   5   7   2    9327     488   1
   6   7   2     839     178   1
   7   7   2    6541     684   1
   8   7   2    1489     240   1
  -4   8   2    2710     346   1
  -3   8   2    8699     465   1
  -2   8   2    7821     338   1
  -1   8   2   13495     660   1
   0   8   2   15384     715   1
   1   8   2   14385     568   1
   2   8   2    3777     320   1
   3   8   2   14313    1675   1
   4   8   2    1750     227   1
   5   8   2      77     114   1
   6   8   2   13145     588   1
   7   8   2   15401     763   1
   8   8   2     450     134   1
  -4   9   2      85      94   1
  -3   9   2    9182     602   1
  -2   9   2     738     173   1
  -1   9   2   14236     575   1
   0   9   2    2220     229   1
   1   9   2     472     147   1
   2   9   2   20736     739   1
   3   9   2   14307     623   1
   4   9   2    3208     296   1
   5   9   2    7208     592   1
   6   9   2    5488     330   1
   7   9   2    7109     465   1
  -2  10   2    1741     281   1
  -1  10   2    4782     307   1
   0  10   2    7509     624   1
   1  10   2    4383     440   1
   2  10   2   11087     735   1
   3  10   2    4811     511   1
   4  10   2     987     266   1
   5  10   2     328     194   1
   6  10   2    8649     353   1
  -1  11   2    4820     380   1
   0  11   2    4636     415   1
   1  11   2    2205     334   1
   2  11   2   11805     663   1
   3  11   2     549     195   1
   4  11   2    3963     426   1
   5  11   2    1311     238   1
   1  12   2     626     143   1
   2  12   2     171     114   1
   3  12   2    5102     261   1
   4  12   2    7327     436   1
  -5 -10   3    6308     621   1
  -4 -10   3    7570     772   1
  -5   6  -3    1665     185  -2
  -3 -10   3    1665     185   1
  -2 -10   3    3177     939   1
  -1 -10   3    1388     233   1
   0 -10   3     822     128   1
   1 -10   3      81      70   1
  -6  -9   3    7085     394   1
  -5  -9   3       0     129   1
  -4  -9   3      13     141   1
  -3  -9   3   20538     910   1
  -2  -9   3    4727     474   1
  -3   7  -3   14242     783  -2
  -1  -9   3   14242     783   1
   0  -9   3     764     165   1
   1  -9   3      85      97   1
   2  -9   3    4417     277   1
  -7  -8   3     453      87   1
  -6  -8   3    5579     323   1
  -5  -8   3    6012     505   1
  -4  -8   3    1041     271   1
  -3  -8   3     970     249   1
  -2  -8   3    1008     282   1
  -1  -8   3   38816     898   1
   0  -8   3    1976    1309   1
  -1   8  -3   10478     503  -2
   1  -8   3   10478     503   1
   2  -8   3    1657     344   1
   3  -8   3     911     233   1
   4  -8   3    3192     297   1
  -7  -7   3     178     142   1
  -6  -7   3    2552     397   1
  -5  -7   3     177     176   1
  -4  -7   3   10622     524   1
  -3  -7   3   19645     689   1
  -2  -7   3    3479    1119   1
  -1  -7   3    5177     323   1
   0  -7   3    3113     279   1
   1  -7   3   23958    1186   1
   2  -7   3    6919     349   1
   1   9  -3   11389     435  -2
   3  -7   3   11389     435   1
   4  -7   3    5829     490   1
   5  -7   3    1281     186   1
  -7  -6   3    1323     291   1
  -6  -6   3    2220     375   1
  -5  -6   3   26957     821   1
  -4  -6   3    5632     362   1
  -3  -6   3   15693     827   1
  -2  -6   3   27979     742   1
  -1  -6   3   14528    2243   1
   0  -6   3    3906    1202   1
   1  -6   3     351     107   1
   2  -6   3     485     135   1
   3  -6   3    2311     220   1
   4  -6   3    5330     388   1
   3  10  -3    1286     134  -2
   5  -6   3    1286     134   1
  -8  -5   3     264     149   1
  -7  -5   3      77     163   1
  -6  -5   3    7424     671   1
  -5  -5   3    1502     318   1
  -4  -5   3   45688    1295   1
  -3  -5   3   29588    1732   1
  -2  -5   3   19957    3076   1
  -1  -5   3     152     578   1
   0  -5   3  136739    5841   1
   1  -5   3   19483    2282   1
   2  -5   3   30145     655   1
   3  -5   3   14609     561   1
   4  -5   3    2022     170   1
   5  -5   3    5395     302   1
   6  -5   3    1792     773   1
  -8  -4   3   66186    1598   1
  -7  -4   3    8973     707   1
  -6  -4   3    3398     461   1
  -5  -4   3   24790    1161   1
  -4  -4   3     907     358   1
  -3  -4   3   23353    1506   1
  -2  -4   3   41077    1707   1
  -1  -4   3   20805    1622   1
   0  -4   3  219693   24745   1
   1  -4   3   24014    1336   1
   2  -4   3    1723     552   1
   3  -4   3   32970     652   1
   4  -4   3    1930     143   1
   5  -4   3    2134     170   1
   6  -4   3     551     116   1
  -8  -3   3   37297    1187   1
  -7  -3   3   23366     694   1
  -6  -3   3   58234    1128   1
  -5  -3   3   25830    3364   1
  -4  -3   3   14451    1254   1
  -3  -3   3   28530    1558   1
  -2  -3   3   23265    1233   1
  -1  -3   3   54754    1553   1
   0  -3   3   79481    3275   1
   1  -3   3     601     243   1
   2  -3   3   74238    3079   1
   3  -3   3    4163     865   1
   4  -3   3    9828     420   1
   5  -3   3   29431     680   1
   6  -3   3     589     124   1
   7  -3   3    3692     348   1
  -8  -2   3    3371     231   1
  -7  -2   3   18656     648   1
  -6  -2   3   52069    1092   1
  -5  -2   3   35920    2686   1
  -4  -2   3   13888    1386   1
  -3  -2   3  116436    3023   1
  -2  -2   3    8484     971   1
  -1  -2   3    4041     317   1
   0  -2   3  170907    5130   1
   1  -2   3  102826    2737   1
   2  -2   3   63828    2161   1
   3  -2   3   22832    1982   1
   4  -2   3   39426    4361   1
   5  -2   3   19156     475   1
   6  -2   3    3525     367   1
   7  -2   3     884     162   1
  -8  -7  -3    1638     171  -2
  -8  -1   3    1638     171   1
  -7  -1   3   45269    1211   1
  -6  -1   3    1422     275   1
  -5  -1   3    1853     211   1
  -4  -1   3    4663    1307   1
  -3  -1   3    1362     393   1
  -2  -1   3    6651     625   1
  -1  -1   3   81103    2841   1
   0  -1   3   10843    1141   1
   1  -1   3  141225    3665   1
   2  -1   3   11852    1060   1
   3  -1   3    1421     965   1
   4  -1   3    2811    1210   1
   5  -1   3    8703     402   1
   6  -1   3   17978     578   1
   7  -1   3   25985     768   1
   8  -1   3     572     190   1
  -8   0   3   21122     797   1
  -7   0   3    2428     287   1
  -6  -6  -3    9746     500  -2
  -6   0   3    9746     500   1
  -5   0   3   18209     598   1
  -4   0   3   28596    3124   1
  -3   0   3    1292     314   1
  -2   0   3  179716    8620   1
  -1   0   3   97153    2872   1
   0   0   3  858653    5336   1
   1   0   3   56845    2677   1
   2   0   3     462     163   1
   3   0   3   32553    3531   1
   4   0   3    1428     805   1
   5   0   3    2805     344   1
   6   0   3   49466     893   1
   7   0   3    5103     370   1
   8   0   3    4925     297   1
  -8   1   3    3467     325   1
  -7   1   3   46792    1436   1
  -6   1   3   25200     626   1
  -5   1   3   21091     675   1
  -4  -5  -3   81169    5009  -2
  -4   1   3   81169    5009   1
  -3   1   3   55016    2469   1
  -2   1   3   25187    1245   1
  -1   1   3  354485   13313   1
   0   1   3    4281     461   1
   1   1   3  436098    7386   1
   2   1   3   41630    2795   1
   3   1   3   14147    1190   1
   4   1   3   70589    5152   1
   5   1   3   57878    5128   1
   6   1   3   57821    1678   1
   7   1   3     166     118   1
   8   1   3    1064     164   1
  -7   2   3    3276     382   1
  -6   2   3   41168     816   1
  -5   2   3   57850     797   1
  -4   2   3   19985    1912   1
  -3   2   3   90085    2810   1
  -2  -4  -3  112459    4948  -2
  -2   2   3  112459    4948   1
  -1   2   3    7137    1145   1
   0   2   3   16644    1434   1
   1   2   3  181616    4649   1
   2   2   3   49786    2048   1
   3   2   3  119664    5204   1
   4   2   3    1036     447   1
   5   2   3   40279    2666   1
   6   2   3   26319    1095   1
   7   2   3    5389     545   1
   8   2   3   12291     482   1
  -7   3   3   19989     598   1
  -6   3   3    3190     234   1
  -5   3   3    5784     308   1
  -4   3   3   85156    1314   1
  -3   3   3  166502    7577   1
  -2   3   3  185432    1791   1
  -1   3   3   43919    2994   1
   0  -3  -3   59352    3141  -2
   0   3   3   59352    3141   1
   1   3   3   46343    2750   1
   2   3   3  222420    6585   1
   3   3   3   40932    2889   1
   4   3   3   41078    4315   1
   5   3   3    4413     887   1
   6   3   3   10217     482   1
   7   3   3   14787     636   1
   8   3   3    3596     270   1
  -7   4   3     918     124   1
  -6   4   3   11810     413   1
  -5   4   3   20157     571   1
  -4   4   3     247      85   1
  -3   4   3   32688    2469   1
  -2   4   3  112016    3703   1
  -1   4   3    1596     201   1
   0   4   3    6539    1181   1
   1   4   3    1010     518   1
   2  -2  -3  122025    5314  -2
   2   4   3  122025    5314   1
   3   4   3   14966    1431   1
   4   4   3    4856     885   1
   5   4   3  148647    8005   1
   6   4   3   22746    3372   1
   7   4   3     347     139   1
   8   4   3    8156     477   1
  -6   5   3    3041     235   1
  -5   5   3    3015     228   1
  -4   5   3   28277     508   1
  -3   5   3    3233     206   1
  -2   5   3   28100    3135   1
  -1   5   3    1474     213   1
   0   5   3   63462    4107   1
   1   5   3   88350    4741   1
   2   5   3   75312    4655   1
   3   5   3     620     339   1
   4  -1  -3   83958    5903  -2
   4   5   3   83958    5903   1
   5   5   3    6819     596   1
   6   5   3    8419     777   1
   7   5   3   72652    1358   1
   8   5   3    1082     225   1
  -6   6   3    8509     507   1
  -5   6   3   10250     691   1
  -4   6   3    1012     151   1
  -3   6   3   53274    1606   1
  -2   6   3   11529     386   1
  -1   6   3     636     173   1
   0   6   3   55420    4283   1
   1   6   3    4672    1239   1
   2   6   3  103286    5944   1
   3   6   3   75203    5357   1
   4   6   3   17010    2787   1
   5   6   3   24836    1024   1
   6   0  -3    9923     866  -2
   6   6   3    9923     866   1
   7   6   3    8532     512   1
   8   6   3    7996     512   1
  -5   7   3    4728     425   1
  -4   7   3    2541     381   1
  -3   7   3    1738     161   1
  -2   7   3    8847     442   1
  -1   7   3   42709     978   1
   0   7   3    2880     443   1
   1   7   3   14345    2305   1
   2   7   3   31161    3573   1
   3   7   3    1298     384   1
   4   7   3   37841    1257   1
   5   7   3    3855     471   1
   6   7   3    4305     610   1
   7   7   3   29629     887   1
   8   1  -3    1635     243  -2
   8   7   3    1635     243   1
  -4   8   3    1786     295   1
  -3   8   3   20792     742   1
  -2   8   3     766     164   1
  -1   8   3    2783     258   1
   0   8   3   10265     448   1
   1   8   3    3614     388   1
   2   8   3   44126    1625   1
   3   8   3   31956    1121   1
   4   8   3     345     774   1
   5   8   3    7174     587   1
   6   8   3   15345     564   1
   7   8   3     988     234   1
   8   8   3    6856     430   1
  -3   9   3   10316     659   1
  -2   9   3    8290     437   1
  -1   9   3    6577     389   1
   0   9   3    7098     450   1
   1   9   3   14620     660   1
   2   9   3    1345     216   1
   3   9   3    8612     665   1
   4   9   3    2390     372   1
   5   9   3    1234     182   1
   6   9   3    4228     291   1
   7   9   3    7257     477   1
  -2  10   3   12660     960   1
  -1  10   3   11868     739   1
   0  10   3   37391    1366   1
   1  10   3    5637     506   1
   2  10   3   26216    1138   1
   3  10   3    9505     709   1
   4  10   3      58     154   1
   5  10   3    6408     542   1
   6  10   3    8649     364   1
   7  10   3    4603     312   1
  -1  11   3    1054     201   1
   0  11   3     998     240   1
   1  11   3   10257     671   1
   2  11   3    3413     378   1
   3  11   3   15907     828   1
   4  11   3   11518     686   1
   5  11   3    1659     264   1
   6  11   3   10759     502   1
   1  12   3     134     106   1
   2  12   3     577     106   1
   3  12   3   13572     438   1
   4  12   3    1106     196   1
  -4 -10   4     855     149   1
  -3 -10   4    1411     161   1
  -2 -10   4     197     129   1
  -1 -10   4     482     158   1
   0 -10   4    1660     218   1
  -5  -9   4    1209     210   1
  -4  -9   4     454     181   1
  -5   5  -4   15200     768  -2
  -3  -9   4   15200     768   1
  -2  -9   4     402     228   1
  -1  -9   4    8362     579   1
   0  -9   4    2029     223   1
   1  -9   4     852     146   1
   2  -9   4     679     118   1
  -6  -8   4    2186     260   1
  -5  -8   4    1977     299   1
  -4  -8   4    2788     365   1
  -3  -8   4    1527     316   1
  -2  -8   4     897     294   1
  -3   6  -4    6201     430  -2
  -1  -8   4    6201     430   1
   0  -8   4    3295     491   1
   1  -8   4     427     146   1
   2  -8   4    1852     220   1
   3  -8   4    3759     372   1
  -7  -7   4    2599     193   1
  -6  -7   4       8     106   1
  -5  -7   4    3182     409   1
  -4  -7   4   16167     645   1
  -3  -7   4     276     301   1
  -2  -7   4   23169    1039   1
  -1  -7   4   27690     775   1
   0  -7   4    5999     384   1
  -1   7  -4    8186     462  -2
   1  -7   4    8186     462   1
   2  -7   4    5819     316   1
   3  -7   4    4940     287   1
   4  -7   4    2767     321   1
  -7  -6   4      40     128   1
  -6  -6   4    7027     602   1
  -5  -6   4   10462     516   1
  -4  -6   4    8542     697   1
  -3  -6   4   10179     682   1
  -2  -6   4    3134     400   1
  -1  -6   4    7059     437   1
   0  -6   4   42743     748   1
   1  -6   4    9056     371   1
   2  -6   4    4171     486   1
   1   8  -4    8242     376  -2
   3  -6   4    8242     376   1
   4  -6   4     531     163   1
   5  -6   4    2287     205   1
  -7  -5   4    9163     654   1
  -6  -5   4     561     245   1
  -5  -5   4   18531     681   1
  -4  -5   4   21156    1091   1
  -3  -5   4    2359     317   1
  -2  -5   4   21154    2768   1
  -1  -5   4    6491    1439   1
   0  -5   4   11566    1843   1
   1  -5   4   24696     681   1
   2  -5   4     470     125   1
   3  -5   4    6199     331   1
   4  -5   4    2746     224   1
   3   9  -4   13304     515  -2
   5  -5   4   13304     515   1
   6  -5   4    2066     247   1
  -8  -4   4    6201     459   1
  -7  -4   4    4144     471   1
  -6  -4   4    3121     447   1
  -5  -4   4      74     132   1
  -4  -4   4    8738     535   1
  -3  -4   4   42709    2047   1
  -2  -4   4   20986    1595   1
  -1  -4   4       0     652   1
   0  -4   4   66772    4104   1
   1  -4   4    3148     861   1
   2  -4   4   15811    2443   1
   3  -4   4    9238     380   1
   4  -4   4    4209     237   1
   5  -4   4   12658     535   1
   6  -4   4     548     139   1
  -8  -3   4    8524     536   1
  -7  -3   4   24051    1104   1
  -6  -3   4      78      97   1
  -5  -3   4   25634     946   1
  -4  -3   4   35850    2447   1
  -3  -3   4   30672    1667   1
  -2  -3   4     436     222   1
  -1  -3   4    9197    1485   1
   0  -3   4    9124     962   1
   1  -3   4   60918    2665   1
   2  -3   4    8377    1624   1
   3  -3   4   27758    3651   1
   4  -3   4   22501     852   1
   5  -3   4    3564     446   1
   6  -3   4     469     117   1
   7  -3   4    4808     260   1
  -8  -2   4     608     110   1
  -7  -2   4    6215     407   1
  -6  -2   4     411     168   1
  -5  -2   4    3378     371   1
  -4  -2   4  107151    8473   1
  -3  -2   4    4589     793   1
  -2  -2   4   41955    2050   1
  -1  -2   4   33266    2416   1
   0  -2   4    3622     572   1
   1  -2   4    5439    2173   1
   2  -2   4    2969     616   1
   3  -2   4    8183    1930   1
   4  -2   4    5874     376   1
   5  -2   4   13144     397   1
   6  -2   4   28631     658   1
   7  -2   4   14528    1879   1
  -8  -1   4    8738     335   1
  -7  -1   4    3517     332   1
  -6  -1   4    1535     283   1
  -5  -1   4   23777     953   1
  -4  -1   4    4246    1335   1
  -3  -1   4   31331    1879   1
  -2  -1   4  127746    3562   1
  -1  -1   4   55824    1588   1
   0  -1   4   87899    6417   1
   1  -1   4  153004    3711   1
   2  -1   4   63512    2686   1
   3  -1   4    5165    1323   1
   4  -1   4    9157    2130   1
   5  -1   4    6355     390   1
   6  -1   4   59753    2698   1
   7  -1   4     190     127   1
   8  -1   4    1603     254   1
  -8  -8  -4    3747     343  -2
  -8   0   4    3747     343   1
  -7   0   4    8714     422   1
  -6   0   4   30003    1199   1
  -5   0   4    2744     411   1
  -4   0   4   50307    4372   1
  -3   0   4   85476    4230   1
  -2   0   4   30112    1603   1
  -1   0   4  162100    3189   1
   0   0   4   43821    2094   1
   1   0   4   39221    4111   1
   2   0   4   40178    2075   1
   3   0   4   30118    3110   1
   4   0   4   63606    5173   1
   5   0   4   49851    1040   1
   6   0   4     742     138   1
   7   0   4     123      96   1
   8   0   4    6728     521   1
  -7   1   4   38262    1280   1
  -6  -7  -4   43492     836  -2
  -6   1   4   43492     836   1
  -5   1   4    8062     419   1
  -4   1   4    1318     646   1
  -3   1   4    3573     652   1
  -2   1   4  124495    4598   1
  -1   1   4    1215     320   1
   0   1   4  125277    3127   1
   1   1   4   27775    1126   1
   2   1   4   44871    3181   1
   3   1   4  116020    6155   1
   4   1   4   53672    4497   1
   5   1   4    4824    1708   1
   6   1   4   33483    1319   1
   7   1   4    6257     319   1
   8   1   4     525     131   1
  -7   2   4    2148     202   1
  -6   2   4   39398     890   1
  -5   2   4   22973     594   1
  -4  -6  -4   96580    5146  -2
  -4   2   4   96580    5146   1
  -3   2   4   88521    5419   1
  -2   2   4   38615    3025   1
  -1   2   4  157116    7438   1
   0   2   4    2400     651   1
   1   2   4  336467    6677   1
   2   2   4  262066    8550   1
   3   2   4    3324    1075   1
   4   2   4   14476    1471   1
   5   2   4   91654    6185   1
   6   2   4    3266     425   1
   7   2   4    3263     466   1
   8   2   4    3600     271   1
  -7   3   4    1351     226   1
  -6   3   4     267     104   1
  -5   3   4    1090     130   1
  -4   3   4   18174     488   1
  -3   3   4   26097    3127   1
  -2  -5  -4  179786    4968  -2
  -2   3   4  179786    4968   1
  -1   3   4   27860    2504   1
   0   3   4     361     449   1
   1   3   4  150374    5173   1
   2   3   4     738     526   1
   3   3   4  168360    4649   1
   4   3   4   91904    3790   1
   5   3   4   24853    2159   1
   6   3   4   33765    1115   1
   7   3   4   18968    1519   1
   8   3   4    1718     296   1
  -7   4   4    5924     367   1
  -6   4   4   18361     500   1
  -5   4   4    1109     122   1
  -4   4   4    3418     223   1
  -3   4   4   12996    2286   1
  -2   4   4   41702    1351   1
  -1   4   4   19759     671   1
   0  -4  -4   89208    4583  -2
   0   4   4   89208    4583   1
   1   4   4   84764    4347   1
   2   4   4  212105    7264   1
   3   4   4  109261    3885   1
   4   4   4   90775    3820   1
   5   4   4  140140    2536   1
   6   4   4     165     218   1
   7   4   4    7860     998   1
  -6   5   4    5119     314   1
  -5   5   4   21219     481   1
  -4   5   4    1265     137   1
  -3   5   4   54943    1938   1
  -2   5   4   16591    2516   1
  -1   5   4    1472     478   1
   0   5   4  149309    6533   1
   1   5   4   14655    2018   1
   2  -3  -4  188273    7484  -2
   2   5   4  188273    7484   1
   3   5   4   76595    3418   1
   4   5   4    5857    1551   1
   5   5   4     257     232   1
   6   5   4   27474     881   1
   7   5   4   53933    4858   1
   8   5   4      32     122   1
  -6   6   4    1553     215   1
  -5   6   4     867     164   1
  -4   6   4    2319     209   1
  -3   6   4   16143     440   1
  -2   6   4   22015     548   1
  -1   6   4   53830    1354   1
   0   6   4   16370    2434   1
   1   6   4   15798    2322   1
   2   6   4  182463    8060   1
   3   6   4   21063    2909   1
   4  -2  -4   82753    4924  -2
   4   6   4   82753    4924   1
   5   6   4   10880     838   1
   6   6   4    2951     320   1
   7   6   4    7570     574   1
   8   6   4   22180     838   1
  -5   7   4    9699     572   1
  -4   7   4    3581     240   1
  -3   7   4   46021     896   1
  -2   7   4    3993     252   1
  -1   7   4    1660     165   1
   0   7   4   19789     919   1
   1   7   4   36591    3875   1
   2   7   4   12764    2341   1
   3   7   4   68032    1577   1
   4   7   4    2183     219   1
   5   7   4    5028     314   1
   6  -1  -4   43374    1103  -2
   6   7   4   43374    1103   1
   7   7   4    4316     458   1
   8   7   4    1945     263   1
  -4   8   4   44108    1276   1
  -3   8   4   18960    1305   1
  -2   8   4    2146     242   1
  -1   8   4   33710     977   1
   0   8   4   13644     545   1
   1   8   4   26788    1047   1
   2   8   4   20692     930   1
   3   8   4    1845     827   1
   4   8   4   12699     519   1
   5   8   4    3470     283   1
   6   8   4    2400     244   1
   7   8   4   23007     934   1
   8   0  -4    4555     357  -2
   8   8   4    4555     357   1
  -3   9   4     181     101   1
  -2   9   4   59629    1684   1
  -1   9   4    8965     695   1
   0   9   4   44214    2240   1
   1   9   4    7272     443   1
   2   9   4   11726     574   1
   3   9   4   34208    1324   1
   4   9   4    5516     495   1
   5   9   4    2921     257   1
   6   9   4   66344    1503   1
   7   9   4    2853     318   1
  -2  10   4    7615     389   1
  -1  10   4   26785    1105   1
   0  10   4    5080     528   1
   1  10   4   20503     938   1
   2  10   4    8265     643   1
   3  10   4    1427     317   1
   4  10   4    3489     438   1
   5  10   4   12107     470   1
   6  10   4    1690     174   1
   7  10   4   10195     468   1
  -1  11   4     944     199   1
   0  11   4    5146     456   1
   1  11   4   13008    1076   1
   2  11   4     464     174   1
   3  11   4   37580    1264   1
   4  11   4    6160     508   1
   5  11   4    4365     394   1
   6  11   4    3616     295   1
   1  12   4    5226     388   1
   2  12   4    5999     376   1
   3  12   4    1130     144   1
   4  12   4    1557     224   1
  -2 -10   5      42      95   1
  -1 -10   5    4579     322   1
  -7   3  -5    1953     216  -2
  -5  -9   5    1953     216   1
  -4  -9   5    1632     243   1
  -3  -9   5     868     260   1
  -2  -9   5    4790     429   1
  -1  -9   5    4347     412   1
   0  -9   5       0      96   1
   1  -9   5    1428     158   1
  -6  -8   5     921     165   1
  -5  -8   5    2681     328   1
  -4  -8   5   17925     860   1
  -5   4  -5    3675     417  -2
  -3  -8   5    3675     417   1
  -2  -8   5    4379     465   1
  -1  -8   5     441     161   1
   0  -8   5    5557     455   1
   1  -8   5    2444     241   1
   2  -8   5    2301     219   1
   3  -8   5     134     118   1
  -6  -7   5    1521     175   1
  -5  -7   5    4600     458   1
  -4  -7   5     214     150   1
  -3  -7   5   14644    1469   1
  -2  -7   5    4343     525   1
  -3   5  -5    9488     644  -2
  -1  -7   5    9488     644   1
   0  -7   5   12065     543   1
   1  -7   5    5591     380   1
   2  -7   5    1862     195   1
   3  -7   5    3309     263   1
   4  -7   5     363     147   1
  -7  -6   5    2392     293   1
  -6  -6   5    4675     479   1
  -5  -6   5    1105     194   1
  -4  -6   5    6833     652   1
  -3  -6   5    6270     546   1
  -2  -6   5    7387     423   1
  -1  -6   5   11746     413   1
   0  -6   5    1641     607   1
  -1   6  -5    2346     207  -2
   1  -6   5    2346     207   1
   2  -6   5    9939     408   1
   3  -6   5     778     142   1
   4  -6   5    3799     297   1
   5  -6   5    4411     315   1
  -7  -5   5    1071     240   1
  -6  -5   5     312     121   1
  -5  -5   5    2584     278   1
  -4  -5   5   15459     597   1
  -3  -5   5   24666    1029   1
  -2  -5   5    5405     337   1
  -1  -5   5    1887     172   1
   0  -5   5   28827     828   1
   1  -5   5   10398     325   1
   2  -5   5    5053     333   1
   1   7  -5   10570     419  -2
   3  -5   5   10570     419   1
   4  -5   5    4857     437   1
   5  -5   5    6982     595   1
  -7  -4   5   16983     887   1
  -6  -4   5    3562     475   1
  -5  -4   5    6830     440   1
  -4  -4   5   10875    1165   1
  -3  -4   5    2620     342   1
  -2  -4   5   11270    1969   1
  -1  -4   5   17575    2382   1
   0  -4   5     107     308   1
   1  -4   5   41294    3497   1
   2  -4   5   18583     622   1
   3  -4   5    4195     263   1
   4  -4   5   11861     428   1
   3   8  -5    2562     249  -2
   5  -4   5    2562     249   1
   6  -4   5    4645     402   1
  -7  -3   5    4749     477   1
  -6  -3   5    9217     739   1
  -5  -3   5    4848     468   1
  -4  -3   5    7360     618   1
  -3  -3   5   15575    1540   1
  -2  -3   5    1507     439   1
  -1  -3   5    1223     639   1
   0  -3   5   22319    2422   1
   1  -3   5   29815    2964   1
   2  -3   5   21391    2045   1
   3  -3   5   18283     422   1
   4  -3   5     668     140   1
   5  -3   5    2016     203   1
   6  -3   5   27034     772   1
   5   9  -5     873     171  -2
   7  -3   5     873     171   1
  -7  -2   5   12480     495   1
  -6  -2   5   15271     807   1
  -5  -2   5   32200    2805   1
  -4  -2   5   26633     886   1
  -3  -2   5     926     394   1
  -2  -2   5   23655    1697   1
  -1  -2   5   62487    3813   1
   0  -2   5  146205    8337   1
   1  -2   5   79064    9598   1
   2  -2   5    4208     852   1
   3  -2   5    2293    1071   1
   4  -2   5   35724     991   1
   5  -2   5   17123     685   1
   6  -2   5    9285     879   1
   7  -2   5     859     143   1
  -7  -1   5     289     111   1
  -6  -1   5   42128    1386   1
  -5  -1   5    7848     525   1
  -4  -1   5   11984    2274   1
  -3  -1   5   36245    2182   1
  -2  -1   5   43453    2196   1
  -1  -1   5   26711    1505   1
   0  -1   5  140239    4008   1
   1  -1   5     185     302   1
   2  -1   5   18043    1607   1
   3  -1   5   49416    4502   1
   4  -1   5    1279     182   1
   5  -1   5   24807     744   1
   6  -1   5   23097     671   1
   7  -1   5     185     109   1
  -7   0   5   15934     552   1
  -6   0   5     401     204   1
  -5   0   5    3258    1301   1
  -4   0   5    6884    1681   1
  -3   0   5    3835     680   1
  -2   0   5   87225    3938   1
  -1   0   5   94451    2667   1
   0   0   5   10284     671   1
   1   0   5  207468    4712   1
   2   0   5  168590    4701   1
   3   0   5   18260    2593   1
   4   0   5   23734    3286   1
   5   0   5   13987     635   1
   6   0   5    5703     330   1
   7   0   5   12107     864   1
   8   0   5     841     208   1
  -7   1   5    1994     197   1
  -6   1   5   31357     846   1
  -5   1   5    4118     465   1
  -4   1   5   26714    1052   1
  -3   1   5   86643    5120   1
  -2   1   5   26461    1565   1
  -1   1   5  241470    4555   1
   0   1   5    4530     803   1
   1   1   5     702     255   1
   2   1   5   58164    3928   1
   3   1   5   34293    3528   1
   4   1   5   10990    2199   1
   5   1   5   44690    1774   1
   6   1   5    8345     469   1
   7   1   5     375     118   1
   8   1   5    7987     880   1
  -7   2   5     990     387   1
  -5   2   5    7503     426   1
  -4   2   5   12417     733   1
  -3   2   5    3094    1075   1
  -2   2   5  199370    7257   1
  -1   2   5   22573    1622   1
   0   2   5     754     296   1
   1   2   5  382233    7544   1
   2   2   5  153802    5670   1
   3   2   5     482     527   1
   4   2   5  100732    6339   1
   5   2   5    6342    1510   1
   6   2   5   23270    1104   1
   7   2   5   12729     654   1
   8   2   5     255     108   1
  -7   3   5    6420     429   1
  -6   3   5   13664     438   1
  -5   3   5    2891     222   1
  -4  -7  -5   25017    1475  -2
  -4   3   5   25017    1475   1
  -3   3   5  143391    7489   1
  -2   3   5    7931    1655   1
  -1   3   5   30847    2741   1
   0   3   5  113909    4868   1
   1   3   5    4686    1021   1
   2   3   5  198652    9426   1
   3   3   5  345699    6978   1
   4   3   5     316     312   1
   5   3   5   34403    1149   1
   6   3   5    6143     377   1
   7   3   5     819     261   1
   8   3   5    6582     808   1
  -6   4   5    2421     181   1
  -5   4   5   22787     517   1
  -4   4   5    6842     320   1
  -3   4   5   18226     918   1
  -2  -6  -5  185741    8062  -2
  -2   4   5  185741    8062   1
  -1   4   5   54096    4041   1
   0   4   5   70829    4272   1
   1   4   5   35659    2980   1
   2   4   5   38062    3215   1
   3   4   5   19977    1776   1
   4   4   5   90941    4608   1
   5   4   5   12044     509   1
   6   4   5    2831     380   1
   7   4   5   24546     986   1
   8   4   5    4719     411   1
  -6   5   5    5363     229   1
  -5   5   5    7210     278   1
  -4   5   5     429      92   1
  -3   5   5  105568    1524   1
  -2   5   5    2288    1001   1
  -1   5   5   51664    4583   1
   0  -5  -5  149059    6813  -2
   0   5   5  149059    6813   1
   1   5   5    8001    1598   1
   2   5   5  239023    8744   1
   3   5   5   71273    4850   1
   4   5   5     742     616   1
   5   5   5    2622     288   1
   6   5   5   28221    1132   1
   7   5   5     246     194   1
   8   5   5   11125     572   1
  -5   6   5   10792     369   1
  -4   6   5   38733     800   1
  -3   6   5   69723    1089   1
  -2   6   5    6954     528   1
  -1   6   5   32895    1073   1
   0   6   5    1094     729   1
   1   6   5   72583    5683   1
   3   6   5   57992    3481   1
   4   6   5   35711     801   1
   5   6   5     385     934   1
   6   6   5    1661     297   1
   7   6   5   18399     891   1
   8   6   5     990     203   1
  -5   7   5     605     171   1
  -4   7   5   33970     700   1
  -3   7   5    1164     159   1
  -2   7   5    7325     547   1
  -1   7   5   37551    1226   1
   0   7   5   52847    2491   1
   1   7   5    3814    1281   1
   2   7   5  123652    2129   1
   3   7   5   25477    1060   1
   4  -3  -5   24922     849  -2
   4   7   5   24922     849   1
   5   7   5   10926     492   1
   6   7   5   26438    1097   1
   7   7   5    8567     605   1
   8   7   5    6157     433   1
  -4   8   5   11544     425   1
  -3   8   5    2612     209   1
  -2   8   5   57825    1162   1
  -1   8   5   11629     549   1
   0   8   5   22565    1034   1
   1   8   5   34576    2296   1
   2   8   5     449     796   1
   3   8   5   59820    1757   1
   4   8   5   73887    2791   1
   5   8   5     340     134   1
   6  -2  -5   58411    4834  -2
   6   8   5   58411    4834   1
   7   8   5    5794     492   1
   8   8   5     129     123   1
  -3   9   5   21312     616   1
  -2   9   5    1476     206   1
  -1   9   5   36203    1362   1
   0   9   5   21043     584   1
   1   9   5    1374     210   1
   2   9   5   11135     761   1
   3   9   5   20066    1025   1
   4   9   5    2795     263   1
   5   9   5   57985    1329   1
   6   9   5   30180     970   1
   7   9   5    7513     499   1
  -2  10   5    6659     348   1
  -1  10   5   17358     875   1
   0  10   5    3393     435   1
   1  10   5   24170    1262   1
   2  10   5    3837     457   1
   3  10   5   46105    1523   1
   4  10   5    8513     649   1
   5  10   5     912     156   1
   6  10   5     500     120   1
  -1  11   5   10548     412   1
   0  11   5    7866     561   1
   1  11   5     685     137   1
   2  11   5   12180     699   1
   3  11   5     472     200   1
   4  11   5    2141     313   1
   5  11   5   19472     796   1
   6  11   5       0      95   1
   1  12   5    6377     419   1
   2  12   5     255      88   1
   3  12   5     147      96   1
   4  12   5   26184     828   1
  -3  -9   6    1834     235   1
  -2  -9   6       0     126   1
  -1  -9   6     582     166   1
   0  -9   6    2233     387   1
  -7   2  -6    9018     483  -2
  -5  -8   6    9018     483   1
  -4  -8   6    1578     254   1
  -3  -8   6     589     215   1
  -2  -8   6    2697     358   1
  -1  -8   6    1134     249   1
   0  -8   6    2015     216   1
   1  -8   6     881     146   1
   2  -8   6     354      96   1
  -6  -7   6     434     141   1
  -5  -7   6     302     180   1
  -4  -7   6    2069     810   1
  -5   3  -6   20613     712  -2
  -3  -7   6   20613     712   1
  -2  -7   6    6587     574   1
  -1  -7   6     853     179   1
   0  -7   6    4761     341   1
   1  -7   6     526     151   1
   2  -7   6    2913     252   1
   3  -7   6    1322     158   1
  -6  -6   6    1235     176   1
  -5  -6   6    4072     316   1
  -4  -6   6    5551     391   1
  -3  -6   6   10443     529   1
  -2  -6   6    5270     355   1
  -3   4  -6    2958     245  -2
  -1  -6   6    2958     245   1
   0  -6   6   10549     518   1
   1  -6   6    5907     317   1
   2  -6   6    1741     185   1
   3  -6   6    4848     266   1
   4  -6   6    2919     235   1
  -7  -5   6    5507     434   1
  -6  -5   6      40     100   1
  -5  -5   6     277     130   1
  -4  -5   6    3128     450   1
  -3  -5   6    5390     552   1
  -2  -5   6     145     120   1
  -1  -5   6    7280     327   1
   0  -5   6   11742     402   1
  -1   5  -6    2986     252  -2
   1  -5   6    2986     252   1
   2  -5   6   13275     451   1
   3  -5   6    1925     189   1
   4  -5   6    1139     227   1
   5  -5   6    1024     151   1
  -7  -4   6     728     198   1
  -6  -4   6       3     115   1
  -5  -4   6    9083     492   1
  -4  -4   6    4667     517   1
  -3  -4   6    7259     575   1
  -2  -4   6    5140     463   1
  -1  -4   6    8596     409   1
   0  -4   6   31964    1074   1
   1  -4   6   41108     765   1
   2  -4   6     768     124   1
   1   6  -6    5852     317  -2
   3  -4   6    5852     317   1
   4  -4   6    8097     453   1
   5  -4   6    2303     222   1
   6  -4   6    6578     425   1
  -7  -3   6    7652     554   1
  -6  -3   6   19636    1140   1
  -5  -3   6    1235     276   1
  -4  -3   6   42425    1284   1
  -3  -3   6    3816     307   1
  -2  -3   6   15370    2251   1
  -1  -3   6   33190    3235   1
   0  -3   6    2855     958   1
   1  -3   6   13888    2264   1
   2  -3   6   17721     778   1
   3  -3   6   11480     472   1
   4  -3   6    4437     297   1
   3   7  -6   17503    1789  -2
   5  -3   6   17503    1789   1
   6  -3   6    4630     416   1
  -7  -2   6    5554     307   1
  -6  -2   6    6860     540   1
  -5  -2   6    7159     561   1
  -4  -2   6     861     173   1
  -3  -2   6   10714    1798   1
  -2  -2   6   92506    5134   1
  -1  -2   6    4824    1096   1
   0  -2   6   62918    2802   1
   1  -2   6   41846    2480   1
   2  -2   6   14901    1639   1
   3  -2   6   36069     796   1
   4  -2   6   10421     408   1
   5  -2   6     639     193   1
   6  -2   6    6165     757   1
   5   8  -6    5095     372  -2
   7  -2   6    5095     372   1
  -7  -1   6   16466     638   1
  -6  -1   6   10421     682   1
  -5  -1   6    1443     298   1
  -4  -1   6   31763    1487   1
  -3  -1   6   14453    1362   1
  -2  -1   6    1328     623   1
  -1  -1   6  137333    3821   1
   0  -1   6     655     354   1
   1  -1   6   44522    4366   1
   2  -1   6   60904    4691   1
   3  -1   6    1584     861   1
   4  -1   6    2121     246   1
   5  -1   6   36491    1093   1
   6  -1   6    1050     167   1
   7  -1   6    2692     354   1
  -7   0   6     176      94   1
  -6   0   6   17700     915   1
  -5   0   6   24982     988   1
  -4   0   6     937     784   1
  -3   0   6   79026    4807   1
  -2   0   6  142461    7689   1
  -1   0   6   12844    1193   1
   0   0   6   21820    2615   1
   1   0   6   36633    2197   1
   2   0   6    1885     627   1
   3   0   6   10543    2144   1
   4   0   6   21878     664   1
   5   0   6    5710     398   1
   6   0   6   34157     772   1
   7   0   6    8217     349   1
  -7   1   6   12374     427   1
  -6   1   6   12483     772   1
  -5   1   6    1088     244   1
  -4   1   6   20238     861   1
  -3   1   6  104042    5831   1
  -2   1   6   68294    2777   1
  -1   1   6  239721    4877   1
   0   1   6   85641    4335   1
   1   1   6   75196    3664   1
   2   1   6  124269    6275   1
   3   1   6   18453    2705   1
   4   1   6   42306    4500   1
   5   1   6   33776     864   1
   6   1   6     543     164   1
   7   1   6    9210     993   1
   8   1   6    4652     308   1
  -7   2   6    1711     162   1
  -6   2   6   28077     784   1
  -5   2   6   33483    1917   1
  -4   2   6    2872     595   1
  -3   2   6   54791    4495   1
  -2   2   6   89612    5085   1
  -1   2   6   91480    4250   1
   0   2   6  135600    4881   1
   1   2   6  127926    4596   1
   2   2   6    1718     516   1
   3   2   6   32220    3474   1
   4   2   6   21707    3151   1
   5   2   6   28063    1797   1
   6   2   6   19689     696   1
   7   2   6   22283     878   1
   8   2   6     901     159   1
  -6  -9  -6    4593     339  -2
  -6   3   6    4593     339   1
  -5   3   6    6922     614   1
  -4   3   6   17529     930   1
  -3   3   6   36431    1588   1
  -2   3   6  123510    6385   1
  -1   3   6   46536    3541   1
   0   3   6   20398    2213   1
   1   3   6   52564    3401   1
   2   3   6  212105    9886   1
   3   3   6   48265    2729   1
   4   3   6   22571    1993   1
   5   3   6   13096     528   1
   6   3   6     160     125   1
   7   3   6   18029    2026   1
   8   3   6   16096    1244   1
  -6   4   6    8291     381   1
  -5   4   6   43428    3066   1
  -4  -8  -6   81883    2173  -2
  -4   4   6   81883    2173   1
  -3   4   6  186913    2950   1
  -2   4   6   14695    2405   1
  -1   4   6    3671    1107   1
   0   4   6   55125    3974   1
   1   4   6   12737    1870   1
   2   4   6    5023    1252   1
   3   4   6   39660    2609   1
   4   4   6   11692    1519   1
   5   4   6   12282    2291   1
   6   4   6   11755     753   1
   7   4   6    8891     428   1
   8   4   6    5168    2033   1
  -6   5   6    3287     297   1
  -5   5   6    4349     211   1
  -4   5   6   65228    1405   1
  -3   5   6   65954    1199   1
  -2  -7  -6   69100   11904  -2
  -2   5   6   69100   11904   1
  -1   5   6   58319    5765   1
   0   5   6   13138    2106   1
   1   5   6   48662    4003   1
   2   5   6   71064    4942   1
   3   5   6     537     367   1
   4   5   6    8867    1600   1
   5   5   6    1191     397   1
   6   5   6    1218     281   1
   7   5   6   27171    1059   1
   8   5   6    8837     576   1
  -5   6   6   18454     553   1
  -4   6   6    5038     287   1
  -3   6   6    3721     256   1
  -2   6   6   40772    1385   1
  -1   6   6   14234    4221   1
   0  -6  -6  373079   12244  -2
   0   6   6  373079   12244   1
   1   6   6   45935    4589   1
   2   6   6   82810    5776   1
   3   6   6   92578    5983   1
   4   6   6    6114     358   1
   5   6   6     398    1845   1
   6   6   6   29399    1163   1
   7   6   6     269     189   1
   8   6   6    6159     418   1
  -5   7   6   10938     469   1
  -4   7   6   22862     553   1
  -3   7   6    3080     237   1
  -2   7   6   36658     908   1
  -1   7   6   47917    1238   1
   0   7   6    9570     810   1
   1   7   6   88319    2962   1
   2  -5  -6  107728    2063  -2
   2   7   6  107728    2063   1
   3   7   6   37494    2681   1
   4   7   6   32630     837   1
   5   7   6   19415     648   1
   6   7   6    2973     384   1
   7   7   6    6861     538   1
   8   7   6    3061     304   1
  -4   8   6     663     116   1
  -3   8   6   11525     406   1
  -2   8   6    6511     330   1
  -1   8   6    6092     443   1
   0   8   6   31300     710   1
   1   8   6   14664     809   1
   2   8   6    4993     485   1
   3   8   6  188179    3902   1
   4  -4  -6   91867    1432  -2
   4   8   6   91867    1432   1
   5   8   6   12343     533   1
   6   8   6   19918     927   1
   7   8   6     331     174   1
  -3   9   6    8375     367   1
  -2   9   6    6530     392   1
  -1   9   6   25373    1096   1
   0   9   6     829     147   1
   1   9   6   31489     913   1
   2   9   6   11831     807   1
   3   9   6   10881     766   1
   4   9   6    3959     318   1
   5   9   6   62642    1142   1
   6  -3  -6    4406     567  -2
   6   9   6    4406     567   1
   7   9   6   10093     557   1
  -2  10   6    2724     221   1
  -1  10   6    2973     364   1
   0  10   6   21119     991   1
   1  10   6    2808     271   1
   2  10   6   14814     858   1
   3  10   6    2438     369   1
   4  10   6   13748     810   1
   5  10   6     766     147   1
   6  10   6       0      80   1
  -1  11   6   10703     389   1
   0  11   6     912     209   1
   1  11   6    7690     368   1
   2  11   6    1432     191   1
   3  11   6     718     208   1
   4  11   6   42496    1253   1
   5  11   6    2140     271   1
   2  12   6    1113     126   1
   3  12   6   11097     384   1
  -4  -8   7       0     134   1
  -3  -8   7    2608     301   1
  -2  -8   7    1437     245   1
  -1  -8   7     257      95   1
   0  -8   7    1735     172   1
   1  -8   7    1282     142   1
  -7   1  -7    2831     304  -2
  -5  -7   7    2831     304   1
  -4  -7   7    7463     521   1
  -3  -7   7     246     197   1
  -2  -7   7    1321     307   1
  -1  -7   7     885     164   1
   0  -7   7     560     140   1
   1  -7   7    2008     212   1
   2  -7   7    1602     173   1
   3  -7   7      87      99   1
  -6  -6   7       0     108   1
  -5  -6   7    1947     217   1
  -4  -6   7    2018     652   1
  -5   2  -7   13895     960  -2
  -3  -6   7   13895     960   1
  -2  -6   7    2429     209   1
  -1  -6   7     760     151   1
   0  -6   7    7497     420   1
   1  -6   7    7746     416   1
   2  -6   7    1363     155   1
   3  -6   7    1295     134   1
   4  -6   7     204     109   1
  -6  -5   7      49     143   1
  -5  -5   7    2790     269   1
  -4  -5   7    6305     585   1
  -3  -5   7     141     185   1
  -2  -5   7    5516     305   1
  -3   3  -7   16615     507  -2
  -1  -5   7   16615     507   1
   0  -5   7     481     122   1
   1  -5   7   11357     522   1
   2  -5   7    3073     221   1
   3  -5   7    1224     149   1
   4  -5   7    2411     225   1
   5  -5   7     507     163   1
  -6  -4   7   18479     591   1
  -5  -4   7     344     140   1
  -4  -4   7   19322     999   1
  -3  -4   7    7904     659   1
  -2  -4   7    7139     388   1
  -1  -4   7     499     123   1
   0  -4   7   20296     453   1
  -1   4  -7    2582     201  -2
   1  -4   7    2582     201   1
   2  -4   7     416      98   1
   3  -4   7    5808     294   1
   4  -4   7     930     171   1
   5  -4   7     348     103   1
  -7  -3   7    6015     449   1
  -6  -3   7     183     114   1
  -5  -3   7    5990     546   1
  -4  -3   7   16045     881   1
  -3  -3   7     139     196   1
  -2  -3   7   12770     435   1
  -1  -3   7   33239     654   1
   0  -3   7     669     270   1
   1  -3   7   32595    1111   1
   2  -3   7   19010     523   1
   1   5  -7   11871     666  -2
   3  -3   7   11871     666   1
   4  -3   7    1627     226   1
   5  -3   7    1605     319   1
   6  -3   7      59     129   1
  -7  -2   7    5756     435   1
  -6  -2   7   16698     535   1
  -5  -2   7    2511     354   1
  -4  -2   7    8105     456   1
  -3  -2   7   21885     954   1
  -2  -2   7   20518     621   1
  -1  -2   7   30883    3214   1
   0  -2   7    4585    1260   1
   1  -2   7    1118     720   1
   2  -2   7   12279     768   1
   3  -2   7   12278     438   1
   4  -2   7    1392     213   1
   3   6  -7   12207     799  -2
   5  -2   7   12207     799   1
   6  -2   7    5214     472   1
  -7  -1   7    9409     370   1
  -6  -1   7     101     111   1
  -5  -1   7   31207    1156   1
  -4  -1   7    6404     398   1
  -3  -1   7     463     116   1
  -2  -1   7   57365    4149   1
  -1  -1   7   11763    1923   1
   0  -1   7     164     410   1
   1  -1   7   41020    2633   1
   2  -1   7   17571    1828   1
   3  -1   7     126      86   1
   4  -1   7   30730     721   1
   5  -1   7    9901     431   1
   6  -1   7    8349     667   1
   5   7  -7    2709     290  -2
   7  -1   7    2709     290   1
  -7   0   7    3501     231   1
  -6   0   7   30718    1153   1
  -5   0   7   34188    1191   1
  -4   0   7   12698     529   1
  -3   0   7  100987    2683   1
  -2   0   7    4850     897   1
  -1   0   7    7553    1545   1
   0   0   7   43445    2510   1
   1   0   7   11252    1376   1
   2   0   7   79669    6647   1
   3   0   7   35883    4061   1
   4   0   7    1200     174   1
   5   0   7   27807     855   1
   6   0   7    5240     391   1
   7   0   7     731     207   1
  -7   1   7    6597     285   1
  -6   1   7    8324     620   1
  -5   1   7   13719     753   1
  -4   1   7    4920    1560   1
  -3   1   7   30084     827   1
  -2   1   7  106959    3743   1
  -1   1   7   43106    2226   1
   0   1   7   17750    1619   1
   1   1   7    6058     998   1
   2   1   7   16629    2483   1
   3   1   7   11484    2330   1
   4   1   7   48448    1628   1
   5   1   7   11162     529   1
   6   1   7     528     165   1
   7   1   7   13386     663   1
  -6   2   7   19706     626   1
  -5   2   7    1814     214   1
  -4   2   7       0     171   1
  -3   2   7   87009   10869   1
  -2   2   7     382     459   1
  -1   2   7    1335     444   1
   0   2   7   34198    2040   1
   1   2   7     336     259   1
   2   2   7   81417    5498   1
   3   2   7   85317    6026   1
   4   2   7    3077     271   1
   5   2   7   22304     585   1
   6   2   7    4994     364   1
   7   2   7    8095     427   1
   8   2   7    2070     519   1
  -6   3   7    1307     170   1
  -5   3   7   21248    1396   1
  -4   3   7   86028    2249   1
  -3   3   7  103100    6831   1
  -2   3   7   39816    3777   1
  -1   3   7    2277     861   1
   0   3   7    4561    1131   1
   1   3   7   18233    2109   1
   2   3   7     580     332   1
   3   3   7   24119    3156   1
   4   3   7   42415    1067   1
   5   3   7      70     123   1
   6   3   7    3176     298   1
   7   3   7    5367     472   1
   8   3   7    1837     181   1
  -6 -10  -7   15056     469  -2
  -6   4   7   15056     469   1
  -5   4   7    4197     249   1
  -4   4   7   57806    1459   1
  -3   4   7     144     392   1
  -2   4   7     345     487   1
  -1   4   7   49454    4199   1
   0   4   7   84202    5197   1
   1   4   7       0     403   1
   2   4   7   49313    2919   1
   3   4   7   35274    2555   1
   4   4   7    9747     638   1
   5   4   7    9380    1361   1
   6   4   7   23255    1045   1
   7   4   7    7386    1316   1
   8   4   7    8100    1746   1
  -5   5   7   22516     639   1
  -4  -9  -7   27226     808  -2
  -4   5   7   27226     808   1
  -3   5   7   11952     855   1
  -2   5   7  159728    4484   1
  -1   5   7    4306    1372   1
   0   5   7   36021    3664   1
   1   5   7   51071    4274   1
   2   5   7    2755    1078   1
   3   5   7   39893    3178   1
   4   5   7    9700     638   1
   5   5   7    2593     382   1
   6   5   7   28140    1157   1
   7   5   7    8315     589   1
   8   5   7     468     103   1
  -5   6   7    1553     256   1
  -4   6   7   22761     748   1
  -3   6   7   15048     951   1
  -2  -8  -7    1589     349  -2
  -2   6   7    1589     349   1
  -1   6   7  162828   24377   1
   0   6   7  174383    7520   1
   1   6   7   10390    1361   1
   2   6   7   25202    3528   1
   3   6   7   24438    1059   1
   4   6   7    2701     327   1
   5   6   7   10171     700   1
   6   6   7    2205     350   1
   7   6   7    4095     435   1
   8   6   7   14812    1146   1
  -4   7   7    3002     189   1
  -3   7   7    5017     275   1
  -2   7   7   12990     563   1
  -1   7   7   19237     777   1
   0  -7  -7    1819     239  -2
   0   7   7    1819     239   1
   1   7   7  201435    2960   1
   2   7   7   72820    6756   1
   3   7   7  115140    2482   1
   4   7   7    9979     488   1
   5   7   7     136     153   1
   6   7   7   13980     830   1
   7   7   7    6331     512   1
  -4   8   7    8188     473   1
  -3   8   7    7372     303   1
  -2   8   7    2210     191   1
  -1   8   7   42605    1323   1
   0   8   7    9770     591   1
   1   8   7    8463     701   1
   2  -6  -7    2001     343  -2
   2   8   7    2001     343   1
   3   8   7    6932     442   1
   4   8   7   24222     764   1
   5   8   7   18196     631   1
   6   8   7     369     200   1
   7   8   7    9493     580   1
  -3   9   7     941     130   1
  -2   9   7    9549     434   1
  -1   9   7    3262     381   1
   0   9   7   27911     775   1
   1   9   7   22821     644   1
   2   9   7    7107     621   1
   3   9   7   11221     776   1
   4  -5  -7   28266     791  -2
   4   9   7   28266     791   1
   5   9   7    1886     228   1
   6   9   7    4316     260   1
   7   9   7     216     137   1
  -2  10   7     984     122   1
  -1  10   7   23650     726   1
   0  10   7     657     173   1
   1  10   7     924     158   1
   2  10   7    8649     646   1
   3  10   7    6576     573   1
   4  10   7   23573    1016   1
   5  10   7    1092     174   1
   6  -4  -7    9002     814  -2
   6  10   7    9002     814   1
   0  11   7    3591     245   1
   1  11   7   14626     473   1
   2  11   7     369     103   1
   3  11   7    5840     478   1
   4  11   7    4488     405   1
   5  11   7     106     108   1
  -2  -8   8       0     116   1
  -1  -8   8      29      55   1
   0  -8   8     348      77   1
  -4  -7   8     705     170   1
  -3  -7   8    1315     230   1
  -2  -7   8    1485     251   1
  -1  -7   8    1124     154   1
   0  -7   8    1126     157   1
   1  -7   8    1483     159   1
   2  -7   8      11      67   1
  -7   0  -8    2112     422  -2
  -5  -6   8    2112     422   1
  -4  -6   8    7775    1099   1
  -3  -6   8    2582     256   1
  -2  -6   8      82      86   1
  -1  -6   8     664     142   1
   0  -6   8    2264     225   1
   1  -6   8     382     125   1
   2  -6   8     409     123   1
   3  -6   8     290     134   1
  -6  -5   8    2515     257   1
  -5  -5   8    1858     209   1
  -4  -5   8     453     140   1
  -5   1  -8    4214     516  -2
  -3  -5   8    4214     516   1
  -2  -5   8    7400     348   1
  -1  -5   8    2582     205   1
   0  -5   8    1417     280   1
   1  -5   8    2406     236   1
   2  -5   8    2575     240   1
   3  -5   8    2886     246   1
   4  -5   8     134      75   1
  -6  -4   8    5980     298   1
  -5  -4   8      57      94   1
  -4  -4   8    6236     925   1
  -3  -4   8    3472     311   1
  -2  -4   8    1010     492   1
  -3   2  -8   26527     628  -2
  -1  -4   8   26527     628   1
   0  -4   8     375      94   1
   1  -4   8    4362     267   1
   2  -4   8    1475     158   1
   3  -4   8      99     105   1
   4  -4   8      58      97   1
   5  -4   8    1212     233   1
  -6  -3   8    1833     201   1
  -5  -3   8    5073     487   1
  -4  -3   8     150     161   1
  -3  -3   8    2793     309   1
  -2  -3   8   17165     669   1
  -1  -3   8     270      83   1
   0  -3   8    4184     310   1
  -1   3  -8   21354    1574  -2
   1  -3   8   21354    1574   1
   2  -3   8     374     131   1
   3  -3   8    1494     168   1
   4  -3   8      60     109   1
   5  -3   8       0     143   1
  -6  -2   8    5048     262   1
  -5  -2   8       0     172   1
  -4  -2   8    5555     388   1
  -3  -2   8    2414     269   1
  -2  -2   8   10145     524   1
  -1  -2   8   14607     444   1
   0  -2   8   10727     465   1
   1  -2   8   12067     687   1
   2  -2   8   27064     589   1
   1   4  -8   16656     603  -2
   3  -2   8   16656     603   1
   4  -2   8    6717     781   1
   5  -2   8    3263     416   1
   6  -2   8    2319     299   1
  -6  -1   8   14440     477   1
  -5  -1   8   26213    1043   1
  -4  -1   8    1235     213   1
  -3  -1   8    5858     392   1
  -2  -1   8   28427     615   1
  -1  -1   8    2388     880   1
   0  -1   8   45732    4142   1
   1  -1   8    9104     548   1
   2  -1   8     165     260   1
   3  -1   8    8365     641   1
   4  -1   8    9920     523   1
   3   5  -8    3861     494  -2
   5  -1   8    3861     494   1
   6  -1   8    8978     603   1
  -6   0   8    2971     225   1
  -5   0   8     875     245   1
  -4   0   8     203     308   1
  -3   0   8   26763     783   1
  -2   0   8   31684     843   1
  -1   0   8   52284    4199   1
   0   0   8    3204     758   1
   1   0   8    7977    1243   1
   2   0   8   40551    2666   1
   3   0   8   40387    1251   1
   4   0   8     974     161   1
   5   0   8    9079     428   1
   6   0   8       7     167   1
   5   6  -8    2460     289  -2
   7   0   8    2460     289   1
  -6   1   8    8496     570   1
  -5   1   8     664     210   1
  -4   1   8   36884     929   1
  -3   1   8   36907    1570   1
  -2   1   8    4423     299   1
  -1   1   8    5181    1331   1
   0   1   8   16328    1736   1
   1   1   8   30347    2395   1
   2   1   8    9953    2078   1
   3   1   8   11647     706   1
   4   1   8   10018     577   1
   5   1   8     983     171   1
   6   1   8      58     131   1
   7   1   8    1625     260   1
  -6   2   8    1957     197   1
  -5   2   8    3557     286   1
  -4   2   8   51261    1538   1
  -3   2   8   29264    1048   1
  -2   2   8    2681     263   1
  -1   2   8    7874    1055   1
   0   2   8    4770    1284   1
   1   2   8    8462    1952   1
   2   2   8   50623    4625   1
   3   2   8    3071     541   1
   4   2   8   16934     872   1
   5   2   8    8886     657   1
   6   2   8    1546     229   1
   7   2   8      42     144   1
  -6   3   8   24376     597   1
  -5   3   8   11977     487   1
  -4   3   8    1037     189   1
  -3   3   8   10158     502   1
  -2   3   8   12921     549   1
  -1   3   8    8725    1675   1
   0   3   8   30669    2940   1
   1   3   8    8645    1178   1
   2   3   8   42057    4397   1
   3   3   8   82232    3337   1
   4   3   8    4672     472   1
   5   3   8    4063     313   1
   6   3   8    7778     854   1
   7   3   8   13659     672   1
  -5   4   8   17530     804   1
  -4   4   8   88551    5541   1
  -3   4   8     318     195   1
  -2   4   8   48561    2142   1
  -1   4   8   31070     841   1
   0   4   8    1530     778   1
   1   4   8   27499    2925   1
   2   4   8     714     347   1
   3   4   8     647     292   1
   4   4   8   23675    1051   1
   5   4   8    8845     690   1
   6   4   8    1402     242   1
   7   4   8   14702    1380   1
  -5   5   8   26717     573   1
  -4   5   8    2490     359   1
  -3   5   8   60992    1901   1
  -2   5   8   48830    1085   1
  -1   5   8   19692     677   1
   0   5   8   47878    1023   1
   1   5   8    4331     909   1
   2   5   8    5867     350   1
   3   5   8   79573    1252   1
   4   5   8    1354     407   1
   5   5   8    4275     494   1
   6   5   8   12055     784   1
   7   5   8     869     214   1
  -5   6   8   25250     839   1
  -4 -10  -8   22213    2253  -2
  -4   6   8   22213    2253   1
  -3   6   8   14399     916   1
  -2   6   8    2791     450   1
  -1   6   8  113489    1671   1
   0   6   8   25986    5105   1
   1   6   8   36075    2504   1
   2   6   8   22683     782   1
   3   6   8   93172    2558   1
   4   6   8    3092     279   1
   5   6   8   12582     810   1
   6   6   8     191     176   1
   7   6   8   15859     713   1
  -4   7   8    8743     391   1
  -3   7   8    6666     405   1
  -2  -9  -8    7814    1076  -2
  -2   7   8    7814    1076   1
  -1   7   8    5993     413   1
   0   7   8    1488     293   1
   1   7   8   30954    5547   1
   2   7   8    9178     460   1
   3   7   8     779     251   1
   4   7   8   12744     555   1
   5   7   8   11971     504   1
   6   7   8   10452     699   1
   7   7   8     320     166   1
  -3   8   8    5176     308   1
  -2   8   8   12440     894   1
  -1   8   8   20326    1047   1
   0  -8  -8   31447    1222  -2
   0   8   8   31447    1222   1
   1   8   8    1132     328   1
   2   8   8    5706     564   1
   3   8   8     514     165   1
   4   8   8   39557     957   1
   5   8   8    1486     189   1
   6   8   8   10952     678   1
   7   8   8    4283     377   1
  -2   9   8     629     204   1
  -1   9   8   17083     923   1
   0   9   8   11626     476   1
   1   9   8    8379     880   1
   2  -7  -8   11269     765  -2
   2   9   8   11269     765   1
   3   9   8    2982     494   1
   4   9   8    7247     401   1
   5   9   8   13165     498   1
   6   9   8     931     220   1
  -1  10   8    3382     393   1
   0  10   8     965     113   1
   1  10   8   17352     776   1
   2  10   8    1252     186   1
   3  10   8    2713     382   1
   4  -6  -8   21929     923  -2
   4  10   8   21929     923   1
   5  10   8    4205    1638   1
   6  10   8    2591     263   1
   0  11   8   18794    1381   1
   1  11   8      50      76   1
   2  11   8    5551     288   1
   3  11   8    3360     538   1
   4  11   8    4055     359   1
   5  11   8    5823     366   1
  -3  -7   9     393     114   1
  -2  -7   9     162     100   1
  -1  -7   9       0      70   1
   0  -7   9     314      82   1
  -4  -6   9     780     158   1
  -3  -6   9     286     106   1
  -2  -6   9     154     108   1
  -1  -6   9    1295     160   1
   0  -6   9      90      78   1
   1  -6   9    1359     147   1
   2  -6   9     418     149   1
  -7  -1  -9    3929     328  -2
  -5  -5   9    3929     328   1
  -4  -5   9    2400     597   1
  -3  -5   9    3623     415   1
  -2  -5   9     547     115   1
  -1  -5   9    2404     191   1
   0  -5   9     217     112   1
   1  -5   9       0     176   1
   2  -5   9    1241     275   1
   3  -5   9     403     166   1
  -5  -4   9    1048     117   1
  -4  -4   9    1094     170   1
  -5   0  -9    2145     249  -2
  -3  -4   9    2145     249   1
  -2  -4   9    6647     383   1
  -1  -4   9    2920     213   1
   0  -4   9     571     165   1
   1  -4   9    3999     333   1
   2  -4   9      59     106   1
   3  -4   9     253     108   1
   4  -4   9    1668     164   1
  -6  -3   9    4103     271   1
  -5  -3   9    1412     181   1
  -4  -3   9    6703     590   1
  -3  -3   9    4275     520   1
  -2  -3   9    2695     314   1
  -3   1  -9    4022     273  -2
  -1  -3   9    4022     273   1
   0  -3   9   10080     580   1
   1  -3   9     546     165   1
   2  -3   9    9445     484   1
   3  -3   9     301      97   1
   4  -3   9     314     106   1
   5  -3   9    2002     256   1
  -6  -2   9     975     121   1
  -5  -2   9    8575     399   1
  -4  -2   9     291     193   1
  -3  -2   9     354     147   1
  -2  -2   9   22620     618   1
  -1  -2   9   17535     532   1
   0  -2   9     419     117   1
  -1   2  -9    2516     377  -2
   1  -2   9    2516     377   1
   2  -2   9    8158     452   1
   3  -2   9    1268     165   1
   4  -2   9    4438     247   1
   5  -2   9     208     178   1
  -6  -1   9    2907     219   1
  -5  -1   9      64     131   1
  -4  -1   9    1388     222   1
  -3  -1   9   41747    1026   1
  -2  -1   9     379     113   1
  -1  -1   9    6341     314   1
   0  -1   9    5210     268   1
   1  -1   9    8869     913   1
   2  -1   9    4017     314   1
   1   3  -9    6359     316  -2
   3  -1   9    6359     316   1
   4  -1   9    4135     766   1
   5  -1   9   13945     774   1
   6  -1   9     170     147   1
  -6   0   9     164     157   1
  -5   0   9     745     221   1
  -4   0   9   17777     657   1
  -3   0   9   29186    1161   1
  -2   0   9   18591     673   1
  -1   0   9    2577     248   1
   0   0   9    1357     237   1
   1   0   9     958     164   1
   2   0   9    1153     393   1
   3   0   9    2293     356   1
   4   0   9    5558     511   1
   3   4  -9    4019     297  -2
   5   0   9    4019     297   1
   6   0   9    2835     364   1
  -6   1   9    2537     255   1
  -5   1   9     888     172   1
  -4   1   9    8563     457   1
  -3   1   9     117     128   1
  -2   1   9    1434     214   1
  -1   1   9   25576     778   1
   0   1   9   34566    1070   1
   1   1   9     457     230   1
   2   1   9   12461     745   1
   3   1   9    1611     315   1
   4   1   9    3163     630   1
   5   1   9     263     134   1
   6   1   9    1271     269   1
   5   5  -9    4776     372  -2
   7   1   9    4776     372   1
  -6   2   9    4291     309   1
  -5   2   9   10970     466   1
  -4   2   9    4832     494   1
  -3   2   9    8369     462   1
  -2   2   9   33129     913   1
  -1   2   9    3192     380   1
   0   2   9   17408    1738   1
   1   2   9   38260     874   1
   2   2   9    1370     373   1
   3   2   9   34605    1319   1
   4   2   9     893     289   1
   5   2   9   18710     519   1
   6   2   9    6420     430   1
   7   2   9     784     192   1
  -5   3   9      21      86   1
  -4   3   9   19448     935   1
  -3   3   9    2589     287   1
  -2   3   9   14366     621   1
  -1   3   9   28475    1026   1
   0   3   9   24678    1053   1
   1   3   9     779     391   1
   2   3   9    5793     541   1
   3   3   9   28954    1202   1
   4   3   9   10800     803   1
   5   3   9   19437    1026   1
   6   3   9    2671     227   1
   7   3   9   12019     539   1
  -5   4   9   53507     982   1
  -4   4   9   19296    1328   1
  -3   4   9   11583     539   1
  -2   4   9    6724     436   1
  -1   4   9     485     147   1
   0   4   9   17485    2827   1
   1   4   9   20780    1377   1
   2   4   9   10782     502   1
   3   4   9  105141    4731   1
   4   4   9    1000     287   1
   5   4   9     737     263   1
   6   4   9   11323     596   1
   7   4   9    8014     259   1
  -5   5   9    1220     112   1
  -4   5   9     375      99   1
  -3   5   9   23803    1157   1
  -2   5   9     586     156   1
  -1   5   9   26916     828   1
   0   5   9    9773     525   1
   1   5   9   15273    1024   1
   2   5   9   45664    1663   1
   3   5   9   13558     702   1
   4   5   9    1286     310   1
   5   5   9   10339     786   1
   6   5   9    2093     351   1
   7   5   9    6688    1047   1
  -4   6   9    7081     343   1
  -3   6   9   14855     889   1
  -2   6   9    4234     507   1
  -1   6   9    7004     453   1
   0   6   9   28965     849   1
   1   6   9   19519     865   1
   2   6   9   11186     562   1
   3   6   9    5822     394   1
   4   6   9   31816    1736   1
   5   6   9     268     208   1
   6   6   9    6843     587   1
   7   6   9     744     204   1
  -4 -11  -9   18579    2774  -2
  -4   7   9   18579    2774   1
  -3   7   9    6192     643   1
  -2   7   9   11343     987   1
  -1   7   9    6085     397   1
   0   7   9    7155     518   1
   1   7   9   12181     803   1
   2   7   9   10842     534   1
   3   7   9     148     214   1
   4   7   9   25437     776   1
   5   7   9   12903     815   1
   6   7   9    2697     373   1
   7   7   9    2539     302   1
  -3   8   9    3461     315   1
  -2 -10  -9    8241     838  -2
  -2   8   9    8241     838   1
  -1   8   9   17833     647   1
   0   8   9   18551     678   1
   1   8   9    6661     590   1
   2   8   9   11656     776   1
   3   8   9   17305     650   1
   4   8   9    8449     448   1
   5   8   9    1643     199   1
   6   8   9    6464     508   1
   7   8   9     201     136   1
  -2   9   9    3496     395   1
  -1   9   9    5526     495   1
   0  -9  -9    2948     264  -2
   0   9   9    2948     264   1
   1   9   9   26584    1114   1
   2   9   9    6216     565   1
   3   9   9     247     187   1
   4   9   9   20970     650   1
   5   9   9   15443     510   1
   6   9   9     138     129   1
  -1  10   9     779     174   1
   0  10   9   23801    2083   1
   1  10   9    1362     191   1
   2  -8  -9    5176     467  -2
   2  10   9    5176     467   1
   3  10   9    4060     427   1
   4  10   9     496     175   1
   5  10   9    1453     151   1
   1  11   9    1223     153   1
   2  11   9    8412     586   1
   3  11   9     330     145   1
   4  -7  -9   19466     688  -2
   4  11   9   19466     688   1
  -2  -6  10       0      58   1
  -1  -6  10      99     115   1
   0  -6  10     280     132   1
   1  -6  10     772     168   1
  -4  -5  10    1784     143   1
  -3  -5  10       0      58   1
  -2  -5  10    1624     141   1
  -1  -5  10     572     195   1
   0  -5  10       6     135   1
   1  -5  10    1438     272   1
   2  -5  10    2558     296   1
  -4  -4  10    1614     450   1
  -3  -4  10     464     132   1
  -2  -4  10    3843     306   1
  -1  -4  10      76     112   1
   0  -4  10    6542     571   1
   1  -4  10     199     186   1
   2  -4  10     577     197   1
   3  -4  10     789     185   1
  -5  -3  10     995     136   1
  -4  -3  10     529     199   1
  -5  -1 -10   12282     758  -2
  -3  -3  10   12282     758   1
  -2  -3  10    1080     291   1
  -1  -3  10    2949     375   1
   0  -3  10     243     141   1
   1  -3  10    3546     316   1
   2  -3  10    3723     306   1
   3  -3  10       0      99   1
   4  -3  10      72      70   1
  -5  -2  10     916     210   1
  -4  -2  10    4846     489   1
  -3  -2  10    3117     309   1
  -2  -2  10    1138     222   1
  -3   0 -10    2818     230  -2
  -1  -2  10    2818     230   1
   0  -2  10    1431     487   1
   1  -2  10      95     116   1
   2  -2  10    4617     348   1
   3  -2  10    6151     286   1
   4  -2  10     992     184   1
   5  -2  10    2413     270   1
  -5  -1  10    1454     170   1
  -4  -1  10   11762     726   1
  -3  -1  10    2591     323   1
  -2  -1  10    1833     250   1
  -1  -1  10    3021     243   1
   0  -1  10    1182     395   1
  -1   1 -10     579     266  -2
   1  -1  10     579     266   1
   2  -1  10    2298     256   1
   3  -1  10     716     154   1
   4  -1  10   10535     462   1
   5  -1  10     865     213   1
  -5   0  10    1394     175   1
  -4   0  10      53     105   1
  -3   0  10    4313     348   1
  -2   0  10    5692    1056   1
  -1   0  10   10337     405   1
   0   0  10    1977     191   1
   1   0  10   11832     531   1
   2   0  10   13889     845   1
   1   2 -10    5248     335  -2
   3   0  10    5248     335   1
   4   0  10    1074     183   1
   5   0  10    3287     257   1
   6   0  10    4406     369   1
  -5   1  10    4080     325   1
  -4   1  10   16848     610   1
  -3   1  10      59     122   1
  -2   1  10   15007     637   1
  -1   1  10    8269     356   1
   0   1  10     780     123   1
   1   1  10   33725     949   1
   2   1  10    6913     566   1
   3   1  10   17033     985   1
   4   1  10   13498     801   1
   3   3 -10    6232     709  -2
   5   1  10    6232     709   1
   6   1  10    1941     298   1
  -5   2  10    3620     408   1
  -4   2  10    4012     300   1
  -3   2  10   10339     528   1
  -2   2  10     601     140   1
  -1   2  10    8905     472   1
   0   2  10    9899     367   1
   1   2  10    1571     197   1
   2   2  10    2292     293   1
   3   2  10   93791    1856   1
   4   2  10   13153     602   1
   5   2  10   10359    1264   1
   6   2  10    2678     219   1
  -5   3  10   15523     458   1
  -4   3  10   14931     773   1
  -3   3  10    3720     304   1
  -2   3  10   16841     692   1
  -1   3  10    7729     459   1
   0   3  10       0     646   1
   1   3  10   16824     650   1
   2   3  10   15037     617   1
   3   3  10   42334    1633   1
   4   3  10   12363     893   1
   5   3  10    3760     325   1
   6   3  10    4118    1156   1
   7   3  10    6262     413   1
  -5   4  10    6089     297   1
  -4   4  10    9337     428   1
  -3   4  10    4706     345   1
  -2   4  10     907     177   1
  -1   4  10   13417     608   1
   0   4  10   33841    1345   1
   1   4  10    3905     295   1
   2   4  10   20542    1007   1
   3   4  10     368     158   1
   4   4  10    4586     579   1
   5   4  10    4326     507   1
   6   4  10   13747     517   1
   7   4  10    2098     202   1
  -4   5  10    1600     264   1
  -3   5  10    1147     331   1
  -2   5  10    6580     416   1
  -1   5  10   20351     720   1
   0   5  10   15128     882   1
   1   5  10   29321    1255   1
   2   5  10     242     132   1
   3   5  10    2284     260   1
   4   5  10   14980     963   1
   5   5  10    3379     460   1
   6   5  10    5966     521   1
   7   5  10    7402     290   1
  -4   6  10   23214     541   1
  -3   6  10    1249     269   1
  -2   6  10    4810     337   1
  -1   6  10   43336    1032   1
   0   6  10   13018     568   1
   1   6  10     244     171   1
   2   6  10   20720     753   1
   3   6  10     414     148   1
   4   6  10    7261     424   1
   5   6  10    5396     559   1
   6   6  10      42     154   1
   7   6  10    3170     361   1
  -3   7  10    2698     218   1
  -2   7  10   13971    2756   1
  -1   7  10     296     137   1
   0   7  10    9963     494   1
   1   7  10   64061    1833   1
   2   7  10     974     198   1
   3   7  10    5601     384   1
   4   7  10   23917    1177   1
   5   7  10     340     219   1
   6   7  10   11606     682   1
  -2   8  10     372     200   1
  -1   8  10   15843     942   1
   0   8  10   23055     703   1
   1   8  10    2261     278   1
   2   8  10   11765     770   1
   3   8  10    4936     529   1
   4   8  10    2620     255   1
   5   8  10   16817     519   1
   6   8  10    2908     336   1
  -1   9  10    1305     237   1
   0   9  10   17690     708   1
   1   9  10    5458     385   1
   2   9  10     581     204   1
   3   9  10     284     172   1
   4   9  10   10632     444   1
   5   9  10     370      94   1
   0 -10 -10    8339     737  -2
   0  10  10    8339     737   1
   1  10  10    2947     209   1
   2  10  10    9142     555   1
   3  10  10    6318     460   1
   4  10  10   11772     572   1
   5  10  10   16047     998   1
  -2  -5  11    2653     256   1
  -1  -5  11     224     130   1
   0  -5  11     161     111   1
   1  -5  11     362     134   1
  -3  -4  11    2077     175   1
  -2  -4  11     164     101   1
  -1  -4  11    4794     544   1
   0  -4  11     824     219   1
   1  -4  11      58     126   1
   2  -4  11    1194     203   1
  -4  -3  11     544     175   1
  -3  -3  11     907     150   1
  -2  -3  11     894     244   1
  -1  -3  11     192     119   1
   0  -3  11    2455     268   1
   1  -3  11    1765     220   1
   2  -3  11       0     116   1
   3  -3  11       0      98   1
  -4  -2  11     621     212   1
  -5  -2 -11    7941     605  -2
  -3  -2  11    7941     605   1
  -2  -2  11     889     199   1
  -1  -2  11    2504     216   1
   0  -2  11    2073     246   1
   1  -2  11     230     133   1
   2  -2  11    8831     441   1
   3  -2  11    1375     297   1
   4  -2  11     436     119   1
  -4  -1  11     952     227   1
  -3  -1  11    9758     741   1
  -2  -1  11    1269     223   1
  -3  -1 -11   31087     815  -2
  -1  -1  11   31087     815   1
   0  -1  11    7127     443   1
   1  -1  11    8844     684   1
   2  -1  11    1905     364   1
   3  -1  11    1827     226   1
   4  -1  11    4108     295   1
   5  -1  11     250     111   1
  -5   0  11      40     142   1
  -4   0  11    2779     351   1
  -3   0  11    2258     257   1
  -2   0  11    8530     481   1
  -1   0  11   35363     736   1
   0   0  11     483     152   1
  -1   0 -11   23819    1924  -2
   1   0  11   23819    1924   1
   2   0  11    5046     382   1
   3   0  11   14051     523   1
   4   0  11    4111     427   1
   5   0  11    2116     176   1
  -5   1  11    5340     291   1
  -4   1  11    3169     390   1
  -3   1  11    3627     308   1
  -2   1  11    2633     281   1
  -1   1  11     125      95   1
   0   1  11   18699     517   1
   1   1  11   21442     710   1
   2   1  11     248     197   1
   1   1 -11   55702    1662  -2
   3   1  11   55702    1662   1
   4   1  11    1962     221   1
   5   1  11     181     105   1
   6   1  11    1067     191   1
  -4   2  11   15329     595   1
  -3   2  11     626     155   1
  -2   2  11    3187     305   1
  -1   2  11    3652     309   1
   0   2  11    4354     254   1
   1   2  11     617     158   1
   2   2  11   43149     985   1
   3   2  11    5583     571   1
   4   2  11    2322     379   1
   3   2 -11    5728     477  -2
   5   2  11    5728     477   1
   6   2  11    1290     138   1
  -4   3  11    1993     293   1
  -3   3  11    3048     284   1
  -2   3  11       0     119   1
  -1   3  11     309     141   1
   0   3  11   12620     708   1
   1   3  11    5822     384   1
   2   3  11    1426     205   1
   3   3  11    8212     655   1
   4   3  11   12675     587   1
   5   3  11    1851     375   1
   6   3  11    6414     412   1
  -4   4  11   13372     653   1
  -3   4  11    4841     312   1
  -2   4  11    4382     337   1
  -1   4  11   19056    1065   1
   0   4  11    2558     390   1
   1   4  11    4143     316   1
   2   4  11    4215     320   1
   3   4  11    1117     160   1
   4   4  11   13989     637   1
   5   4  11   11761     528   1
   6   4  11     558     167   1
  -4   5  11   10330     748   1
  -3   5  11   13604     717   1
  -2   5  11    5341     364   1
  -1   5  11    7442     430   1
   0   5  11   17120     956   1
   1   5  11    6754     629   1
   2   5  11   18973     660   1
   3   5  11    2483     275   1
   4   5  11    1169     316   1
   5   5  11    1875     357   1
   6   5  11    7878     368   1
  -3   6  11    5450     293   1
  -2   6  11    6455     362   1
  -1   6  11   19874     658   1
   0   6  11    2838     416   1
   1   6  11   37232    1373   1
   2   6  11   11734     508   1
   3   6  11    8457     469   1
   4   6  11   28079    1903   1
   5   6  11    8374     665   1
   6   6  11     432     122   1
  -2   7  11    6866    1206   1
  -1   7  11    1241     171   1
   0   7  11   30256    1192   1
   1   7  11    2025     366   1
   2   7  11    5476     539   1
   3   7  11    5527     377   1
   4   7  11    2275     233   1
   5   7  11    7910     612   1
   6   7  11   13788     678   1
  -2   8  11    2791     277   1
  -1   8  11    3123     223   1
   0   8  11     976     145   1
   1   8  11   12123     734   1
   2   8  11    3540     414   1
   3   8  11     632     146   1
   4   8  11   17832     654   1
   5   8  11   17862     819   1
  -1   9  11    6194     379   1
   0   9  11   19437     503   1
   1   9  11      80     124   1
   2   9  11    5572     458   1
   3   9  11   18225     781   1
   4   9  11     408     149   1
   5   9  11   14735     631   1
   1  10  11    7444     423   1
   2  10  11    9704     514   1
   3  10  11      47     105   1
  -1  -4  12     956     186   1
   0  -4  12       3     104   1
  -3  -3  12     574     123   1
  -2  -3  12     768     334   1
  -1  -3  12     851     208   1
   0  -3  12    2866     335   1
   1  -3  12     240     139   1
   2  -3  12    2660     274   1
  -3  -2  12    3383     340   1
  -2  -2  12    4683     435   1
  -1  -2  12    2621     314   1
   0  -2  12      64     101   1
   1  -2  12    2500     240   1
   2  -2  12     235     101   1
   3  -2  12      65      65   1
  -4  -1  12    1995     252   1
  -5  -3 -12   16878     761  -2
  -3  -1  12   16878     761   1
  -2  -1  12    1730     246   1
  -1  -1  12    8146     419   1
   0  -1  12    4405     426   1
   1  -1  12     330     120   1
   2  -1  12       0      91   1
   3  -1  12   10335     385   1
   4  -1  12     251     108   1
  -4   0  12    4662     369   1
  -3   0  12      52     103   1
  -2   0  12   17024     616   1
  -3  -2 -12    7686     333  -2
  -1   0  12    7686     333   1
   0   0  12    3290     370   1
   1   0  12    3968     480   1
   2   0  12    6963     389   1
   3   0  12    9612     646   1
   4   0  12    1135     211   1
  -4   1  12    3621     330   1
  -3   1  12    1309     179   1
  -2   1  12     258     136   1
  -1   1  12    1747     229   1
   0   1  12   20097     685   1
  -1  -1 -12     644     153  -2
   1   1  12     644     153   1
   2   1  12    5749    1188   1
   3   1  12    2356     417   1
   4   1  12     531     207   1
   5   1  12    1287     135   1
  -4   2  12     212     132   1
  -3   2  12      11      90   1
  -2   2  12    1034     176   1
  -1   2  12    4782     340   1
   0   2  12    4509     256   1
   1   2  12   13443     562   1
   2   2  12    5217     834   1
   1   0 -12    9529     687  -2
   3   2  12    9529     687   1
   4   2  12    6528     348   1
   5   2  12    1057     144   1
  -4   3  12   12880     623   1
  -3   3  12    2087     215   1
  -2   3  12    2333     258   1
  -1   3  12    9845     492   1
   0   3  12    1054     257   1
   1   3  12    1029     177   1
   2   3  12   14001     567   1
   3   3  12    3454     430   1
   4   3  12    7275     620   1
   3   1 -12   13203     657  -2
   5   3  12   13203     657   1
  -3   4  12     623     132   1
  -2   4  12    6914     380   1
  -1   4  12    1440     200   1
   0   4  12    8648     431   1
   1   4  12   20163     653   1
   2   4  12     207     117   1
   3   4  12    5776     405   1
   4   4  12   13417     749   1
   5   4  12    2194     296   1
  -3   5  12   14725    2501   1
  -2   5  12      36      86   1
  -1   5  12   15898     772   1
   0   5  12   17769    1253   1
   1   5  12   14996     868   1
   2   5  12   26521     737   1
   3   5  12       0      95   1
   4   5  12    2569     350   1
   5   5  12    7479     511   1
  -2   6  12    4900     380   1
  -1   6  12       1     102   1
   0   6  12   13060     761   1
   1   6  12   26806    1137   1
   2   6  12     240     103   1
   3   6  12    2391     232   1
   4   6  12   13332     773   1
   5   6  12    2124     205   1
  -2   7  12     286     124   1
  -1   7  12    8756     517   1
   0   7  12    4034     423   1
   1   7  12    6278     524   1
   2   7  12    8645     618   1
   3   7  12   12921     456   1
   4   7  12    3218     228   1
   5   7  12   22943    1173   1
  -1   8  12     130      90   1
   0   8  12   21889     812   1
   1   8  12    9934     599   1
   2   8  12     219     142   1
   3   8  12    3826     367   1
   4   8  12    4731     398   1
   1   9  12    1301     202   1
   2   9  12   10382     545   1
   3   9  12   13305     583   1
  -1  -2  13      18     109   1
   0  -2  13     544     168   1
   1  -2  13     505     147   1
  -2  -1  13    1172     191   1
   0  -1  13    1237     238   1
   1  -1  13     331     112   1
   2  -1  13    2284     185   1
  -5  -4 -13     660     157  -2
  -3   0  13     660     157   1
  -2   0  13    2006     374   1
  -1   0  13     190      96   1
   0   0  13    2747     579   1
   1   0  13     666     139   1
   2   0  13     206      95   1
   3   0  13    2024     271   1
  -3   1  13     533     149   1
  -2   1  13     946     148   1
  -3  -3 -13    7607     376  -2
  -1   1  13    7607     376   1
   0   1  13     815     151   1
   1   1  13    1771     213   1
   2   1  13    2644     258   1
   3   1  13     125     140   1
   4   1  13    2679     277   1
  -3   2  13    1880     167   1
  -2   2  13     336     100   1
  -1   2  13    2572     227   1
   0   2  13    5233     327   1
  -1  -2 -13   10718     801  -2
   1   2  13   10718     801   1
   2   2  13    2322     331   1
   3   2  13    4737     451   1
   4   2  13     970     202   1
  -3   3  13      16      69   1
  -2   3  13    6741     336   1
  -1   3  13    3098     253   1
   0   3  13     396     199   1
   1   3  13   10944     474   1
   2   3  13   11627     468   1
   1  -1 -13    4184     429  -2
   3   3  13    4184     429   1
   4   3  13    5730     443   1
  -2   4  13    4050     255   1
  -1   4  13    7107     362   1
   0   4  13   21379    1425   1
   1   4  13    2980     231   1
   2   4  13    4528     303   1
   3   4  13     590     204   1
   4   4  13    1388     243   1
   3   0 -13     623     152  -2
   5   4  13     623     152   1
  -2   5  13     862     119   1
  -1   5  13    9690     484   1
   0   5  13     313      97   1
   1   5  13   18283     858   1
   2   5  13    4020     266   1
   3   5  13     840     128   1
   4   5  13    4217     372   1
   5   5  13    9510     468   1
  -1   6  13    2094     180   1
   0   6  13   13999     831   1
   1   6  13     817     223   1
   2   6  13    2459     313   1
   3   6  13    3517     228   1
   4   6  13      33     100   1
   0   7  13    1877     196   1
   1   7  13   10267     589   1
   2   7  13    1561     238   1
   3   7  13     144      73   1
   4   7  13    6233     362   1
   1   8  13     387     133   1
   2   8  13      89      93   1
   3   8  13   14301     552   1
   0   0  14      65      96   1
   1   0  14     279      80   1
  -1   1  14     244     133   1
   0   1  14     409     147   1
   1   1  14    3765     225   1
   2   1  14    1121     208   1
  -3  -4 -14    1387     228  -2
  -1   2  14    1387     228   1
   0   2  14    3297     362   1
   1   2  14       0      61   1
   2   2  14    3429     328   1
   3   2  14      83     116   1
  -1   3  14       7      69   1
   0   3  14    1666     263   1
  -1  -3 -14    5728     279  -2
   1   3  14    5728     279   1
   2   3  14    1912     255   1
   3   3  14      59      98   1
  -1   4  14    2512     169   1
   0   4  14    2388     305   1
   1   4  14    1214     229   1
   2   4  14    2882     243   1
   1  -2 -14    1139     195  -2
   3   4  14    1139     195   1
   0   5  14    5122     388   1
   1   5  14    2540     286   1
   2   5  14     903     116   1
   3   5  14     468     135   1
   1   6  14    7454     464   1
   2   6  14    1111     175   1
   3   6  14    3032     219   1
;
_shelx_hkl_checksum              34608
loop_
_space_group_symop_operation_xyz
'x, y, z'
'-x, -y, -z'
loop_
_atom_site_label
_atom_site_type_symbol
_atom_site_fract_x
_atom_site_fract_y
_atom_site_fract_z
_atom_site_U_iso_or_equiv
_atom_site_adp_type
_atom_site_occupancy
_atom_site_site_symmetry_order
_atom_site_calc_flag
_atom_site_refinement_flags_posn
_atom_site_refinement_flags_adp
_atom_site_refinement_flags_occupancy
C18 C 0.2317(11) 0.9288(10) 0.3803(8) 0.067(2) Uani 1 1 d . . .
H18 H 0.2145 0.9030 0.3141 0.080 Uiso 1 1 calc R U .
C17 C 0.3093(11) 0.8296(8) 0.4690(9) 0.067(2) Uani 1 1 d . . .
H17 H 0.3481 0.7351 0.4639 0.080 Uiso 1 1 calc R U .
O1 O 0.192(5) 1.060(4) 1.016(3) 0.102(9) Uiso 0.25 1 d . . P
O4 O -0.768(6) 1.168(4) 0.986(3) 0.118(11) Uiso 0.25 1 d . . P
C20 C 0.370(8) 0.999(6) 1.034(5) 0.109(15) Uiso 0.25 1 d . . P
C19 C 0.053(8) 1.031(6) 0.025(4) 0.102(13) Uiso 0.25 1 d . . P
Cu1 Cu 0.17617(11) 1.25922(9) 0.65236(8) 0.0423(4) Uani 1 1 d . . .
N4 N 0.1484(6) 1.2460(5) 0.4908(4) 0.0341(10) Uani 1 1 d . . .
N2 N -0.6568(7) 1.3485(6) 0.6960(5) 0.0443(12) Uani 1 1 d . . .
N1 N -0.0708(6) 1.3090(6) 0.7256(5) 0.0436(12) Uani 1 1 d . . .
N3 N 0.2911(6) 1.0437(5) 0.6720(5) 0.0423(11) Uani 1 1 d . . .
C11 C 0.2769(7) 1.0040(6) 0.5782(6) 0.0404(13) Uani 1 1 d . . .
C12 C 0.1969(7) 1.1116(6) 0.4820(5) 0.0375(12) Uani 1 1 d . . .
C5 C -0.3163(7) 1.4645(6) 0.9593(5) 0.0360(12) Uani 1 1 d . . .
H5 H -0.1891 1.4404 0.9324 0.043 Uiso 1 1 calc R U .
C4 C -0.4544(7) 1.4419(5) 0.9038(5) 0.0332(11) Uani 1 1 d . . .
C1 C -0.2233(8) 1.3446(6) 0.7606(5) 0.0392(12) Uani 1 1 d . . .
C3 C -0.4077(7) 1.3845(6) 0.8025(5) 0.0371(12) Uani 1 1 d . . .
C6 C -0.6391(7) 1.4789(6) 0.9473(5) 0.0352(11) Uani 1 1 d . . .
H6 H -0.7365 1.4647 0.9118 0.042 Uiso 1 1 calc R U .
C2 C -0.5460(7) 1.3662(6) 0.7439(5) 0.0398(13) Uani 1 1 d . . .
C10 C 0.3354(8) 0.8626(6) 0.5718(7) 0.0526(18) Uani 1 1 d . . .
C13 C 0.1729(9) 1.0756(7) 0.3827(6) 0.0481(15) Uani 1 1 d . . .
C7 C 0.3675(10) 0.9455(8) 0.7611(7) 0.0580(17) Uani 1 1 d . . .
H7 H 0.3798 0.9738 0.8270 0.070 Uiso 1 1 calc R U .
C14 C 0.0910(10) 1.1851(9) 0.2914(6) 0.061(2) Uani 1 1 d . . .
H14 H 0.0704 1.1650 0.2233 0.073 Uiso 1 1 calc R U .
C9 C 0.4140(9) 0.7629(7) 0.6688(9) 0.066(2) Uani 1 1 d . . .
H9 H 0.4557 0.6670 0.6679 0.079 Uiso 1 1 calc R U .
C16 C 0.0718(8) 1.3463(7) 0.4029(5) 0.0443(13) Uani 1 1 d . . .
H16 H 0.0361 1.4403 0.4096 0.053 Uiso 1 1 calc R U .
C15 C 0.0415(10) 1.3201(9) 0.3013(6) 0.0581(18) Uani 1 1 d . . .
H15 H -0.0125 1.3947 0.2403 0.070 Uiso 1 1 calc R U .
C8 C 0.4311(10) 0.8023(8) 0.7636(8) 0.067(2) Uani 1 1 d . . .
H8 H 0.4840 0.7357 0.8293 0.080 Uiso 1 1 calc R U .
loop_
_atom_site_aniso_label
_atom_site_aniso_U_11
_atom_site_aniso_U_22
_atom_site_aniso_U_33
_atom_site_aniso_U_23
_atom_site_aniso_U_13
_atom_site_aniso_U_12
C18 0.053(4) 0.082(6) 0.098(6) -0.071(5) 0.036(4) -0.041(4)
C17 0.048(4) 0.051(4) 0.117(7) -0.054(5) 0.039(4) -0.024(3)
Cu1 0.0249(5) 0.0475(6) 0.0645(6) -0.0354(4) 0.0054(4) -0.0081(3)
N4 0.022(2) 0.037(2) 0.049(2) -0.027(2) 0.0062(17) -0.0055(17)
N2 0.025(2) 0.057(3) 0.063(3) -0.042(3) 0.010(2) -0.009(2)
N1 0.023(2) 0.057(3) 0.066(3) -0.045(3) 0.011(2) -0.012(2)
N3 0.025(2) 0.040(2) 0.064(3) -0.023(2) 0.003(2) -0.0059(19)
C11 0.016(2) 0.036(3) 0.073(4) -0.027(3) 0.013(2) -0.007(2)
C12 0.018(2) 0.043(3) 0.063(3) -0.035(3) 0.014(2) -0.011(2)
C5 0.019(2) 0.041(3) 0.055(3) -0.028(2) 0.008(2) -0.007(2)
C4 0.025(2) 0.031(2) 0.051(3) -0.025(2) 0.005(2) -0.0073(19)
C1 0.031(3) 0.046(3) 0.053(3) -0.033(3) 0.003(2) -0.015(2)
C3 0.022(2) 0.047(3) 0.053(3) -0.032(2) 0.007(2) -0.011(2)
C6 0.021(2) 0.039(3) 0.053(3) -0.027(2) 0.000(2) -0.006(2)
C2 0.021(2) 0.051(3) 0.059(3) -0.040(3) 0.014(2) -0.010(2)
C10 0.025(3) 0.037(3) 0.104(5) -0.038(3) 0.027(3) -0.014(2)
C13 0.035(3) 0.066(4) 0.064(4) -0.046(3) 0.018(3) -0.026(3)
C7 0.037(3) 0.062(4) 0.077(5) -0.020(4) -0.003(3) -0.014(3)
C14 0.045(4) 0.100(6) 0.062(4) -0.050(4) 0.012(3) -0.035(4)
C9 0.024(3) 0.034(3) 0.129(7) -0.015(4) 0.019(4) -0.004(2)
C16 0.027(3) 0.049(3) 0.060(3) -0.024(3) 0.003(2) -0.006(2)
C15 0.038(3) 0.086(5) 0.055(4) -0.023(3) 0.001(3) -0.020(3)
C8 0.036(4) 0.051(4) 0.103(6) -0.006(4) -0.003(4) -0.008(3)
loop_
_atom_type_symbol
_atom_type_description
_atom_type_scat_dispersion_real
_atom_type_scat_dispersion_imag
_atom_type_scat_source
C C 0.0181 0.0091 'International Tables Vol C Tables 4.2.6.8 and 6.1.1.4'
H H 0.0000 0.0000 'International Tables Vol C Tables 4.2.6.8 and 6.1.1.4'
N N 0.0311 0.0180 'International Tables Vol C Tables 4.2.6.8 and 6.1.1.4'
Cu Cu -1.9646 0.5888 'International Tables Vol C Tables 4.2.6.8 and 6.1.1.4'
O O 0.0492 0.0322 'International Tables Vol C Tables 4.2.6.8 and 6.1.1.4'
loop_
_geom_angle_atom_site_label_1
_geom_angle_atom_site_label_2
_geom_angle_atom_site_label_3
_geom_angle
_geom_angle_site_symmetry_1
_geom_angle_site_symmetry_3
C17 C18 C13 121.5(7) . .
C18 C17 C10 121.5(6) . .
C19 O1 O4 133(5) 1_556 1_655
C19 O1 C20 139(5) 1_556 .
O4 O1 C20 88(4) 1_655 .
O1 O4 C20 49(3) 1_455 1_455
O1 C20 O4 43(3) . 1_655
O1 C20 C20 142(5) . 2_677
O4 C20 C20 106(4) 1_655 2_677
O1 C19 C19 143(7) 1_554 2_575
N2 Cu1 N1 110.64(19) 1_655 .
N2 Cu1 N4 126.1(2) 1_655 .
N1 Cu1 N4 109.37(19) . .
N2 Cu1 N3 112.8(2) 1_655 .
N1 Cu1 N3 114.2(2) . .
N4 Cu1 N3 80.75(19) . .
C16 N4 C12 118.5(5) . .
C16 N4 Cu1 129.1(4) . .
C12 N4 Cu1 111.9(4) . .
C2 N2 Cu1 160.6(6) . 1_455
C1 N1 Cu1 174.4(6) . .
C7 N3 C11 118.0(5) . .
C7 N3 Cu1 130.4(5) . .
C11 N3 Cu1 111.6(4) . .
N3 C11 C10 122.6(6) . .
N3 C11 C12 117.3(5) . .
C10 C11 C12 120.0(6) . .
N4 C12 C13 122.2(6) . .
N4 C12 C11 117.9(5) . .
C13 C12 C11 119.8(5) . .
C6 C5 C4 121.3(5) 2_487 .
C5 C4 C6 116.9(5) . .
C5 C4 C3 121.4(5) . .
C6 C4 C3 121.7(5) . .
N1 C1 C3 178.6(6) . .
C1 C3 C2 116.4(5) . .
C1 C3 C4 121.7(5) . .
C2 C3 C4 121.9(5) . .
C5 C6 C4 121.8(5) 2_487 .
N2 C2 C3 178.6(6) . .
C9 C10 C11 117.0(7) . .
C9 C10 C17 124.4(6) . .
C11 C10 C17 118.6(7) . .
C12 C13 C14 117.5(6) . .
C12 C13 C18 118.4(7) . .
C14 C13 C18 124.0(6) . .
N3 C7 C8 124.0(8) . .
C15 C14 C13 119.8(6) . .
C8 C9 C10 120.8(6) . .
N4 C16 C15 123.1(6) . .
C14 C15 C16 118.8(7) . .
C9 C8 C7 117.6(8) . .
loop_
_geom_bond_atom_site_label_1
_geom_bond_atom_site_label_2
_geom_bond_distance
_geom_bond_site_symmetry_2
C18 C17 1.335(13) .
C18 C13 1.456(10) .
C17 C10 1.435(12) .
O1 C19 1.14(6) 1_556
O1 O4 1.18(5) 1_655
O1 C20 1.31(6) .
O4 O1 1.18(5) 1_455
O4 C20 1.73(7) 1_455
C20 O4 1.73(7) 1_655
C20 C20 2.01(11) 2_677
C19 O1 1.14(6) 1_554
C19 C19 1.42(11) 2_575
Cu1 N2 1.932(5) 1_655
Cu1 N1 1.941(5) .
Cu1 N4 2.058(5) .
Cu1 N3 2.097(5) .
N4 C16 1.331(8) .
N4 C12 1.357(7) .
N2 C2 1.144(8) .
N2 Cu1 1.932(5) 1_455
N1 C1 1.157(8) .
N3 C7 1.332(9) .
N3 C11 1.343(8) .
C11 C10 1.417(8) .
C11 C12 1.438(9) .
C12 C13 1.405(8) .
C5 C6 1.383(8) 2_487
C5 C4 1.398(8) .
C4 C6 1.399(7) .
C4 C3 1.477(7) .
C1 C3 1.394(8) .
C3 C2 1.401(8) .
C6 C5 1.383(8) 2_487
C10 C9 1.409(12) .
C13 C14 1.412(11) .
C7 C8 1.406(11) .
C14 C15 1.367(12) .
C9 C8 1.357(13) .
C16 C15 1.396(10) .
loop_
_geom_torsion_atom_site_label_1
_geom_torsion_atom_site_label_2
_geom_torsion_atom_site_label_3
_geom_torsion_atom_site_label_4
_geom_torsion
C1 C3 C4 C5 2.8(9)
C2 C3 C4 C6 1.0(9)
