#------------------------------------------------------------------------------
#$Date: 2015-08-05 20:10:24 +0300 (Wed, 05 Aug 2015) $
#$Revision: 152785 $
#$URL: svn://www.crystallography.net/cod/cif/4/51/31/4513193.cif $
#------------------------------------------------------------------------------
#
# This file is available in the Crystallography Open Database (COD),
# http://www.crystallography.net/
#
# All data on this site have been placed in the public domain by the
# contributors.
#
data_4513193
loop_
_publ_author_name
'Watkins-Curry, Pilanda'
'Burnett, Joseph Vade'
'Samanta, Tapas'
'Young, David P.'
'Stadler, Shane'
'Chan, Julia Y.'
_publ_section_title
;
 Strategic Crystal Growth and Physical Properties of Single-Crystalline
 LnCo2Al8(Ln = La--Nd, Sm, Yb)
;
_journal_issue                   7
_journal_name_full               'Crystal Growth &amp; Design'
_journal_page_first              3293
_journal_paper_doi               10.1021/acs.cgd.5b00417
_journal_volume                  15
_journal_year                    2015
_chemical_formula_moiety         'Al8 Co2 La'
_chemical_formula_sum            'Al8 Co2 La'
_chemical_formula_weight         472.61
_space_group_crystal_system      orthorhombic
_space_group_IT_number           55
_space_group_name_Hall           '-P 2 2ab'
_space_group_name_H-M_alt        'P b a m'
_symmetry_space_group_name_Hall  '-P 2 2ab'
_symmetry_space_group_name_H-M   'P b a m'
_audit_creation_method           SHELXL-2014/7
_audit_update_record
;
2015-05-26 # Formatted by publCIF
;
_cell_angle_alpha                90
_cell_angle_beta                 90
_cell_angle_gamma                90
_cell_formula_units_Z            4
_cell_length_a                   12.5143(4)
_cell_length_b                   14.4007(5)
_cell_length_c                   4.03390(10)
_cell_measurement_temperature    293(2)
_cell_volume                     726.97(4)
_computing_cell_refinement       'Bruker SAINT'
_computing_data_collection       'Bruker APEX2'
_computing_data_reduction        'Bruker SAINT'
_computing_molecular_graphics    CrystalMaker
_computing_publication_material  'publCIF (Westrip, 2014)'
_computing_structure_refinement  'SHELXL-2014/7 (Sheldrick, 2014)'
_computing_structure_solution    'SHELXS Direct Methods (Sheldrick, 2013)'
_diffrn_ambient_temperature      293(2)
_diffrn_measured_fraction_theta_full 1.000
_diffrn_measured_fraction_theta_max 0.993
_diffrn_measurement_device_type  'Bruker Kappa D8 Quest CMOS'
_diffrn_measurement_method       '\f and \w scans'
_diffrn_radiation_type           MoK\a
_diffrn_radiation_wavelength     0.71073
_diffrn_reflns_av_R_equivalents  0.0307
_diffrn_reflns_av_unetI/netI     0.0187
_diffrn_reflns_laue_measured_fraction_full 1.000
_diffrn_reflns_laue_measured_fraction_max 0.993
_diffrn_reflns_limit_h_max       17
_diffrn_reflns_limit_h_min       -16
_diffrn_reflns_limit_k_max       20
_diffrn_reflns_limit_k_min       -19
_diffrn_reflns_limit_l_max       5
_diffrn_reflns_limit_l_min       -5
_diffrn_reflns_number            7272
_diffrn_reflns_point_group_measured_fraction_full 1.000
_diffrn_reflns_point_group_measured_fraction_max 0.993
_diffrn_reflns_theta_full        25.242
_diffrn_reflns_theta_max         30.535
_diffrn_reflns_theta_min         2.156
_diffrn_source                   'I\mS microfocus tube'
_exptl_absorpt_coefficient_mu    11.143
_exptl_absorpt_correction_T_max  0.794
_exptl_absorpt_correction_T_min  0.667
_exptl_absorpt_correction_type   multi-scan
_exptl_absorpt_process_details   SADABS(2014)
_exptl_crystal_colour            silver
_exptl_crystal_density_diffrn    4.318
_exptl_crystal_description       fragment
_exptl_crystal_F_000             860
_exptl_crystal_size_max          0.030
_exptl_crystal_size_mid          0.020
_exptl_crystal_size_min          0.020
_refine_diff_density_max         0.900
_refine_diff_density_min         -1.109
_refine_diff_density_rms         0.228
_refine_ls_extinction_coef       0.0073(3)
_refine_ls_extinction_expression Fc^*^=kFc[1+0.001xFc^2^\l^3^/sin(2\q)]^-1/4^
_refine_ls_extinction_method     'SHELXL-2014/7 (Sheldrick 2014'
_refine_ls_goodness_of_fit_ref   1.232
_refine_ls_hydrogen_treatment    undef
_refine_ls_matrix_type           full
_refine_ls_number_parameters     70
_refine_ls_number_reflns         1251
_refine_ls_number_restraints     0
_refine_ls_restrained_S_all      1.232
_refine_ls_R_factor_all          0.0161
_refine_ls_R_factor_gt           0.0157
_refine_ls_shift/su_max          0.001
_refine_ls_shift/su_mean         0.000
_refine_ls_structure_factor_coef Fsqd
_refine_ls_weighting_details
'w=1/[\s^2^(Fo^2^)+(0.0164P)^2^+0.2990P] where P=(Fo^2^+2Fc^2^)/3'
_refine_ls_weighting_scheme      calc
_refine_ls_wR_factor_gt          0.0363
_refine_ls_wR_factor_ref         0.0365
_reflns_Friedel_coverage         0.000
_reflns_number_gt                1225
_reflns_number_total             1251
_reflns_threshold_expression     'I > 2\s(I)'
_cod_data_source_file            cg5b00417_si_001.cif
_cod_data_source_block           shelx
_cod_depositor_comments
'Adding full bibliography for 4513193--4513198.cif.'
_cod_database_code               4513193
_shelx_shelxl_version_number     2014/7
_shelx_space_group_comment
;
The symmetry employed for this shelxl refinement is uniquely defined
by the following loop, which should always be used as a source of
symmetry information in preference to the above space-group names.
They are only intended as comments.
;
_shelx_estimated_absorpt_t_min   0.731
_shelx_estimated_absorpt_t_max   0.808
_shelx_res_file
;

    shelx.res created by SHELXL-2014/7


TITL scd0257_LaCoAl in Pbam
CELL 0.71073  12.51430  14.40070   4.03390  90.0000  90.0000  90.0000
ZERR    4.00   0.00040   0.00050   0.00010   0.0000   0.0000   0.0000
LATT  1
SYMM -X, -Y, Z
SYMM 0.5-X, 0.5+Y, -Z
SYMM 0.5+X, 0.5-Y, -Z
SFAC AL CO LA
UNIT 32 8 4
TEMP 20
L.S. 18
SIZE 0.02 0.02 0.03
ACTA
BOND
FMAP 2
PLAN 20
WGHT    0.016400    0.299000
EXTI    0.007274
FVAR       0.08715
LA1   3    0.340404    0.318150   10.000000    10.50000    0.00653    0.00906 =
         0.00599    0.00000    0.00000   -0.00096
CO1   2    0.034742    0.405736   10.000000    10.50000    0.00717    0.00482 =
         0.00602    0.00000    0.00000    0.00068
CO2   2    0.151509    0.096500   10.000000    10.50000    0.00488    0.00429 =
         0.00514    0.00000    0.00000   -0.00003
AL1   1    0.026673    0.131711   10.500000    10.50000    0.00608    0.00682 =
         0.00696    0.00000    0.00000    0.00060
AL2   1    0.158921    0.380101   10.500000    10.50000    0.00518    0.00795 =
         0.00791    0.00000    0.00000    0.00010
AL3   1    0.236367    0.171425   10.500000    10.50000    0.00678    0.00847 =
         0.00748    0.00000    0.00000   -0.00210
AL4   1    0.331170    0.491750   10.500000    10.50000    0.00870    0.00562 =
         0.00782    0.00000    0.00000   -0.00182
AL5   1    0.453059    0.178753   10.500000    10.50000    0.00651    0.00592 =
         0.00848    0.00000    0.00000    0.00122
AL6   1    0.095662    0.252929   10.000000    10.50000    0.00724    0.00461 =
         0.00931    0.00000    0.00000    0.00061
AL7   1    0.340096    0.044410   10.000000    10.50000    0.00613    0.01090 =
         0.01105    0.00000    0.00000    0.00216
AL8   1   10.000000   10.500000   10.500000    10.25000    0.00983    0.00443 =
         0.00601    0.00000    0.00000    0.00118
AL9   1   10.000000   10.000000   10.000000    10.25000    0.00600    0.00611 =
         0.00923    0.00000    0.00000   -0.00147
HKLF 4

REM  scd0257_LaCoAl in Pbam
REM R1 =  0.0157 for    1225 Fo > 4sig(Fo)  and  0.0161 for all    1251 data
REM     70 parameters refined using      0 restraints

END

WGHT      0.0175      0.1896

REM Highest difference peak  0.900,  deepest hole -1.109,  1-sigma level  0.228
Q1    1   0.3414  0.3163  0.1790  11.00000  0.05    0.86
Q2    1   0.1548  0.0970  0.1918  11.00000  0.05    0.61
Q3    1   0.0351  0.4049  0.2243  11.00000  0.05    0.50
Q4    1   0.1445  0.0767  0.2562  11.00000  0.05    0.48
Q5    1   0.1619  0.3846  0.3645  11.00000  0.05    0.47
Q6    1   0.1947  0.0425  0.2066  11.00000  0.05    0.41
Q7    1   0.1267  0.0308  0.1969  11.00000  0.05    0.41
Q8    1   0.0577  0.3354  0.2203  11.00000  0.05    0.40
Q9    1   0.1716  0.1314  0.3077  11.00000  0.05    0.40
Q10   1   0.2529  0.4022  0.2996  11.00000  0.05    0.40
Q11   1   0.2566  0.3221  0.2189  11.00000  0.05    0.40
Q12   1  -0.0215  0.3168  0.0000  10.50000  0.05    0.40
Q13   1   0.3755  0.2716  0.2163  11.00000  0.05    0.38
Q14   1   0.0680  0.0763  0.1966  11.00000  0.05    0.38
Q15   1   0.4012  0.3537  0.2128  11.00000  0.05    0.38
Q16   1   0.3958 -0.0012  0.2167  11.00000  0.05    0.38
Q17   1   0.1212  0.4257  0.2725  11.00000  0.05    0.37
Q18   1   0.4563  0.1852  0.3582  11.00000  0.05    0.37
Q19   1   0.2235  0.1886  0.2861  11.00000  0.05    0.37
Q20   1   0.1219  0.1632  0.2236  11.00000  0.05    0.36
;
_shelx_res_checksum              616
_shelx_hkl_file
;
   0   0   1  285.66    8.63
   0   0  -1  288.72    8.62
   0   0  -2  947.97   28.86
   0   0   2 1000.00   29.01
   0   0  -3  203.96    6.01
   0   0  -3  197.63    5.98
   0   0  -3  209.57    6.07
   0   0   3  196.98    6.02
   0   0  -4  714.16   22.20
   0   0  -4  793.76   22.02
   0   0  -4  720.31   21.97
   0   0  -5   94.53    2.95
   1   0  -1    0.04    0.01
  -1   0  -1    0.01    0.01
   1   0   1    0.03    0.02
   1   0   2    0.04    0.04
   1   0  -2    0.03    0.02
   1   0  -2    0.15    0.04
  -1   0   2    0.06    0.04
   1   0  -2    0.01    0.02
  -1   0  -2    0.01    0.02
  -1   0  -2    0.09    0.03
   1   0   3    0.00    0.05
  -1   0  -3    0.04    0.03
   1   0  -3    0.25    0.05
   1   0  -3    0.10    0.05
  -1   0  -3    0.09    0.03
  -1   0  -3    0.06    0.04
   1   0  -3    0.09    0.03
  -1   0  -4    0.12    0.07
   1   0  -4    0.03    0.03
   1   0  -4    0.17    0.07
  -1   0  -4    0.13    0.05
   1   0  -4    0.01    0.05
   1   0   4    0.09    0.08
   1   0  -5   -0.03    0.04
   1   0  -5    0.14    0.05
   1   0  -5    0.08    0.08
  -1   0  -5    0.04    0.08
  -2   0   0    0.33    0.03
   2   0  -1    3.94    0.15
   2   0   1    4.19    0.15
  -2   0  -1    4.27    0.15
  -2   0  -1    3.96    0.14
   2   0  -1    4.12    0.15
   2   0  -2    0.04    0.03
   2   0  -2    0.17    0.04
   2   0   2    0.04    0.04
   2   0  -2    0.09    0.03
  -2   0  -2    0.06    0.02
  -2   0  -2    0.01    0.03
  -2   0  -3    2.98    0.13
   2   0   3    3.01    0.19
   2   0  -3    2.95    0.15
   2   0  -3    2.91    0.13
  -2   0  -3    3.03    0.17
   2   0  -3    2.77    0.16
   2   0   4    0.05    0.07
   2   0  -4    0.25    0.05
  -2   0  -4    0.13    0.03
   2   0  -4    0.19    0.07
  -2   0  -4    0.31    0.08
  -2   0  -4    0.17    0.04
   2   0  -4    0.18    0.06
   2   0  -5    2.28    0.16
   2   0  -5    1.69    0.20
   2   0  -5    2.06    0.13
  -2   0  -5    1.98    0.20
   2   0   5    2.73    0.29
   3   0   0   -0.91    0.01
  -3   0   0   -0.92    0.01
  -3   0  -1   -0.69    0.02
  -3   0   1   -0.70    0.02
   3   0  -1   -0.69    0.02
  -3   0  -1   -0.69    0.01
   3   0   1   -0.67    0.02
   3   0   2   -0.26    0.04
   3   0  -2   -0.29    0.04
   3   0  -2   -0.23    0.03
   3   0  -2   -0.33    0.02
  -3   0  -2   -0.29    0.04
  -3   0  -3    0.07    0.05
  -3   0  -3    0.02    0.02
   3   0  -3    0.01    0.03
   3   0  -3    0.07    0.06
   3   0   3   -0.01    0.05
   3   0  -3    0.00    0.03
  -3   0  -4    0.02    0.07
  -3   0  -4    0.00    0.03
   3   0   4    0.07    0.08
  -3   0  -4    0.03    0.03
   3   0  -4   -0.02    0.03
   3   0  -4    0.06    0.07
   3   0  -5   -0.05    0.08
   3   0  -5   -0.04    0.09
   3   0  -5    0.00    0.05
  -3   0  -5    0.05    0.10
   3   0   5    0.05    0.13
  -4   0   0   86.45    2.85
   4   0   0   93.32    2.91
   4   0   0  105.49    2.81
  -4   0  -1  324.10    8.87
   4   0  -1  310.64    8.90
   4   0  -1  308.14    9.01
  -4   0  -1  273.46    8.91
   4   0   1  269.99    8.95
  -4   0   1  305.99    9.02
   4   0  -2   58.14    1.75
  -4   0  -2   60.83    1.75
  -4   0  -2   57.60    1.73
   4   0   2   58.70    1.77
   4   0  -2   54.57    1.75
   4   0  -3  150.85    4.70
   4   0  -3  160.55    4.67
  -4   0  -3  157.21    4.66
   4   0   3  155.23    4.71
   4   0  -3  159.98    4.66
  -4   0  -4   28.34    0.94
  -4   0  -4   28.40    0.85
   4   0  -4   27.31    0.94
   4   0  -4   28.01    0.90
  -4   0  -4   28.04    0.85
   4   0   4   28.80    1.00
   4   0  -5   65.50    2.15
   4   0  -5   65.92    2.05
   4   0   5   68.85    2.17
   4   0  -5   66.62    2.02
  -4   0  -5   65.15    2.10
   5   0   0   -0.55    0.02
  -5   0   0   -0.49    0.03
   5   0  -1   -0.15    0.04
  -5   0  -1   -0.23    0.03
   5   0  -2   -0.17    0.03
   5   0   2   -0.18    0.04
  -5   0  -2   -0.11    0.03
   5   0  -3    0.09    0.04
  -5   0  -3    0.11    0.03
  -5   0  -3    0.05    0.06
   5   0  -3    0.05    0.04
   5   0  -3   -0.01    0.05
   5   0  -4    0.20    0.05
   5   0  -4    0.04    0.05
   5   0   4    0.21    0.11
  -5   0  -4    0.04    0.07
   5   0  -4    0.10    0.12
   5   0  -5    0.11    0.09
  -5   0  -5    0.10    0.12
   5   0  -5    0.01    0.06
   5   0   5   -0.05    0.13
   6   0   0  587.01   18.41
   6   0   0  622.86   18.34
  -6   0   0  643.57   18.45
   6   0  -1  264.60    7.45
  -6   0  -1  245.11    7.54
   6   0  -1  258.65    7.60
   6   0   1  230.04    7.53
   6   0  -2  501.08   14.42
  -6   0  -2  533.99   14.26
  -6   0  -2  455.50   14.27
   6   0   2  427.96   14.35
  -6   0  -3  146.85    4.20
   6   0   3  138.43    4.25
   6   0  -3  139.96    4.21
   6   0  -3  138.88    4.26
   6   0  -3  142.01    4.21
  -6   0  -3  139.28    4.17
  -6   0  -4  250.77    7.24
   6   0  -4  236.48    7.28
   6   0  -4  239.37    7.25
   6   0   4  241.11    7.31
   6   0  -4  249.56    7.22
   6   0   5   70.82    2.31
   6   0  -5   69.51    2.16
  -6   0  -5   71.12    2.21
   6   0  -5   71.92    2.31
   7   0   0    0.03    0.03
  -7   0   0    0.04    0.03
  -7   0  -1    0.09    0.03
   7   0   1    0.00    0.02
   7   0  -1    0.07    0.03
   7   0  -1    0.02    0.03
  -7   0  -2    0.14    0.04
   7   0  -2    0.04    0.03
   7   0  -2    0.08    0.03
   7   0  -3    0.06    0.08
   7   0  -3    0.04    0.04
   7   0  -3    0.02    0.04
   7   0   3    0.03    0.06
  -7   0  -3    0.04    0.03
  -7   0  -3    0.24    0.06
   7   0   4    0.11    0.10
   7   0  -4   -0.02    0.12
   7   0  -4    0.03    0.05
  -7   0  -4    0.07    0.07
   7   0  -4    0.07    0.06
   7   0  -5    0.02    0.08
   7   0   5   -0.02    0.16
  -7   0  -5    0.06    0.11
   8   0   0    0.24    0.04
   8   0   0    0.36    0.05
  -8   0   0    0.22    0.04
   8   0  -1    0.41    0.06
   8   0   1    0.37    0.07
  -8   0   1    0.34    0.08
  -8   0  -1    0.29    0.07
  -8   0  -2    0.28    0.05
   8   0  -2    0.27    0.05
   8   0  -2    0.16    0.04
   8   0   2    0.22    0.06
  -8   0  -3    0.75    0.07
   8   0   3    0.59    0.10
  -8   0  -3    0.72    0.09
   8   0  -3    0.59    0.09
   8   0  -3    0.66    0.08
   8   0  -4    0.28    0.16
   8   0  -4    0.16    0.07
   8   0  -5    0.34    0.10
   8   0   5    0.46    0.19
   9   0   0    0.05    0.03
   9   0   0    0.01    0.02
   9   0   1    0.18    0.05
   9   0  -1    0.06    0.03
  -9   0   1    0.04    0.03
   9   0  -1   -0.03    0.03
   9   0   1    0.06    0.03
  -9   0  -1    0.04    0.03
  -9   0  -2    0.00    0.03
   9   0  -2    0.10    0.04
   9   0   2    0.00    0.04
   9   0  -2    0.06    0.04
   9   0  -3    0.02    0.04
   9   0   3    0.09    0.06
  -9   0  -3    0.04    0.04
   9   0  -3    0.13    0.05
  -9   0  -3    0.06    0.06
   9   0  -4    0.06    0.06
   9   0  -4   -0.02    0.06
   9   0  -4    0.10    0.16
  10   0   0  406.10   11.96
  10   0   0  404.41   12.27
  10   0   1   85.65    2.62
  10   0   1   89.06    2.68
 -10   0  -1   87.36    2.66
  10   0  -1   87.55    2.68
  10   0  -1   91.42    2.63
 -10   0  -2  297.20    8.87
  10   0   2  289.31    8.92
  10   0  -2  315.27    8.93
 -10   0  -3   60.75    1.80
  10   0  -3   59.39    1.84
  10   0  -3   59.04    1.86
  10   0   3   58.74    1.89
  10   0  -4  164.85    4.92
  10   0  -4  165.28    5.00
  10   0  -4  163.22    4.92
  10   0   4  160.64    4.99
  11   0   0    0.36    0.05
  11   0   0    0.41    0.07
  11   0   1    0.08    0.05
 -11   0  -1    0.08    0.05
  11   0   1    0.10    0.04
  11   0  -1    0.08    0.04
  11   0   2   -0.06    0.05
 -11   0  -2    0.05    0.05
  11   0  -2    0.19    0.05
  11   0   3    0.14    0.08
  11   0  -3    0.05    0.05
  11   0  -3    0.15    0.08
 -11   0  -3    0.16    0.06
  11   0  -4    0.01    0.08
  11   0  -4   -0.01    0.24
  11   0   4    0.03    0.14
 -12   0   0  159.49    4.85
  12   0   0  164.34    4.77
  12   0   1   53.84    1.60
 -12   0  -1   53.67    1.67
  12   0   1   53.86    1.70
  12   0  -1   53.00    1.62
 -12   0   1   53.56    1.69
 -12   0  -2  100.88    3.65
  12   0  -2  130.33    3.58
  12   0   2  124.83    3.77
  12   0   2  120.83    3.54
 -12   0  -3   35.63    1.11
  12   0   3   35.24    1.21
  12   0  -3   35.52    1.14
  12   0  -4   66.33    2.10
  12   0   4   66.77    2.18
  13   0   0    0.06    0.04
 -13   0   0    0.19    0.08
  13   0  -1    0.00    0.05
 -13   0   1    0.10    0.08
 -13   0  -1    0.11    0.07
 -13   0  -2    0.10    0.07
  13   0  -2    0.03    0.05
  13   0   2    0.12    0.08
  13   0   3    0.21    0.12
 -13   0  -3    0.16    0.08
 -14   0   0    5.17    0.28
 -14   0  -1    6.03    0.30
  14   0  -1    6.06    0.24
 -14   0  -2    4.04    0.24
  14   0  -2    4.00    0.19
  14   0  -3    3.64    0.21
  14   0   3    4.70    0.35
 -15   0   0    0.06    0.10
  15   0  -1    0.12    0.08
 -15   0  -1   -0.05    0.09
 -15   0  -2   -0.07    0.10
  15   0  -2    0.06    0.07
 -16   0  -1  129.44    3.93
  16   0  -2  200.90    5.96
   0   1  -1    0.21    0.03
   0   1  -1    0.13    0.01
   0   1   2    0.06    0.03
   0   1  -2    0.07    0.02
   0   1  -2    0.04    0.03
   0   1  -2    0.03    0.01
   0   1  -2    0.05    0.03
   0   1  -3    0.01    0.03
   0  -1  -3    0.03    0.04
   0   1  -3    0.03    0.04
   0  -1   3    0.01    0.05
   0   1  -3    0.12    0.03
   0   1   3    0.02    0.05
   0  -1  -4    0.06    0.04
   0  -1  -4    0.12    0.06
   0  -1  -4   -0.02    0.07
   0   1  -4    0.10    0.03
   0   1  -4    0.10    0.07
   0  -1  -5    0.05    0.07
   0   1  -5    0.00    0.08
   0  -1  -5   -0.03    0.08
   0  -1  -5    0.06    0.05
   1   1   0    0.36    0.02
  -1  -1  -1    1.86    0.09
   1   1  -1    1.82    0.07
   1   1  -1    1.75    0.07
   1   1  -1    1.64    0.08
   1  -1   1    1.65    0.07
  -1  -1   1    1.85    0.07
  -1   1  -1    1.80    0.07
  -1   1  -1    1.95    0.09
   1  -1  -1    1.95    0.08
   1  -1   2    0.46    0.06
  -1  -1  -2    0.42    0.06
  -1   1   2    0.26    0.05
   1   1  -2    0.41    0.04
  -1   1  -2    0.34    0.05
  -1   1  -2    0.42    0.06
  -1   1  -2    0.36    0.03
   1   1   2    0.30    0.06
   1   1  -3    1.20    0.09
  -1  -1  -3    1.36    0.10
  -1  -1  -3    1.23    0.11
   1  -1   3    1.21    0.12
   1   1  -3    1.23    0.09
   1   1  -3    1.11    0.11
   1   1   3    1.15    0.13
   1  -1  -3    1.13    0.11
  -1   1  -3    1.23    0.11
  -1   1  -3    1.14    0.07
   1  -1  -3    1.21    0.08
  -1   1  -3    1.17    0.06
  -1  -1  -4    0.50    0.10
   1   1  -4    0.32    0.09
  -1  -1  -4    0.44    0.07
   1  -1   4    0.33    0.09
   1   1  -4    0.36    0.05
  -1  -1  -4    0.51    0.06
   1   1  -4    0.42    0.06
   1  -1  -4    0.41    0.06
   1   1   4    0.36    0.10
  -1   1  -4    0.36    0.09
   1  -1  -4    0.38    0.09
   1  -1  -4    0.51    0.08
   1   1  -5    0.80    0.14
  -1  -1  -5    0.87    0.09
  -1  -1  -5    0.94    0.11
  -1  -1  -5    0.71    0.14
   1  -1  -5    0.86    0.11
   1  -1  -5    0.74    0.14
  -1   1  -5    1.03    0.15
   1  -1  -5    0.92    0.11
  -2  -1   0   11.94    0.37
   2   1  -1   45.91    1.33
   2   1  -1   43.68    1.34
  -2  -1  -1   42.19    1.33
  -2  -1  -1   46.19    1.32
  -2  -1   1   44.31    1.33
  -2   1  -1   44.17    1.33
   2   1   1   41.64    1.34
  -2   1  -1   45.41    1.32
   2  -1  -1   43.52    1.32
  -2   1  -1   46.90    1.34
   2  -1   2   10.67    0.37
  -2  -1  -2   11.06    0.36
   2   1  -2    9.92    0.36
  -2  -1  -2   10.61    0.36
   2   1  -2   10.22    0.34
   2  -1  -2   10.23    0.38
  -2   1  -2   10.43    0.33
   2   1   2   10.40    0.38
   2  -1  -2   10.67    0.36
  -2   1  -2   11.17    0.37
   2  -1   3   24.17    0.82
  -2  -1  -3   25.33    0.80
   2   1  -3   25.79    0.77
   2   1  -3   23.63    0.79
  -2  -1  -3   24.72    0.78
   2   1  -3   23.98    0.79
  -2   1  -3   24.63    0.81
  -2   1  -3   24.46    0.74
  -2   1  -3   24.71    0.74
   2  -1  -3   23.75    0.81
   2   1   3   25.25    0.85
   2  -1  -3   24.50    0.78
   2   1  -4    7.59    0.26
   2   1  -4    7.46    0.28
  -2  -1  -4    7.69    0.33
  -2  -1  -4    7.22    0.28
   2   1  -4    7.44    0.34
  -2  -1  -4    7.36    0.27
   2  -1   4    7.15    0.35
   2   1  -4    6.96    0.31
   2  -1  -4    7.17    0.28
   2  -1  -4    7.43    0.32
   2   1   4    7.27    0.37
  -2   1  -4    7.28    0.33
  -2  -1  -5   14.19    0.44
   2  -1   5   14.20    0.60
  -2  -1  -5   14.18    0.45
   2   1  -5   13.28    0.58
  -2  -1  -5   13.19    0.55
   2   1   5   14.11    0.63
   2  -1  -5   14.01    0.51
   2  -1  -5   13.74    0.48
  -2   1  -5   13.52    0.57
   2  -1  -5   13.36    0.57
  -3   1   0  201.66    6.46
   3   1   0  231.17    6.41
  -3  -1  -1  114.92    3.53
   3   1  -1  125.51    3.46
   3  -1   1  112.81    3.48
  -3  -1  -1  118.55    3.41
   3   1  -1  118.84    3.54
  -3   1  -1  117.31    3.47
  -3   1  -1  114.05    3.43
   3   1   1  104.82    3.47
   3  -1  -1  114.53    3.53
  -3  -1   1  115.75    3.50
   3   1  -2  136.76    4.27
   3  -1   2  137.45    4.26
  -3  -1  -2  139.81    4.26
   3   1  -2  148.58    4.31
  -3  -1  -2  148.37    4.22
   3   1  -2  147.62    4.22
   3  -1  -2  140.87    4.22
  -3   1  -2  145.38    4.26
  -3   1  -2  138.54    4.23
   3  -1  -2  147.52    4.39
   3  -1  -2  138.47    4.25
   3   1   2  139.65    4.30
  -3  -1  -3   57.46    1.69
   3  -1   3   53.19    1.71
   3   1  -3   54.90    1.66
   3   1  -3   55.45    1.68
  -3  -1  -3   53.60    1.66
   3   1  -3   52.59    1.68
  -3   1  -3   54.28    1.62
  -3   1  -3   54.63    1.62
   3  -1  -3   55.19    1.67
   3  -1  -3   52.63    1.71
  -3   1  -3   56.06    1.70
   3   1   3   57.15    1.74
   3  -1   4   64.01    2.04
   3   1  -4   64.64    1.97
   3   1  -4   64.77    2.00
   3   1  -4   65.52    1.95
  -3  -1  -4   64.18    2.01
  -3  -1  -4   64.18    1.95
   3   1  -4   64.91    2.04
   3  -1  -4   66.78    1.97
   3  -1  -4   62.36    2.01
   3   1   4   64.37    2.07
  -3   1  -4   64.61    2.03
  -3  -1  -5   25.70    0.93
   3   1  -5   26.51    0.97
   3  -1   5   26.27    0.97
   3   1  -5   26.68    0.81
   3   1  -5   27.28    0.82
  -3   1  -5   27.38    0.95
   3  -1  -5   25.02    0.95
   3  -1  -5   27.00    0.86
   4  -1   0  118.91    3.56
  -4  -1   0  114.04    3.52
  -4   1   0  112.75    3.54
   4   1   0  119.80    3.45
   4  -1   1  240.33    8.00
   4   1  -1  291.10    8.00
   4   1  -1  267.32    8.04
  -4  -1  -1  247.57    8.02
  -4  -1  -1  309.06    7.91
  -4   1  -1  273.89    8.00
  -4   1  -1  263.15    7.98
   4  -1  -1  281.36    7.99
   4  -1  -1  257.53    8.04
   4   1   1  239.43    8.01
  -4  -1   1  273.02    8.04
   4  -1   2   73.78    2.29
   4   1  -2   76.04    2.29
  -4  -1  -2   74.84    2.28
  -4  -1  -2   80.43    2.28
   4   1  -2   74.44    2.28
  -4   1  -2   78.39    2.30
   4   1   2   73.80    2.31
  -4   1  -2   77.15    2.27
   4  -1  -2   76.40    2.32
   4  -1  -2   76.47    2.28
   4  -1  -2   76.41    2.29
   4   1  -3  145.79    4.28
  -4  -1  -3  140.12    4.27
  -4  -1  -3  148.34    4.30
   4  -1   3  142.10    4.32
   4   1  -3  136.71    4.31
   4   1  -3  146.19    4.30
   4  -1  -3  145.98    4.29
  -4   1  -3  146.26    4.25
   4  -1  -3  146.94    4.30
  -4   1  -3  146.90    4.32
   4   1   3  141.29    4.35
   4  -1  -3  141.35    4.33
  -4  -1  -4   37.20    1.14
   4   1  -4   37.23    1.18
   4   1  -4   35.34    1.19
   4   1  -4   37.12    1.15
   4  -1   4   37.64    1.24
  -4  -1  -4   37.25    1.19
  -4   1  -4   36.86    1.21
   4  -1  -4   35.60    1.21
   4  -1  -4   37.46    1.16
   4   1   4   37.85    1.27
   4   1  -5   58.73    1.96
  -4  -1  -5   59.09    1.90
   4  -1   5   60.55    1.96
   4   1  -5   60.90    1.80
   4  -1  -5   60.03    1.96
   4   1   5   60.92    1.99
   4  -1  -5   60.88    1.88
  -4   1  -5   57.88    1.92
   4  -1  -5   59.53    1.84
  -5  -1   0    2.23    0.11
  -5   1   0    2.26    0.10
   5   1   0    2.37    0.09
   5  -1   0    2.34    0.11
   5   1   0    2.35    0.11
   5  -1   1    1.63    0.08
   5   1  -1    1.38    0.07
  -5  -1  -1    1.35    0.08
   5   1  -1    1.45    0.08
   5  -1  -1    1.47    0.07
   5  -1  -1    1.41    0.08
   5   1   1    1.33    0.08
  -5   1  -1    1.43    0.08
  -5   1  -1    1.36    0.07
  -5  -1   1    1.30    0.08
  -5  -1  -2    1.75    0.09
   5  -1   2    1.69    0.10
  -5  -1  -2    1.61    0.09
   5   1  -2    1.65    0.10
   5  -1  -2    1.76    0.10
  -5   1  -2    1.67    0.08
   5  -1  -2    1.73    0.10
   5   1   2    1.70    0.12
  -5   1  -2    1.73    0.11
  -5  -1  -3    0.50    0.07
   5   1  -3    0.57    0.07
  -5  -1  -3    0.57    0.08
   5  -1   3    0.54    0.09
   5   1  -3    0.61    0.08
   5   1  -3    0.57    0.09
   5  -1  -3    0.53    0.07
  -5   1  -3    0.49    0.04
   5  -1  -3    0.89    0.13
   5   1   3    0.60    0.10
   5  -1  -3    0.55    0.07
  -5   1  -3    0.50    0.08
   5   1  -4    1.01    0.10
   5  -1   4    0.88    0.14
   5   1  -4    0.89    0.11
  -5  -1  -4    0.94    0.09
  -5  -1  -4    1.12    0.14
   5   1  -4    1.04    0.16
  -5   1  -4    1.01    0.15
   5  -1  -4    0.81    0.15
   5  -1  -4    1.15    0.11
   5   1   4    0.84    0.15
   5  -1   5    0.18    0.15
  -5  -1  -5    0.17    0.11
   5   1  -5    0.06    0.09
   5   1  -5   -0.01    0.06
   5  -1  -5    0.17    0.15
   5   1   5   -0.08    0.14
  -5   1  -5    0.10    0.12
   5  -1  -5    0.22    0.07
   6  -1   0   14.30    0.46
  -6   1   0   13.08    0.45
   6   1   0   13.22    0.46
  -6  -1   0   14.00    0.46
   6   1   0   14.42    0.43
  -6  -1  -1   13.44    0.44
   6   1  -1   12.83    0.45
   6  -1   1   13.83    0.44
   6   1  -1   13.61    0.43
  -6   1  -1   13.17    0.43
  -6  -1   1   13.84    0.45
   6   1   1   12.67    0.45
   6  -1  -1   13.40    0.45
   6  -1  -1   13.43    0.42
  -6  -1  -2    9.91    0.31
   6   1  -2    9.77    0.34
  -6  -1  -2    9.54    0.33
   6   1  -2    9.74    0.34
   6  -1   2    9.49    0.34
   6  -1  -2    8.66    0.34
   6  -1  -2    8.95    0.34
  -6   1  -2    9.58    0.31
   6   1   2    9.19    0.36
  -6   1  -2    9.61    0.33
  -6  -1   2    9.84    0.35
  -6  -1  -3    7.57    0.28
   6  -1   3    7.42    0.32
   6   1  -3    7.68    0.33
   6   1  -3    7.34    0.28
   6   1  -3    7.08    0.29
  -6  -1  -3    7.27    0.27
   6  -1  -3    7.62    0.35
  -6   1  -3    7.12    0.30
  -6   1  -3    7.15    0.24
   6  -1  -3    7.27    0.29
   6   1   3    7.23    0.34
   6  -1  -3    7.51    0.29
   6   1  -4    5.14    0.32
   6   1  -4    5.28    0.23
   6   1  -4    4.85    0.25
   6  -1   4    5.24    0.30
  -6  -1  -4    5.31    0.25
  -6  -1  -4    5.22    0.21
   6  -1  -4    5.06    0.32
   6   1   4    5.69    0.33
   6  -1  -4    5.27    0.24
  -6   1  -4    4.98    0.27
  -6  -1  -5    3.74    0.26
   6   1  -5    3.39    0.19
   6   1  -5    3.19    0.28
   6  -1   5    3.87    0.35
   6   1   5    4.35    0.37
  -6   1  -5    3.70    0.27
   6  -1  -5    3.97    0.23
   7  -1   0   48.90    1.49
  -7   1   0   49.16    1.49
   7   1   0   48.03    1.49
   7  -1   0   47.57    1.45
   7   1   0   49.82    1.46
  -7  -1   0   49.55    1.49
   7   1  -1   76.43    2.35
   7  -1   1   76.94    2.35
  -7   1   1   80.75    2.36
   7   1  -1   79.45    2.33
  -7  -1  -1   77.82    2.34
   7  -1  -1   79.37    2.32
  -7  -1   1   81.53    2.36
   7  -1  -1   78.67    2.35
  -7   1  -1   77.34    2.33
   7   1   1   71.48    2.35
   7   1  -2   33.85    1.06
   7   1  -2   32.87    1.05
   7  -1   2   33.37    1.06
  -7  -1  -2   33.53    1.04
  -7   1  -2   35.15    1.04
   7  -1  -2   33.67    1.04
   7   1   2   32.76    1.07
  -7   1  -2   33.18    1.02
   7  -1  -2   35.00    1.07
  -7  -1   2   32.72    1.07
   7   1  -3   43.58    1.36
   7   1  -3   43.81    1.42
   7  -1   3   42.74    1.39
   7   1  -3   43.87    1.37
  -7  -1  -3   43.89    1.34
  -7  -1  -3   44.93    1.33
   7   1   3   43.49    1.41
   7  -1  -3   44.03    1.38
  -7   1  -3   43.88    1.36
   7  -1  -3   43.35    1.37
  -7   1  -3   43.32    1.31
   7  -1  -3   44.57    1.43
   7   1  -4   17.14    0.63
  -7  -1  -4   17.37    0.56
   7   1  -4   17.07    0.60
   7   1  -4   17.62    0.67
  -7  -1  -4   17.70    0.59
  -7   1  -4   17.50    0.61
   7  -1  -4   17.57    0.61
   7   1   4   16.39    0.70
   7  -1  -4   17.91    0.69
   7   1  -5   18.75    0.84
   7   1  -5   19.27    0.67
   7  -1   5   20.27    0.82
  -7   1  -5   20.11    0.72
   7  -1  -5   19.78    0.70
   7   1   5   20.86    0.85
  -8   1   0   59.63    1.78
   8  -1   0   57.83    1.73
   8   1   0   60.96    1.75
   8  -1   0   57.38    1.78
  -8  -1   0   57.10    1.78
   8   1   0   57.86    1.79
   8   1  -1   63.50    2.00
  -8   1   1   67.51    2.01
   8   1  -1   67.26    1.97
  -8  -1  -1   64.28    1.99
   8  -1   1   66.40    1.95
   8  -1   1   64.01    2.00
  -8   1  -1   64.39    1.98
  -8  -1   1   65.09    2.01
   8  -1  -1   67.66    1.96
   8   1   1   66.74    2.01
   8  -1  -1   66.63    2.01
   8   1  -2   45.18    1.43
   8  -1   2   43.99    1.43
  -8  -1  -2   45.64    1.42
   8   1  -2   46.73    1.42
  -8   1  -2   46.47    1.40
  -8   1  -2   49.07    1.41
   8  -1  -2   46.45    1.41
   8  -1  -2   46.30    1.44
   8   1   2   45.18    1.45
   8  -1   3   42.81    1.39
   8   1  -3   42.78    1.37
  -8  -1  -3   42.89    1.34
  -8  -1  -3   47.68    1.32
   8   1  -3   43.36    1.37
  -8   1  -3   42.16    1.30
  -8   1  -3   42.51    1.36
   8  -1  -3   44.65    1.44
   8  -1  -3   42.73    1.36
   8  -1  -3   43.51    1.38
   8   1   3   43.54    1.42
   8   1  -4   25.67    0.85
  -8  -1  -4   25.54    0.80
   8   1  -4   26.08    0.93
   8  -1   4   25.07    0.92
   8   1  -4   25.19    0.88
  -8  -1  -4   27.34    0.82
   8  -1  -4   26.28    0.96
   8  -1  -4   25.56    0.87
  -8   1  -4   25.65    0.85
   8   1   4   25.51    0.95
   8   1  -5   20.32    0.72
   8   1  -5   20.82    0.84
   8  -1   5   22.31    0.88
   8  -1  -5   19.97    0.73
  -8   1  -5   21.23    0.74
   8   1   5   21.11    0.89
   9  -1   0    5.68    0.25
   9   1   0    5.96    0.25
  -9   1   0    5.86    0.24
  -9  -1   0    6.09    0.25
   9   1   0    6.17    0.22
   9  -1   0    6.32    0.20
  -9  -1  -1    5.30    0.22
   9   1  -1    5.03    0.19
   9  -1   1    5.00    0.18
   9  -1   1    5.01    0.22
   9   1   1    4.78    0.22
   9  -1  -1    4.96    0.22
   9  -1  -1    5.00    0.19
  -9  -1   1    5.04    0.23
  -9   1  -1    5.26    0.21
   9   1  -2    4.95    0.23
  -9  -1  -2    5.16    0.22
   9  -1   2    5.08    0.24
   9   1  -2    5.10    0.21
   9  -1  -2    4.98    0.23
   9   1   2    5.06    0.24
  -9  -1   2    5.25    0.24
   9  -1  -2    5.13    0.21
  -9   1  -2    5.14    0.20
   9   1  -3    3.77    0.20
   9  -1   3    3.92    0.23
  -9  -1  -3    4.17    0.19
   9   1  -3    4.16    0.21
  -9   1  -3    4.12    0.16
  -9   1  -3    4.18    0.21
   9   1   3    4.34    0.25
   9  -1  -3    3.93    0.20
   9  -1  -3    4.03    0.21
   9  -1   4    3.66    0.29
   9   1  -4    4.13    0.23
   9   1  -4    4.56    0.35
   9   1  -4    4.08    0.23
  -9  -1  -4    4.44    0.18
   9  -1  -4    4.15    0.24
  -9   1  -4    4.35    0.22
   9  -1  -4    4.53    0.38
   9   1   4    4.15    0.31
  10  -1   0   82.31    2.59
  10   1   0   85.43    2.60
 -10   1   0   85.10    2.58
 -10  -1   0   84.80    2.59
  10   1   0   88.56    2.54
  10  -1   0   85.58    2.52
  10   1  -1   26.46    0.81
  10  -1   1   25.49    0.85
  10  -1   1   25.21    0.78
 -10  -1  -1   26.60    0.85
  10   1   1   26.94    0.87
 -10  -1   1   27.81    0.91
  10  -1  -1   24.00    0.85
  10   1   1   26.03    0.81
 -10   1  -1   25.77    0.83
  10  -1  -1   26.23    0.80
 -10  -1  -2   66.43    2.00
  10  -1   2   64.62    2.03
  10   1  -2   65.00    2.03
  10   1  -2   66.02    2.00
  10  -1  -2   64.30    1.99
  10   1   2   67.43    2.05
 -10   1  -2   65.80    1.98
  10   1  -3   17.44    0.61
  10  -1   3   17.03    0.65
 -10  -1  -3   17.59    0.58
  10   1   3   17.84    0.67
  10  -1  -3   17.29    0.62
 -10   1  -3   17.56    0.55
  10  -1  -3   17.17    0.60
 -10  -1  -4   35.87    1.11
  10   1  -4   36.60    1.25
  10   1  -4   35.53    1.16
  10  -1   4   34.93    1.22
  10   1  -4   34.39    1.15
  10   1   4   34.67    1.25
  10  -1  -4   34.97    1.16
  10  -1  -4   34.11    1.26
 -11  -1   0    3.21    0.18
  11   1   0    3.41    0.14
  11  -1   0    3.39    0.18
 -11   1   0    3.37    0.18
  11  -1   0    3.39    0.12
 -11  -1  -1    3.14    0.18
  11  -1   1    3.21    0.18
 -11   1  -1    3.09    0.17
  11   1   1    3.11    0.14
  11   1   1    3.24    0.19
  11  -1  -1    2.96    0.13
  11  -1  -1    3.06    0.18
  11   1  -2    2.39    0.14
  11  -1   2    2.56    0.17
  11   1  -2    2.48    0.16
 -11  -1  -2    2.49    0.16
  11   1   2    2.40    0.18
 -11   1  -2    2.39    0.14
  11  -1  -2    2.54    0.13
  11   1  -3    1.99    0.16
  11  -1   3    1.46    0.25
 -11  -1  -3    1.82    0.14
  11   1  -3    1.68    0.13
  11   1   3    1.72    0.20
  11  -1  -3    1.75    0.13
  11   1  -4    1.21    0.25
  11   1  -4    1.16    0.16
  11   1  -4    1.05    0.14
  11  -1   4    1.20    0.19
  11  -1  -4    0.86    0.13
  11   1   4    1.16    0.23
  12  -1   0   22.61    0.69
  12   1   0   23.00    0.71
 -12  -1   0   23.11    0.78
 -12   1   0   23.00    0.77
 -12  -1  -1   26.31    0.86
  12  -1   1   25.89    0.88
 -12   1  -1   25.96    0.85
  12  -1  -1   26.36    0.81
  12   1   1   25.40    0.80
  12   1  -2   18.14    0.60
  12  -1   2   18.16    0.65
  12  -1   2   17.05    0.56
 -12  -1  -2   18.44    0.62
  12   1   2   17.16    0.66
  12   1   2   17.38    0.59
 -12   1  -2   17.87    0.60
  12  -1  -2   18.31    0.59
  12   1  -3   16.77    0.60
  12  -1   3   16.72    0.65
  12  -1  -3   16.96    0.59
  12   1  -4   10.25    0.43
  12   1  -4   10.10    0.44
  12  -1   4   10.33    0.53
  12  -1  -4    9.80    0.45
  12   1   4   10.06    0.55
  13   1   0   62.29    1.85
 -13   1   0   62.01    1.92
 -13  -1   0   60.46    1.92
  13   1  -1   85.11    2.54
 -13  -1  -1   82.77    2.59
  13  -1   1   90.88    2.81
  13   1   1   81.59    2.52
 -13   1  -1   83.15    2.57
  13  -1  -1   82.65    2.52
 -13  -1   1   86.15    2.62
  13   1  -2   49.57    1.51
  13  -1   2   49.08    1.58
 -13  -1  -2   49.11    1.53
  13   1   2   47.26    1.49
  13  -1  -2   50.15    1.50
 -13   1  -2   47.16    1.55
  13   1  -3   54.10    1.73
 -13  -1  -3   56.34    1.71
  13  -1   3   55.72    1.81
  14   1   0    1.28    0.11
 -14  -1   0    1.27    0.17
 -14  -1  -1   80.66    2.53
  14   1  -1   84.67    2.47
 -14  -1   1   79.58    2.55
  14  -1  -1   82.57    2.45
 -14   1  -1   82.84    2.51
  14   1  -2    1.36    0.12
 -14  -1  -2    1.73    0.19
  14  -1  -2    1.48    0.13
  14   1  -3   55.37    1.73
  14  -1   3   56.64    1.85
  14   1   3   53.08    1.72
 -15  -1   0    0.75    0.14
  15   1  -1   12.27    0.42
 -15  -1  -1   11.86    0.49
 -15  -1  -2    0.99    0.15
  15   1  -2    0.89    0.12
  15   1  -3    7.01    0.38
  15   1  -3    7.04    0.31
  15  -1   3    6.66    0.44
  15   1   3    6.79    0.44
 -16  -1  -1    3.52    0.30
  16   1  -1    4.01    0.21
  16   1  -2    5.60    0.26
   0   2   0    7.75    0.25
   0  -2   0    8.09    0.25
   0  -2  -1   20.79    0.72
   0   2  -1   23.73    0.72
   0   2  -1   25.02    0.71
   0  -2   1   23.85    0.69
   0  -2   1   22.20    0.69
   0  -2   2    6.46    0.24
   0   2   2    6.53    0.27
   0  -2  -2    6.49    0.26
   0   2  -2    6.49    0.24
   0   2  -2    6.45    0.20
   0   2  -2    6.70    0.26
   0   2   3   13.69    0.52
   0   2  -3   14.31    0.50
   0   2  -3   13.24    0.47
   0  -2  -3   14.14    0.49
   0  -2   3   13.05    0.48
   0  -2  -4    4.81    0.24
   0  -2  -4    5.21    0.26
   0  -2  -4    4.92    0.21
   0   2  -4    4.72    0.26
   0  -2  -5    8.91    0.41
   0  -2  -5    8.59    0.35
   0   2  -5    7.79    0.40
   0  -2  -5    8.12    0.32
  -1   2   0   13.99    0.43
   1   2   0   13.96    0.43
  -1  -2   0   13.89    0.43
   1   2  -1   25.35    0.88
   1   2  -1   31.42    0.90
   1   2  -1   27.92    0.88
   1   2  -1   30.66    0.89
  -1  -2  -1   30.35    0.91
  -1   2  -1   29.83    0.91
  -1   2  -1   31.13    0.88
  -1  -2   1   30.41    0.88
   1  -2  -1   28.70    0.91
   1   2   1   28.11    0.91
   1  -2   2    9.66    0.34
   1   2  -2    9.87    0.32
   1   2  -2   10.15    0.31
  -1  -2  -2    9.88    0.36
   1   2  -2    9.53    0.34
  -1   2  -2   10.70    0.36
  -1   2  -2   10.15    0.33
   1   2   2   10.09    0.38
   1  -2  -2    9.44    0.36
   1  -2   3   15.57    0.56
   1   2  -3   15.85    0.58
   1   2  -3   16.96    0.52
   1   2  -3   17.01    0.56
   1   2  -3   16.50    0.51
  -1  -2  -3   16.31    0.56
  -1   2  -3   16.74    0.58
  -1   2  -3   16.86    0.55
   1  -2  -3   16.27    0.58
   1   2   3   16.35    0.61
   1   2  -4    5.93    0.30
  -1  -2  -4    6.32    0.29
   1   2  -4    5.98    0.28
   1  -2   4    6.03    0.30
  -1  -2  -4    6.22    0.27
   1   2   4    6.91    0.35
  -1   2  -4    6.17    0.31
   1  -2  -4    6.34    0.26
   1  -2  -4    6.63    0.30
  -1  -2  -5    9.06    0.35
   1   2  -5    8.88    0.43
  -1  -2  -5    9.32    0.34
  -1  -2  -5    9.06    0.42
   1  -2  -5    8.87    0.42
   1  -2  -5    9.30    0.35
  -1   2  -5    8.90    0.43
  -2   2   0   30.60    0.93
   2   2   0   28.88    0.93
   2   2   0   32.75    0.92
   2   2   0   30.82    0.93
  -2  -2   0   31.68    0.93
   2   2  -1   33.99    1.02
   2  -2   1   33.67    1.01
  -2  -2  -1   35.16    1.05
   2   2  -1   33.84    1.03
  -2   2  -1   34.31    1.05
   2   2   1   33.44    1.05
  -2   2  -1   34.51    1.02
  -2  -2   1   34.18    1.03
  -2  -2  -2   18.30    0.61
   2   2  -2   17.50    0.59
   2   2  -2   18.97    0.60
   2  -2   2   18.84    0.59
   2   2  -2   18.79    0.57
   2   2   2   18.94    0.63
   2  -2  -2   18.63    0.62
  -2   2  -2   18.51    0.59
  -2   2  -2   18.83    0.62
   2   2  -3   15.43    0.50
   2   2  -3   15.54    0.55
   2   2  -3   15.69    0.53
   2  -2   3   15.42    0.54
  -2  -2  -3   15.51    0.52
  -2  -2  -3   14.24    0.54
   2   2  -3   15.53    0.48
   2  -2  -3   14.95    0.55
  -2   2  -3   15.20    0.52
   2  -2  -3   15.81    0.52
   2   2   3   15.21    0.58
  -2   2  -3   15.32    0.55
  -2  -2  -4    8.65    0.33
   2   2  -4    8.47    0.35
   2   2  -4    8.38    0.38
   2   2  -4    8.75    0.28
   2   2  -4    8.64    0.29
   2  -2   4    8.62    0.38
  -2  -2  -4    8.80    0.36
   2  -2  -4    8.83    0.33
  -2   2  -4    8.84    0.39
   2   2   4    8.56    0.42
   2   2  -5    6.67    0.37
  -2  -2  -5    6.68    0.35
  -2  -2  -5    6.97    0.27
  -2  -2  -5    6.96    0.28
   2  -2  -5    6.88    0.34
   2   2   5    6.99    0.44
   2  -2  -5    6.88    0.36
   2  -2  -5    6.79    0.29
  -2   2  -5    6.69    0.36
   3   2   0   12.63    0.38
   3   2   0   11.34    0.38
   3  -2   0   12.14    0.38
   3  -2   1   16.81    0.51
   3   2  -1   17.29    0.52
   3   2  -1   16.61    0.52
  -3  -2  -1   16.85    0.53
   3   2   1   15.69    0.54
  -3   2  -1   17.23    0.54
  -3  -2   1   15.93    0.52
   3   2  -2    7.05    0.25
   3  -2   2    7.28    0.26
   3   2  -2    7.02    0.26
  -3  -2  -2    7.70    0.25
  -3  -2  -2    7.27    0.27
   3   2  -2    6.74    0.27
  -3   2  -2    7.57    0.25
   3   2   2    7.12    0.29
  -3  -2   2    7.22    0.26
  -3   2  -2    7.55    0.29
   3  -2  -2    7.06    0.29
   3  -2   3    7.40    0.31
  -3  -2  -3    7.69    0.29
   3   2  -3    7.38    0.30
  -3  -2  -3    7.80    0.30
   3   2  -3    7.45    0.29
   3   2  -3    7.56    0.26
  -3   2  -3    7.87    0.32
   3  -2  -3    7.32    0.33
   3  -2  -3    7.57    0.29
   3   2   3    7.54    0.35
  -3  -2  -4    3.04    0.17
   3   2  -4    2.79    0.18
   3   2  -4    3.16    0.22
   3  -2   4    3.17    0.22
   3   2  -4    3.13    0.13
   3   2  -4    3.14    0.15
  -3  -2  -4    3.14    0.19
   3  -2  -4    3.00    0.22
   3   2   4    3.44    0.26
  -3   2  -4    2.76    0.21
   3  -2  -4    2.99    0.17
   3   2  -5    2.96    0.25
  -3  -2  -5    3.18    0.24
   3  -2   5    2.88    0.29
  -3  -2  -5    3.10    0.16
  -3  -2  -5    3.04    0.18
   3  -2  -5    3.26    0.19
   3   2   5    2.92    0.32
   3  -2  -5    3.21    0.27
   3  -2  -5    2.90    0.24
  -3   2  -5    3.00    0.25
   4   2   0   34.87    1.08
   4  -2   0   34.96    1.07
  -4  -2   0   36.34    1.08
   4   2  -1  108.57    3.25
   4   2  -1  115.70    3.23
   4  -2   1  109.51    3.32
  -4  -2  -1  109.67    3.30
   4  -2  -1  114.47    3.22
  -4   2  -1  108.85    3.24
  -4  -2   1  106.52    3.24
   4   2   1  100.77    3.25
  -4   2  -1  108.73    3.26
   4  -2  -1  108.06    3.33
   4   2  -2   24.44    0.75
  -4  -2  -2   24.80    0.74
   4  -2   2   23.61    0.75
  -4  -2  -2   24.46    0.76
   4   2  -2   21.55    0.77
   4  -2  -2   24.05    0.75
  -4   2  -2   25.14    0.78
   4   2   2   24.45    0.79
  -4  -2   2   23.86    0.76
   4  -2  -2   23.14    0.79
   4  -2  -2   24.63    0.77
   4   2  -3   58.01    1.74
   4  -2   3   56.88    1.78
   4   2  -3   54.58    1.77
  -4  -2  -3   57.08    1.76
  -4  -2  -3   60.82    1.76
   4  -2  -3   57.90    1.77
   4   2   3   57.50    1.83
  -4   2  -3   58.14    1.80
   4  -2  -3   57.84    1.81
   4   2  -4   12.68    0.44
   4   2  -4   11.81    0.47
   4   2  -4   12.22    0.41
  -4  -2  -4   12.12    0.43
  -4  -2  -4   12.62    0.47
   4   2  -4   12.32    0.51
   4  -2   4   12.10    0.50
  -4   2  -4   11.72    0.49
   4   2   4   12.19    0.54
   4  -2  -4   12.21    0.51
   4  -2  -4   12.07    0.44
   4   2  -5   21.87    0.87
  -4  -2  -5   22.79    0.81
  -4  -2  -5   23.23    0.72
   4  -2   5   23.32    0.86
  -4   2  -5   22.06    0.85
   4  -2  -5   22.44    0.83
   4   2   5   23.68    0.92
   4  -2  -5   23.58    0.80
   5   2   0   45.69    1.39
   5   2   0   47.81    1.37
   5  -2   0   43.36    1.38
  -5  -2   0   44.81    1.38
   5  -2   1  145.78    4.57
   5   2  -1  159.34    4.54
  -5  -2  -1  145.47    4.58
   5   2  -1  163.23    4.69
  -5  -2   1  159.43    4.65
  -5   2  -1  144.68    4.49
   5  -2  -1  153.20    4.48
  -5   2  -1  143.84    4.54
   5  -2  -1  151.29    4.65
   5   2  -2   36.64    1.11
  -5  -2  -2   35.83    1.08
  -5  -2  -2   35.21    1.11
   5   2  -2   36.47    1.11
   5  -2   2   34.50    1.11
  -5   2  -2   36.07    1.13
  -5  -2   2   35.79    1.12
   5  -2  -2   35.33    1.10
   5   2   2   36.40    1.15
   5  -2  -2   36.78    1.12
   5   2  -3   65.93    2.09
  -5  -2  -3   69.12    2.07
   5  -2   3   68.39    2.09
   5   2  -3   66.92    2.08
  -5  -2  -3   70.39    2.06
   5   2  -3   68.47    2.06
  -5   2  -3   68.88    2.10
   5  -2  -3   64.62    2.13
   5   2   3   69.56    2.14
   5  -2  -3   68.99    2.08
  -5  -2  -4   19.66    0.65
   5   2  -4   19.98    0.65
   5   2  -4   19.09    0.70
  -5  -2  -4   20.14    0.68
   5   2  -4   20.58    0.68
   5  -2  -4   19.70    0.68
   5   2   4   20.24    0.78
   5  -2  -4   20.04    0.75
  -5   2  -4   19.53    0.71
   5  -2   5   17.91    0.73
   5   2  -5   18.27    0.57
  -5  -2  -5   17.76    0.66
  -5  -2  -5   18.20    0.57
   5   2  -5   17.89    0.74
  -5   2  -5   17.39    0.70
   5  -2  -5   18.47    0.64
   5  -2  -5   18.18    0.72
   6  -2   0   35.14    1.08
   6   2   0   36.42    1.07
  -6  -2   0   34.88    1.09
  -6   2   0   35.03    1.08
   6   2   0   34.47    1.09
   6   2  -1   30.93    0.99
  -6  -2  -1   31.58    0.99
   6  -2   1   32.38    0.99
   6   2  -1   33.72    0.98
   6   2   1   30.77    1.00
   6  -2  -1   33.18    0.97
  -6  -2   1   31.48    1.00
  -6   2  -1   32.48    0.99
   6  -2  -1   31.37    1.00
  -6   2  -1   31.52    0.97
  -6  -2  -2   25.88    0.72
  -6  -2  -2   23.77    0.77
   6   2  -2   24.24    0.77
   6   2  -2   24.00    0.77
   6  -2   2   23.84    0.76
  -6   2  -2   24.13    0.77
  -6   2  -2   23.35    0.72
   6   2   2   23.07    0.79
   6  -2  -2   23.90    0.76
   6  -2  -2   24.00    0.78
  -6  -2   2   24.02    0.78
   6  -2   3   20.59    0.70
  -6  -2  -3   20.44    0.68
   6   2  -3   20.18    0.67
  -6  -2  -3   20.94    0.65
   6   2  -3   20.81    0.72
   6  -2  -3   21.07    0.75
   6   2   3   20.27    0.74
   6  -2  -3   21.33    0.70
  -6   2  -3   20.46    0.70
  -6  -2  -4    5.78    0.24
   6   2  -4    6.17    0.31
   6   2  -4    5.45    0.27
   6   2  -4    5.44    0.24
   6  -2   4    5.50    0.31
  -6   2  -4    5.41    0.29
   6  -2  -4    5.76    0.35
   6   2   4    6.53    0.37
   6  -2  -4    6.28    0.27
   6  -2   5   12.22    0.57
   6   2  -5   11.90    0.41
   6   2  -5   11.49    0.72
  -6  -2  -5   12.29    0.50
   6   2   5   11.97    0.61
   6  -2  -5   11.97    0.46
  -6   2  -5   11.55    0.51
   6  -2  -5   10.98    0.58
  -7   2   0   72.54    2.19
   7   2   0   73.76    2.20
  -7  -2   0   71.84    2.20
   7  -2   0   69.90    2.19
   7   2   0   76.16    2.18
  -7  -2  -1   81.64    2.47
   7   2  -1   85.39    2.46
   7   2  -1   78.65    2.47
   7  -2   1   80.28    2.47
   7   2   1   77.96    2.48
  -7  -2   1   85.20    2.48
  -7   2  -1   81.97    2.45
   7  -2  -1   85.44    2.48
   7  -2  -1   83.19    2.44
  -7  -2  -2   54.46    1.63
   7  -2   2   50.98    1.63
   7   2  -2   54.52    1.63
   7   2  -2   54.32    1.63
   7  -2  -2   50.56    1.64
  -7   2  -2   53.17    1.58
   7   2   2   52.52    1.66
  -7   2  -2   55.01    1.62
  -7  -2  -3   48.54    1.50
   7   2  -3   49.07    1.52
   7   2  -3   49.12    1.56
   7  -2   3   46.86    1.53
   7   2  -3   48.47    1.51
  -7  -2  -3   50.93    1.46
   7   2   3   47.98    1.57
   7  -2  -3   49.18    1.53
   7  -2  -3   49.25    1.58
  -7   2  -3   48.30    1.51
  -7  -2  -4   27.74    0.89
   7   2  -4   28.05    0.90
   7   2  -4   27.03    0.94
   7   2  -4   27.92    0.97
   7  -2   4   27.88    0.98
  -7  -2  -4   28.35    0.88
   7   2   4   28.51    1.02
  -7   2  -4   28.11    0.94
   7  -2  -4   28.61    0.94
   7  -2  -4   28.42    1.01
   7   2  -5   24.84    0.83
   7   2  -5   23.14    0.93
   7  -2   5   23.43    0.92
   7   2   5   24.67    0.98
  -7   2  -5   24.10    0.85
   7  -2  -5   23.14    0.82
   8   2   0    3.19    0.14
  -8   2   0    3.07    0.15
  -8  -2   0    3.04    0.16
   8   2   0    3.16    0.16
   8  -2   0    3.16    0.15
   8   2  -1    5.09    0.21
  -8  -2  -1    4.58    0.20
   8   2  -1    4.71    0.19
   8  -2   1    4.61    0.20
   8  -2  -1    4.42    0.20
   8  -2  -1    4.52    0.17
  -8   2  -1    4.53    0.18
   8   2   1    4.59    0.21
   8   2  -2    2.49    0.13
   8  -2   2    2.56    0.14
   8   2  -2    2.31    0.14
  -8   2  -2    2.23    0.10
   8   2   2    2.50    0.16
   8  -2  -2    2.46    0.12
   8  -2  -2    2.47    0.15
   8   2  -3    2.83    0.17
  -8  -2  -3    3.43    0.17
   8   2  -3    2.58    0.16
   8  -2   3    2.95    0.19
  -8   2  -3    2.95    0.17
   8  -2  -3    2.78    0.17
   8  -2  -3    2.66    0.24
   8   2   3    2.95    0.21
   8  -2   4    1.38    0.19
   8   2  -4    1.42    0.13
   8   2  -4    1.22    0.17
   8   2  -4    1.20    0.14
  -8  -2  -4    1.12    0.13
   8  -2  -4    1.43    0.15
   8   2   4    1.39    0.21
  -8   2  -4    1.40    0.15
   8  -2  -4    1.36    0.21
   8  -2   5    0.70    0.22
   8   2  -5    1.00    0.18
   8   2   5    1.34    0.26
  -8   2  -5    1.26    0.17
   8  -2  -5    1.33    0.20
  -9   2   0    0.13    0.04
   9   2   0    0.23    0.04
   9   2   0    0.18    0.05
   9  -2   0    0.18    0.05
  -9  -2   0    0.11    0.04
   9   2  -1   44.42    1.43
   9   2  -1   47.42    1.40
  -9  -2  -1   45.68    1.43
   9  -2   1   45.72    1.43
   9   2   1   43.35    1.43
   9  -2  -1   47.30    1.44
  -9   2  -1   46.42    1.40
  -9  -2   1   45.74    1.44
   9   2   1   47.46    1.40
  -9  -2  -2    0.12    0.05
   9   2  -2    0.09    0.04
   9   2  -2    0.06    0.04
  -9   2  -2    0.14    0.03
   9   2   2    0.07    0.05
   9  -2  -2    0.09    0.04
   9  -2  -2    0.07    0.04
   9   2  -3   26.94    0.90
   9   2  -3   26.18    0.90
   9  -2   3   26.88    0.92
  -9  -2  -3   27.62    0.88
   9   2   3   28.13    0.96
  -9   2  -3   28.80    0.89
  -9  -2  -4    0.20    0.07
   9  -2   4    0.19    0.13
   9   2  -4    0.16    0.16
   9   2  -4    0.19    0.07
   9   2  -4    0.28    0.08
  -9   2  -4    0.25    0.09
   9  -2  -4    0.37    0.18
   9   2   4    0.18    0.12
   9  -2  -4    0.38    0.09
  10  -2   0    8.56    0.34
  10   2   0    8.18    0.34
 -10  -2   0    8.62    0.34
  10   2   0    8.64    0.30
 -10  -2  -1    2.31    0.14
  10  -2   1    2.31    0.14
  10   2  -1    2.03    0.14
  10  -2  -1    2.18    0.10
 -10  -2   1    2.01    0.15
  10   2   1    2.38    0.15
  10  -2  -1    2.06    0.14
 -10   2  -1    2.15    0.12
  10   2   1    2.34    0.16
  10   2  -2    7.10    0.30
  10   2  -2    7.48    0.29
 -10  -2  -2    7.22    0.30
  10  -2   2    7.55    0.31
  10  -2  -2    7.07    0.27
 -10   2  -2    7.26    0.26
  10   2   2    6.78    0.32
  10   2  -3    0.74    0.10
  10  -2   3    0.41    0.10
  10   2  -3    0.50    0.08
 -10   2  -3    0.66    0.10
  10   2   3    0.47    0.12
  10  -2   4    5.07    0.34
  10   2  -4    5.75    0.41
  10   2  -4    5.24    0.26
  10   2  -4    5.00    0.27
 -10  -2  -4    5.20    0.25
  10  -2  -4    5.63    0.51
 -10   2  -4    5.67    0.27
  10   2   4    4.93    0.37
  11   2   0   10.45    0.35
  11  -2   0   10.56    0.40
 -11  -2   0    9.60    0.39
 -11  -2  -1    6.95    0.29
  11  -2   1    6.15    0.29
  11   2  -1    6.52    0.25
  11  -2  -1    6.50    0.23
 -11   2  -1    6.65    0.27
  11   2   1    7.26    0.26
  11  -2   2    9.14    0.37
  11   2  -2    8.91    0.37
 -11  -2  -2    9.02    0.36
  11   2  -2    8.79    0.34
  11   2   2    8.83    0.39
  11  -2  -2    9.14    0.33
  11   2  -3    2.40    0.16
  11   2  -3    2.23    0.17
  11  -2   3    2.00    0.19
 -11  -2  -3    2.56    0.17
  11   2  -4    5.67    0.30
  11  -2   4    6.36    0.39
  11   2  -4    5.57    0.47
  11   2  -4    6.11    0.31
  11  -2  -4    6.12    0.33
  11   2   4    6.68    0.42
 -12  -2   0    2.28    0.17
  12   2   0    2.33    0.12
  12   2  -1   62.68    1.90
  12  -2   1   64.10    1.96
 -12  -2  -1   61.69    1.95
  12   2   1   61.17    1.89
  12  -2  -1   64.36    1.88
  12   2  -2    2.55    0.15
  12  -2   2    2.68    0.19
 -12  -2  -2    2.17    0.17
  12   2   2    2.69    0.16
 -12  -2  -3   40.41    1.27
  12   2  -3   40.00    1.29
  12  -2   4    3.37    0.34
  12   2  -4    2.81    0.21
  12   2  -4    2.56    0.23
  12  -2  -4    2.38    0.24
  13   2   0   16.90    0.53
 -13  -2   0   15.28    0.59
  13   2  -1   21.02    0.65
  13  -2   1   16.99    0.75
 -13  -2  -1   20.99    0.71
  13   2   1   20.49    0.64
  13  -2   2   13.24    0.52
 -13  -2  -2   13.51    0.50
  13   2   2   12.80    0.46
 -13  -2  -3   14.81    0.55
  13  -2   3   15.22    0.61
  13   2  -3   13.88    0.54
 -14  -2   0    1.92    0.20
  14   2   0    2.02    0.13
  14   2  -1    0.03    0.05
 -14  -2  -1    0.21    0.09
 -14  -2   1   -0.13    0.10
  14   2   1   -0.02    0.06
 -14  -2  -2    1.23    0.19
  14   2  -2    1.32    0.13
  14  -2   2    1.68    0.19
  14   2   2    1.29    0.14
  14  -2   3    0.25    0.13
  14   2  -3    0.12    0.10
  14   2   3    0.04    0.10
  15   2   0    1.43    0.18
 -15  -2   0    1.58    0.21
  15   2  -1    2.48    0.15
 -15  -2  -1    2.30    0.24
 -15  -2  -2    1.60    0.24
  15   2  -2    1.55    0.14
  15  -2   2    1.58    0.23
  15   2  -3    1.04    0.15
  15   2  -3    1.24    0.14
  15  -2   3    1.07    0.20
  15   2   3    1.34    0.22
  16   2  -1   10.00    0.37
  16  -2   2   10.05    0.50
  16   2  -2   10.26    0.40
   0  -3   0   -0.02    0.02
   0   3  -1    0.10    0.03
   0   3  -1    0.23    0.05
   0   3  -2    0.02    0.02
   0  -3   2   -0.02    0.02
   0   3   2   -0.04    0.04
   0  -3  -2   -0.03    0.04
   0  -3   3    0.01    0.04
   0   3   3    0.03    0.06
   0  -3  -3    0.00    0.05
   0   3  -3    0.05    0.05
   0   3  -3    0.04    0.03
   0   3  -4    0.05    0.06
   0   3  -4    0.00    0.05
   0  -3  -4   -0.02    0.09
   0  -3  -5   -0.01    0.08
   0  -3  -5   -0.02    0.07
   0  -3  -5    0.10    0.11
   0   3  -5    0.03    0.09
   1   3   0   40.83    1.18
   1   3   0   37.35    1.18
  -1   3   0   39.58    1.18
  -1  -3   0   38.82    1.18
   1   3   0   39.49    1.18
   1   3  -1   72.61    2.11
   1   3  -1   76.44    2.13
  -1  -3  -1   64.96    2.13
  -1  -3   1   71.42    2.13
   1   3   1   69.31    2.14
  -1   3  -1   72.95    2.13
   1  -3  -1   67.70    2.13
   1  -3   2   25.06    0.77
  -1   3   2   23.27    0.82
  -1  -3  -2   25.93    0.81
   1   3  -2   24.53    0.78
   1   3   2   24.24    0.82
  -1   3  -2   25.10    0.81
  -1  -3   2   25.96    0.77
   1  -3  -2   24.28    0.81
  -1   3  -2   25.75    0.78
  -1  -3  -3   35.17    1.10
   1  -3   3   33.12    1.07
   1   3  -3   34.32    1.11
   1  -3  -3   33.71    1.11
  -1   3  -3   35.43    1.11
   1   3   3   33.69    1.14
  -1   3  -3   33.35    1.07
  -1  -3  -4   13.36    0.49
   1   3  -4   12.81    0.49
  -1  -3  -4   13.01    0.52
   1   3  -4   12.97    0.52
   1  -3   4   12.52    0.49
   1  -3  -4   12.73    0.50
   1  -3  -4   13.97    0.47
   1   3   4   12.66    0.55
  -1   3  -4   13.41    0.52
  -1   3  -4   13.24    0.48
  -1  -3  -5   15.63    0.56
  -1  -3  -5   15.48    0.53
  -1  -3  -5   15.10    0.59
   1   3  -5   14.14    0.61
   1  -3  -5   15.54    0.54
   1  -3  -5   15.02    0.58
   1  -3  -5   14.40    0.60
  -1   3  -5   14.88    0.62
   2   3   0  141.17    4.68
   2   3   0  168.42    4.70
  -2   3   0  163.35    4.73
  -2  -3   0  145.98    4.72
   2   3   0  163.59    4.68
  -2  -3  -1   37.62    1.16
   2   3  -1   36.76    1.12
   2   3  -1   39.06    1.14
   2   3  -1   38.11    1.15
  -2  -3   1   37.65    1.13
  -2   3  -1   37.05    1.16
  -2   3  -1   38.38    1.12
   2   3   1   36.44    1.16
   2  -3   2   94.45    2.80
   2   3  -2   88.41    2.79
  -2  -3  -2   96.24    2.84
   2   3  -2   95.55    2.81
   2   3  -2   97.22    2.84
  -2   3  -2   94.94    2.81
   2   3   2   96.05    2.87
  -2  -3   2   97.07    2.83
   2  -3  -2   91.41    2.85
  -2   3  -2   92.02    2.84
  -2  -3  -3   17.41    0.56
   2   3  -3   16.66    0.51
  -2  -3  -3   16.63    0.58
   2   3  -3   15.86    0.56
   2   3  -3   17.20    0.51
   2   3  -3   16.66    0.59
   2  -3   3   16.31    0.57
   2   3   3   16.37    0.63
  -2   3  -3   16.60    0.56
  -2   3  -3   17.30    0.60
   2  -3  -3   16.02    0.60
   2   3  -4   40.34    1.29
  -2  -3  -4   41.78    1.28
  -2  -3  -4   42.34    1.30
   2  -3   4   39.76    1.30
   2   3  -4   38.88    1.33
   2   3   4   40.18    1.37
   2  -3  -4   39.60    1.31
   2  -3  -4   40.24    1.27
  -2   3  -4   39.22    1.32
  -2  -3  -5    9.83    0.36
  -2  -3  -5    9.23    0.42
   2   3  -5    8.85    0.45
  -2   3  -5    9.03    0.44
   2  -3  -5    9.58    0.44
   2  -3  -5    9.66    0.38
   2  -3  -5    9.19    0.44
  -3   3   0  226.14    6.93
  -3  -3   0  217.71    6.96
   3   3   0  233.09    6.88
   3   3   0  220.49    6.96
   3   3   0  255.29    6.93
   3   3  -1  529.71   15.01
  -3  -3  -1  498.93   15.14
  -3  -3   1  596.23   15.07
   3   3   1  456.98   15.10
  -3   3  -1  442.79   15.06
   3  -3   2  153.70    4.57
   3   3  -2  143.33    4.55
  -3  -3  -2  161.64    4.50
  -3  -3  -2  148.90    4.53
   3   3  -2  161.89    4.57
   3   3  -2  146.26    4.54
  -3  -3   2  165.38    4.64
   3  -3  -2  151.38    4.55
  -3   3  -2  152.84    4.50
  -3   3  -2  148.62    4.55
   3   3   2  141.30    4.56
   3   3  -3  324.39    9.76
  -3  -3  -3  340.69    9.66
   3   3  -3  343.55    9.66
   3   3  -3  311.08    9.65
  -3  -3  -3  327.18    9.77
   3   3  -3  350.10    9.79
   3  -3   3  309.11    9.65
   3  -3  -3  316.10    9.64
   3   3   3  314.52    9.67
  -3   3  -3  303.81    9.63
   3  -3  -3  337.08    9.80
  -3   3  -3  321.78    9.69
  -3  -3  -4   75.09    2.27
  -3  -3  -4   76.72    2.29
   3   3  -4   77.40    2.30
   3   3  -4   70.73    2.34
   3   3   4   73.60    2.38
   3  -3  -4   72.96    2.33
   3  -3  -4   75.68    2.28
  -3   3  -4   73.54    2.33
   3   3  -5  140.47    4.37
  -3  -3  -5  143.36    4.24
  -3  -3  -5  147.03    4.23
  -3  -3  -5  140.70    4.30
   3  -3   5  143.44    4.32
   3   3   5  145.54    4.42
  -3   3  -5  134.38    4.34
   3  -3  -5  137.34    4.30
   3  -3  -5  143.43    4.27
   4  -3   0    4.20    0.15
   4   3   0    3.96    0.16
   4   3  -1    9.09    0.30
  -4  -3  -1    8.88    0.31
   4   3  -1    9.31    0.30
   4  -3   1    8.70    0.28
  -4   3  -1    8.71    0.31
  -4  -3   1    8.62    0.30
  -4   3  -1    8.91    0.28
   4   3   1    8.38    0.32
  -4  -3  -2    3.08    0.12
   4  -3   2    2.78    0.12
  -4  -3  -2    2.84    0.15
   4   3  -2    2.86    0.12
   4   3  -2    2.63    0.13
   4   3   2    2.61    0.17
  -4  -3   2    2.78    0.13
   4  -3  -2    2.66    0.16
  -4   3  -2    2.93    0.16
  -4   3  -2    3.05    0.12
  -4  -3  -3    4.80    0.22
   4   3  -3    4.97    0.22
  -4  -3  -3    5.36    0.21
   4   3  -3    4.59    0.22
   4  -3   3    5.61    0.23
   4   3  -3    4.97    0.19
   4  -3  -3    4.62    0.22
   4  -3  -3    5.23    0.28
  -4   3  -3    4.78    0.25
   4   3   3    4.81    0.27
   4   3  -4    1.41    0.16
   4  -3   4    1.65    0.18
   4   3  -4    1.83    0.09
   4   3  -4    1.86    0.11
  -4  -3  -4    1.68    0.14
   4   3  -4    1.82    0.14
  -4  -3  -4    1.76    0.15
   4   3   4    1.90    0.22
   4  -3  -4    1.52    0.14
  -4   3  -4    2.00    0.19
   4  -3  -4    2.13    0.23
   4   3  -5    2.39    0.19
   4   3  -5    2.17    0.22
  -4  -3  -5    2.37    0.16
   4  -3   5    2.45    0.32
  -4  -3  -5    2.78    0.23
   4  -3  -5    2.29    0.32
  -4   3  -5    2.49    0.24
   4   3   5    2.85    0.33
   4  -3  -5    2.55    0.19
   5   3   0   22.77    0.71
   5  -3   0   23.23    0.71
   5   3   0   22.88    0.72
  -5  -3   0   21.63    0.71
  -5  -3  -1    1.01    0.08
   5  -3   1    0.98    0.06
   5   3  -1    0.82    0.06
  -5  -3   1    0.99    0.07
   5  -3  -1    1.00    0.07
   5   3   1    1.08    0.08
  -5   3  -1    1.14    0.08
  -5  -3  -2   15.38    0.52
   5  -3   2   15.20    0.50
   5   3  -2   15.59    0.50
   5   3  -2   16.25    0.52
   5   3   2   15.04    0.55
   5  -3  -2   15.84    0.52
  -5  -3   2   15.72    0.52
  -5   3  -2   14.00    0.55
   5   3  -3    0.99    0.11
  -5  -3  -3    0.80    0.09
   5   3  -3    0.81    0.07
   5  -3   3    0.69    0.10
   5   3  -3    0.75    0.09
  -5  -3  -3    0.85    0.09
   5  -3  -3    0.64    0.09
   5   3   3    1.08    0.14
  -5   3  -3    0.68    0.11
   5  -3  -3    0.62    0.10
   5   3  -4    7.65    0.38
   5   3  -4    8.01    0.35
   5   3  -4    8.00    0.28
  -5  -3  -4    7.50    0.37
  -5  -3  -4    7.97    0.32
   5  -3   4    8.45    0.37
   5   3  -4    8.35    0.32
   5   3   4    8.05    0.50
   5  -3  -4    7.95    0.33
  -5   3  -4    7.73    0.37
   5  -3  -4    7.84    0.41
   5  -3   5    0.58    0.17
   5   3  -5    0.60    0.11
   5   3  -5    0.55    0.15
  -5  -3  -5    0.83    0.15
   5   3   5    0.27    0.18
  -5   3  -5    0.62    0.14
   5  -3  -5    0.49    0.20
   5  -3  -5    0.70    0.11
   6  -3   0   20.23    0.66
   6   3   0   21.10    0.66
  -6  -3   0   20.70    0.67
   6   3   0   20.88    0.67
  -6  -3  -1    3.66    0.17
   6   3  -1    3.70    0.16
   6  -3   1    3.75    0.15
   6  -3  -1    3.56    0.17
  -6   3  -1    3.95    0.17
   6   3   1    3.74    0.18
  -6  -3   1    3.56    0.17
   6   3  -2   13.82    0.48
  -6  -3  -2   14.02    0.49
   6  -3   2   14.10    0.47
   6   3  -2   14.28    0.47
   6  -3  -2   14.89    0.50
  -6  -3   2   14.60    0.49
  -6   3  -2   13.38    0.52
   6   3   2   14.37    0.52
  -6  -3  -3    1.70    0.12
   6   3  -3    1.54    0.10
   6   3  -3    1.59    0.12
   6   3  -3    1.51    0.15
   6  -3   3    1.74    0.13
  -6  -3  -3    1.60    0.09
   6  -3  -3    1.67    0.13
   6   3   3    1.73    0.17
  -6   3  -3    1.61    0.14
   6  -3  -3    1.53    0.18
   6   3  -4    5.42    0.27
  -6  -3  -4    5.54    0.24
  -6  -3  -4    5.40    0.25
   6   3  -4    5.73    0.27
   6   3  -4    5.12    0.30
   6   3  -4    5.41    0.22
   6  -3   4    5.60    0.29
   6  -3  -4    5.54    0.35
   6  -3  -4    4.56    0.29
   6   3   4    5.71    0.35
  -6   3  -4    5.33    0.29
   6   3  -5    0.46    0.11
   6  -3   5    0.63    0.16
  -6   3  -5    0.47    0.14
   6   3   5    0.67    0.21
   6  -3  -5    0.52    0.11
   6  -3  -5    0.52    0.21
   7  -3   0   96.80    2.89
  -7  -3   0   99.43    2.91
   7   3   0   89.63    2.90
   7   3   0  100.85    2.88
   7   3  -1  113.96    3.26
   7   3  -1  110.62    3.27
   7  -3   1  108.41    3.26
  -7  -3  -1  112.28    3.28
  -7   3  -1  108.82    3.27
   7   3   1  101.67    3.28
  -7  -3   1  108.43    3.28
   7  -3  -1  110.93    3.28
  -7  -3  -2   74.47    2.24
   7  -3   2   71.18    2.22
   7   3  -2   73.31    2.23
   7   3  -2   71.46    2.23
   7   3   2   73.99    2.27
  -7   3  -2   75.42    2.24
   7  -3  -2   76.25    2.25
  -7  -3  -3   66.12    1.99
   7   3  -3   62.72    2.00
   7   3  -3   64.43    1.97
   7  -3   3   61.77    1.99
   7   3  -3   66.46    2.02
   7  -3  -3   66.98    2.06
   7   3   3   64.88    2.05
  -7   3  -3   66.11    2.00
   7  -3  -3   64.25    2.00
   7   3  -4   39.49    1.34
  -7  -3  -4   36.93    1.30
   7   3  -4   40.10    1.28
   7  -3   4   38.86    1.30
   7   3  -4   39.21    1.29
   7   3  -4   40.29    1.23
   7  -3  -4   39.98    1.27
   7  -3  -4   39.80    1.36
   7   3   4   41.07    1.38
  -7   3  -4   38.92    1.29
   7   3  -5   29.10    1.08
   7   3  -5   32.73    1.17
   7  -3   5   31.72    1.14
  -7   3  -5   31.29    1.09
   7  -3  -5   32.13    1.06
   7  -3  -5   32.57    1.40
   8   3   0  311.39    9.72
   8   3   0  332.39    9.56
   8  -3   0  308.54    9.70
  -8  -3   0  335.73    9.75
  -8  -3  -1  106.81    3.23
   8  -3   1  107.39    3.21
   8   3  -1  104.00    3.22
   8   3  -1  111.76    3.20
   8   3   1  107.83    3.24
  -8  -3   1  105.02    3.23
   8  -3  -1  108.50    3.23
   8   3  -2  234.12    6.89
   8  -3   2  213.68    6.77
   8   3  -2  227.66    6.77
  -8  -3  -2  230.66    6.78
  -8   3  -2  235.11    6.77
   8   3   2  227.64    6.81
   8  -3  -2  230.80    6.79
   8   3  -3   61.62    1.93
   8   3  -3   62.95    1.96
   8  -3   3   61.87    1.95
   8  -3  -3   62.42    1.96
  -8   3  -3   64.41    1.95
   8  -3  -3   66.19    2.02
   8   3   3   63.16    2.01
   8  -3   4  110.85    3.46
   8   3  -4  112.76    3.44
   8   3  -4  113.25    3.39
   8   3  -4  112.58    3.45
  -8   3  -4  114.62    3.43
   8  -3  -4  113.78    3.52
   8  -3   5   30.48    1.14
   8   3  -5   30.72    1.09
   8   3  -5   31.83    1.17
   8  -3  -5   32.26    1.07
  -8   3  -5   31.65    1.07
   8   3   5   32.18    1.23
   9   3   0   23.60    0.76
   9   3   0   23.67    0.73
  -9  -3   0   20.64    0.78
   9  -3   0   23.12    0.75
   9   3  -1  398.23   12.15
   9  -3   1  390.54   12.12
   9   3  -1  411.64   12.19
   9   3   1  420.98   12.01
   9  -3  -1  385.20   12.07
  -9  -3   1  424.28   12.16
   9   3   1  389.84   12.20
   9  -3   2   19.06    0.67
  -9  -3  -2   21.14    0.69
   9   3  -2   19.84    0.67
   9   3  -2   19.15    0.67
  -9   3  -2   21.62    0.67
   9  -3  -2   19.42    0.71
   9   3   2   19.98    0.71
   9   3  -3  244.26    7.29
  -9  -3  -3  237.17    7.29
   9   3  -3  239.25    7.31
   9  -3   3  238.13    7.31
   9   3   3  238.62    7.37
  -9   3  -3  251.38    7.29
   9  -3  -3  271.70    7.42
  -9  -3  -4   15.22    0.53
   9   3  -4   14.15    0.56
   9   3  -4   14.81    0.61
   9  -3   4   13.34    0.58
   9   3  -4   14.03    0.52
  -9   3  -4   15.04    0.54
   9  -3  -4   15.03    0.68
  10   3   0   13.66    0.46
 -10  -3   0   13.73    0.50
  10  -3   0   13.74    0.49
  10  -3   1    5.32    0.24
  10   3  -1    5.39    0.24
  10   3  -1    5.24    0.21
 -10  -3  -1    5.40    0.24
  10   3   1    5.23    0.22
 -10  -3   1    5.12    0.25
  10  -3  -1    5.10    0.24
  10   3   1    5.01    0.25
  10   3  -2    9.39    0.36
 -10  -3  -2    9.34    0.37
  10  -3   2    9.31    0.37
  10   3  -2    9.84    0.37
  10   3  -3    2.73    0.17
 -10  -3  -3    2.46    0.18
  10   3  -3    2.75    0.17
  10  -3   3    2.44    0.21
 -10   3  -3    2.96    0.18
  10   3   3    2.86    0.23
  10   3  -4    3.91    0.24
  10  -3   4    4.30    0.30
  10   3  -4    4.53    0.36
 -10  -3  -4    4.08    0.24
  10   3  -4    3.83    0.23
  10   3   4    4.28    0.50
 -10   3  -4    4.27    0.25
 -11  -3   0    0.83    0.11
  11   3   0    0.56    0.08
  11  -3   0    0.67    0.09
  11   3   0    0.96    0.11
  11  -3   1    0.09    0.04
 -11  -3  -1    0.06    0.06
  11   3   1    0.08    0.05
  11   3  -2    0.70    0.10
 -11  -3  -2    0.57    0.09
  11   3  -2    0.44    0.07
  11  -3   2    0.57    0.09
  11   3  -3    0.08    0.06
 -11  -3  -3    0.09    0.08
  11   3  -3    0.13    0.06
  11  -3   3    0.05    0.08
  11  -3   4    0.39    0.15
  11   3  -4    0.19    0.08
  11   3  -4    0.41    0.22
  11   3  -4    0.25    0.09
  11  -3  -4    0.21    0.15
 -11   3  -4    0.21    0.12
  12  -3   0   12.57    0.52
 -12  -3   0   13.54    0.50
  12   3   0   12.78    0.44
  12   3  -1   14.80    0.51
 -12  -3  -1   15.43    0.56
  12  -3   1   15.21    0.55
 -12  -3  -2   10.52    0.42
  12   3  -2   10.04    0.41
  12   3  -2    9.94    0.38
  12  -3   2   10.20    0.42
  12   3   2    9.97    0.38
 -12  -3  -3    9.72    0.40
  12   3  -3    9.53    0.40
  12   3  -3    9.47    0.39
  12  -3   3    9.34    0.43
  12   3  -4    5.63    0.30
  12  -3   4    5.30    0.41
  12   3  -4    5.38    0.30
  12   3   4    6.25    0.44
  12  -3  -4    6.01    0.34
  13   3   0  108.21    3.26
 -13  -3   0  110.22    3.34
  13   3  -1   59.99    1.84
 -13  -3  -1   61.26    1.89
  13   3   1   58.93    1.83
  13   3  -2   88.55    2.65
 -13  -3  -2   87.95    2.68
  13  -3   2   86.14    2.69
  13   3   2   85.82    2.64
 -13  -3  -3   42.28    1.35
  13   3  -3   42.32    1.36
  13   3  -3   42.29    1.37
  13  -3   3   41.55    1.40
  14   3   0   13.62    0.46
 -14  -3   0   12.92    0.53
 -14  -3  -1    1.61    0.20
  14   3   1    1.81    0.14
  14  -3   2   11.81    0.50
 -14  -3  -2   11.85    0.49
  14   3  -2   11.70    0.44
  14   3   2   11.47    0.43
  14  -3   3    1.76    0.26
  14   3  -3    1.69    0.20
  14   3  -3    1.83    0.17
  14   3   3    1.90    0.18
  15   3   0   35.15    1.10
 -15  -3  -1   48.01    1.59
  15   3  -1   50.44    1.52
  15   3   1   48.92    1.50
  15   3  -2   28.52    0.92
 -15  -3  -2   26.76    0.97
  15  -3   2   28.64    1.00
  15   3   2   27.70    0.90
  15   3  -3   32.31    1.15
  15   3  -3   34.78    1.12
  15  -3   3   34.16    1.21
  15   3   3   33.72    1.09
  16   3   0    0.12    0.08
  16   3  -1    0.12    0.08
  16   3  -2    0.19    0.09
  17   3  -1    4.55    0.23
   0  -4   0  116.34    3.57
   0   4   0  121.62    3.52
   0   4  -1   13.35    0.44
   0   4  -1   12.44    0.41
   0  -4   2   77.70    2.20
   0  -4   2   73.09    2.21
   0   4  -2   73.40    2.26
   0   4   2   71.71    2.28
   0   4  -2   72.55    2.23
   0  -4  -2   77.19    2.27
   0   4  -3    5.02    0.25
   0   4   3    5.38    0.28
   0  -4   3    5.03    0.22
   0   4  -3    5.22    0.22
   0  -4  -3    5.26    0.26
   0  -4  -4   31.51    1.05
   0   4  -4   32.30    1.03
   0   4  -4   30.63    1.07
   0  -4  -5    3.43    0.28
   0  -4  -5    3.15    0.31
   0   4  -5    3.73    0.27
   0  -4  -5    3.87    0.26
  -1   4   0  192.78    5.66
   1   4   0  203.07    5.63
  -1  -4   0  165.53    5.61
   1   4   0  178.98    5.63
   1   4   0  197.70    5.59
   1   4  -1  432.63   12.46
  -1  -4  -1  371.19   12.49
   1   4  -1  467.52   12.39
   1  -4  -1  407.61   12.53
   1   4   1  369.59   12.48
  -1   4  -1  381.97   12.40
  -1   4  -1  469.43   12.43
  -1  -4   1  428.34   12.32
   1   4  -2  125.18    3.80
   1   4  -2  130.59    3.78
  -1  -4  -2  125.08    3.81
  -1   4   2  120.14    3.82
  -1   4  -2  124.69    3.81
  -1   4  -2  129.94    3.77
   1   4   2  125.96    3.83
   1  -4  -2  126.98    3.81
  -1  -4   2  134.04    3.81
  -1  -4  -3  237.34    7.03
   1  -4   3  230.08    7.04
   1   4  -3  228.02    7.04
   1   4  -3  240.24    7.09
   1   4   3  241.19    7.08
  -1   4  -3  247.75    7.04
  -1   4  -3  227.45    7.04
   1  -4  -3  238.48    7.05
  -1  -4  -4   63.14    1.93
   1   4  -4   61.17    1.91
   1   4  -4   59.23    1.95
   1  -4   4   60.28    1.94
  -1   4  -4   60.41    1.95
  -1   4  -4   62.00    1.91
   1  -4  -4   61.81    1.94
   1   4   4   63.12    2.00
  -1  -4  -5   99.12    3.14
   1   4  -5   98.50    3.19
  -1  -4  -5  103.09    3.11
  -1  -4  -5  107.43    3.09
   1  -4  -5   99.38    3.13
  -1   4  -5  100.36    3.19
   1  -4  -5  105.58    3.10
   1  -4  -5  101.81    3.15
   2   4   0    1.06    0.06
  -2  -4   0    0.94    0.07
   2   4   0    0.94    0.07
  -2   4   0    1.00    0.07
   2   4  -1    1.29    0.08
  -2  -4  -1    1.38    0.09
   2   4  -1    1.26    0.07
   2   4  -1    1.27    0.06
  -2  -4   1    1.14    0.06
  -2   4  -1    1.15    0.09
  -2   4  -1    1.16    0.07
   2   4   1    1.28    0.09
   2  -4  -1    1.26    0.09
  -2  -4  -2    0.38    0.06
   2   4  -2    0.49    0.07
   2   4  -2    0.54    0.07
   2   4   2    0.42    0.08
  -2   4  -2    0.43    0.08
  -2  -4   2    0.46    0.05
  -2   4  -2    0.54    0.05
   2  -4  -2    0.47    0.07
   2   4  -3    0.76    0.11
   2   4  -3    0.82    0.08
   2  -4   3    0.77    0.09
  -2  -4  -3    0.75    0.11
  -2   4  -3    0.71    0.08
   2  -4  -3    0.71    0.12
   2   4   3    0.78    0.12
  -2   4  -3    0.77    0.11
  -2  -4  -4    0.23    0.09
   2   4  -4    0.09    0.08
   2   4  -4    0.15    0.06
   2  -4   4    0.19    0.07
  -2  -4  -4    0.12    0.07
  -2   4  -4    0.17    0.06
   2  -4  -4    0.20    0.06
   2  -4  -4    0.14    0.09
   2   4   4    0.37    0.12
  -2   4  -4    0.11    0.07
  -2  -4  -5    0.35    0.12
   2   4  -5    0.25    0.10
  -2  -4  -5    0.25    0.08
   2   4  -5    0.26    0.09
  -2  -4  -5    0.27    0.11
   2  -4  -5    0.11    0.08
  -2   4  -5    0.34    0.13
   2  -4  -5    0.18    0.14
   3   4   0    0.97    0.07
  -3   4   0    1.07    0.07
   3   4   0    1.08    0.06
  -3  -4   0    1.05    0.07
  -3  -4  -1    0.45    0.06
   3   4  -1    0.52    0.04
   3   4  -1    0.50    0.05
   3   4  -1    0.54    0.06
   3   4   1    0.48    0.07
  -3  -4   1    0.48    0.04
   3   4  -2    0.74    0.07
  -3  -4  -2    0.96    0.09
   3   4  -2    0.70    0.05
   3   4  -2    0.76    0.06
  -3  -4   2    0.83    0.06
  -3   4  -2    0.75    0.10
   3  -4  -2    0.59    0.09
  -3   4  -2    0.72    0.06
   3   4   2    0.70    0.10
   3  -4   3    0.35    0.06
   3   4  -3    0.36    0.03
   3   4  -3    0.41    0.07
   3   4  -3    0.27    0.07
  -3  -4  -3    0.44    0.07
   3   4  -3    0.37    0.04
  -3  -4  -3    0.36    0.07
   3   4   3    0.30    0.09
  -3   4  -3    0.41    0.07
  -3   4  -3    0.38    0.09
   3  -4  -3    0.43    0.10
   3   4  -4    0.38    0.10
   3   4  -4    0.52    0.09
  -3  -4  -4    0.57    0.10
   3  -4   4    0.45    0.09
  -3  -4  -4    0.47    0.09
   3   4   4    0.67    0.17
   3  -4  -4    0.48    0.08
   3  -4  -4    0.33    0.12
  -3   4  -4    0.58    0.12
   3  -4   5    0.21    0.12
  -3  -4  -5    0.14    0.11
   3   4  -5    0.05    0.09
  -3  -4  -5    0.31    0.12
   3   4  -5    0.22    0.09
   3  -4  -5    0.12    0.16
   3  -4  -5    0.32    0.09
  -3   4  -5    0.29    0.12
  -4   4   0    0.83    0.07
   4   4   0    0.62    0.06
   4   4   0    0.74    0.06
   4   4   0    0.74    0.06
  -4  -4  -1    4.81    0.20
   4  -4   1    4.89    0.16
   4   4  -1    4.85    0.20
   4   4  -1    4.86    0.19
  -4  -4   1    4.80    0.19
  -4   4  -1    4.58    0.20
   4   4   1    4.77    0.21
   4   4  -2    0.54    0.08
  -4  -4  -2    0.50    0.05
   4   4  -2    0.47    0.05
   4  -4   2    0.61    0.05
  -4  -4  -2    0.56    0.08
   4   4  -2    0.32    0.05
   4   4   2    0.53    0.09
  -4   4  -2    0.56    0.05
  -4   4  -2    0.43    0.08
   4  -4  -2    0.31    0.06
   4   4  -3    2.45    0.17
   4  -4   3    2.58    0.15
   4   4  -3    2.55    0.13
  -4  -4  -3    2.80    0.17
   4   4  -3    2.57    0.15
  -4  -4  -3    2.70    0.14
   4   4  -3    2.62    0.11
  -4   4  -3    2.65    0.14
   4  -4  -3    2.57    0.15
  -4   4  -3    2.46    0.18
   4   4   3    2.53    0.21
   4  -4  -3    2.50    0.20
   4   4  -4    0.11    0.07
   4  -4   4    0.08    0.08
   4   4  -4    0.02    0.05
  -4  -4  -4    0.07    0.07
  -4  -4  -4    0.13    0.08
   4  -4  -4    0.26    0.12
   4   4   4    0.09    0.14
  -4   4  -4    0.14    0.09
   4  -4  -4    0.23    0.07
   4   4  -5    1.24    0.19
   4   4  -5    1.17    0.15
  -4  -4  -5    1.36    0.20
   4  -4   5    1.23    0.17
  -4   4  -5    1.12    0.18
   4  -4  -5    1.22    0.22
   4  -4  -5    1.14    0.17
  -5  -4   0  639.09   18.60
   5   4   0  706.04   18.50
   5   4   0  545.38   18.50
   5   4   0  632.84   18.40
   5  -4   0  582.67   18.47
   5   4  -1  359.24    9.46
   5   4  -1  304.31    9.39
  -5  -4  -1  310.44    9.49
   5  -4   1  313.69    9.35
   5   4   1  307.82    9.50
  -5  -4   1  322.72    9.41
  -5   4  -1  276.54    9.27
  -5   4  -1  309.50    9.21
   5  -4   2  492.77   14.89
   5   4  -2  518.62   14.95
  -5  -4  -2  490.34   15.07
   5   4  -2  543.63   15.07
   5   4   2  467.09   14.97
  -5   4  -2  468.61   15.03
  -5   4  -2  507.60   14.85
  -5  -4   2  534.73   15.02
   5  -4  -2  484.73   15.02
   5   4  -3  183.80    5.46
   5   4  -3  173.60    5.40
  -5  -4  -3  182.45    5.43
   5   4  -3  186.30    5.41
   5   4  -3  192.07    5.43
   5  -4   3  177.27    5.40
  -5  -4  -3  188.21    5.37
   5  -4  -3  180.88    5.47
   5  -4  -3  175.60    5.42
   5   4   3  184.64    5.49
  -5   4  -3  176.02    5.45
   5   4  -4  260.89    7.50
  -5  -4  -4  255.91    7.57
  -5  -4  -4  267.71    7.54
   5  -4   4  249.46    7.59
   5   4  -4  254.78    7.51
   5   4  -4  254.29    7.65
   5   4  -4  247.37    7.60
   5  -4  -4  252.77    7.65
   5   4   4  259.46    7.70
  -5   4  -4  247.18    7.63
   5  -4   5   88.15    2.68
   5   4  -5   86.29    2.68
   5   4  -5   81.01    2.83
   5  -4  -5   81.18    2.70
  -5   4  -5   86.90    2.70
   5  -4  -5   88.61    2.63
   6  -4   0   33.96    1.10
   6   4   0   35.84    1.11
   6   4   0   36.45    1.11
  -6  -4   0   36.64    1.12
   6   4  -1   57.71    1.74
  -6  -4  -1   58.47    1.75
   6  -4   1   57.54    1.72
   6   4  -1   58.96    1.74
   6   4   1   53.53    1.75
  -6  -4   1   58.39    1.74
   6  -4  -1   55.75    1.74
   6  -4   2   23.44    0.75
  -6  -4  -2   24.00    0.79
   6   4  -2   24.25    0.77
   6   4  -2   24.39    0.78
  -6  -4   2   24.54    0.78
   6  -4  -2   24.73    0.79
  -6   4  -2   23.38    0.80
   6   4   2   24.27    0.82
   6   4  -3   31.10    0.99
   6   4  -3   30.96    0.95
   6   4  -3   30.08    0.98
   6  -4   3   30.39    0.97
  -6   4  -3   29.80    1.01
   6  -4  -3   30.43    1.04
   6   4   3   30.61    1.05
   6  -4  -3   30.54    0.99
   6   4  -4   11.73    0.39
  -6  -4  -4   11.61    0.44
   6   4  -4   11.63    0.41
   6   4  -4   11.02    0.46
   6  -4   4   11.11    0.46
   6   4  -4   10.88    0.49
  -6   4  -4   11.16    0.48
   6  -4  -4   11.16    0.45
   6   4   4   13.51    0.73
   6  -4  -4   11.30    0.54
   6  -4   5   11.55    0.68
   6   4  -5   12.21    0.62
   6   4  -5   12.95    0.54
   6  -4  -5   13.26    0.52
  -6   4  -5   13.40    0.57
   6  -4  -5   12.88    0.67
   6   4   5   13.71    0.67
  -7  -4   0   33.95    1.09
   7  -4   0   36.91    1.08
   7   4   0   32.61    1.09
   7   4   0   35.18    1.07
   7   4  -1   66.39    1.99
  -7  -4  -1   66.32    2.01
   7   4  -1   64.67    2.00
   7  -4   1   67.11    1.99
  -7  -4   1   64.52    2.01
  -7   4  -1   67.82    2.00
   7   4   1   62.93    2.02
   7  -4  -1   66.93    2.01
  -7  -4  -2   27.50    0.86
   7   4  -2   25.23    0.84
   7  -4   2   25.96    0.83
   7   4  -2   27.19    0.84
   7   4   2   26.62    0.89
  -7  -4   2   25.47    0.85
  -7   4  -2   26.24    0.86
   7  -4  -2   25.87    0.86
   7   4  -3   40.91    1.26
   7   4  -3   40.52    1.30
  -7  -4  -3   40.97    1.29
   7  -4   3   39.59    1.28
   7   4  -3   40.84    1.30
  -7  -4   3   40.17    1.30
   7  -4  -3   42.23    1.31
  -7   4  -3   39.70    1.30
   7   4   3   40.28    1.35
   7  -4  -3   41.47    1.35
   7   4  -4   15.61    0.51
   7   4  -4   14.43    0.57
   7   4  -4   15.23    0.55
  -7  -4  -4   15.52    0.55
   7   4  -4   13.96    0.61
   7  -4   4   15.31    0.58
  -7   4  -4   14.60    0.58
   7  -4  -4   16.06    0.67
   7  -4   5   18.67    0.76
   7   4  -5   18.55    0.72
   7   4  -5   18.08    0.78
   7   4   5   20.05    0.86
  -7   4  -5   19.00    0.73
   7  -4  -5   18.61    0.70
   8   4   0    0.24    0.05
  -8  -4   0    0.22    0.05
   8   4   0    0.32    0.06
   8  -4   0    0.14    0.04
   8   4  -1    3.54    0.18
  -8  -4  -1    3.72    0.19
   8  -4   1    3.97    0.17
   8   4  -1    3.88    0.18
   8  -4  -1    3.92    0.19
   8   4   1    3.97    0.20
   8  -4   2    0.14    0.04
   8   4  -2    0.14    0.04
   8   4  -2    0.22    0.05
  -8  -4  -2    0.20    0.06
   8  -4  -2    0.19    0.05
  -8   4  -2    0.18    0.06
   8   4   2    0.17    0.06
   8   4  -3    1.87    0.14
   8   4  -3    2.00    0.13
  -8  -4  -3    1.82    0.15
   8  -4   3    1.87    0.15
  -8   4  -3    1.89    0.15
   8   4   3    2.14    0.20
  -8  -4   3    1.72    0.16
   8  -4  -3    1.97    0.22
   8   4  -4    0.18    0.12
   8   4  -4    0.09    0.05
   8   4  -4    0.09    0.08
  -8  -4  -4    0.06    0.08
   8  -4   4    0.11    0.10
   8   4  -4    0.08    0.07
   8  -4  -4    0.15    0.18
  -8   4  -4    0.08    0.09
   8   4  -5    0.66    0.16
   8   4  -5    0.64    0.16
   8  -4   5    0.46    0.19
  -8   4  -5    0.86    0.16
   8   4   5    0.66    0.25
   8  -4  -5    0.74    0.15
  -9  -4   0    1.60    0.12
   9  -4   0    1.57    0.11
   9   4   0    1.65    0.11
   9   4   0    1.82    0.12
   9  -4   1   49.85    1.51
   9   4  -1   48.75    1.50
  -9  -4  -1   50.60    1.53
   9   4  -1   48.10    1.52
   9  -4  -1   50.18    1.53
   9   4   1   46.38    1.52
  -9  -4   1   48.85    1.53
   9   4   1   48.17    1.54
  -9  -4  -2    1.50    0.14
   9   4  -2    1.65    0.12
   9   4  -2    1.41    0.11
   9  -4   2    1.59    0.11
  -9   4  -2    1.77    0.13
   9   4   2    1.37    0.18
   9   4  -3   28.77    0.97
   9  -4   3   29.99    0.99
   9   4  -3   28.94    0.95
  -9  -4  -3   30.21    0.97
   9  -4  -3   29.54    1.05
  -9   4  -3   28.95    0.97
   9  -4   4    1.42    0.20
   9   4  -4    1.30    0.15
   9   4  -4    1.41    0.18
   9   4  -4    1.25    0.18
  -9  -4  -4    1.76    0.19
   9   4  -4    1.22    0.13
  -9   4  -4    1.63    0.18
  10   4   0  149.05    4.31
  10   4   0  138.88    4.34
  10  -4   0  145.62    4.33
  10   4  -1   28.66    0.91
  10   4  -1   27.62    0.94
  10  -4   1   29.10    0.93
 -10  -4  -1   28.52    0.94
  10  -4  -1   28.76    0.95
  10   4   1   29.86    0.92
  10   4   1   27.23    0.95
 -10  -4   1   29.20    0.95
 -10  -4  -2  112.79    3.31
  10   4  -2  111.36    3.29
  10  -4   2  104.40    3.29
  10   4  -2  108.18    3.30
  10  -4   3   17.62    0.64
  10   4  -3   17.28    0.63
 -10  -4  -3   18.35    0.64
  10   4  -3   17.40    0.62
 -10   4  -3   17.71    0.62
  10   4  -4   51.43    1.70
  10   4  -4   52.85    1.65
  10   4  -4   51.05    1.76
  10   4  -4   54.21    1.72
 -10  -4  -4   51.84    1.66
 -10   4  -4   55.69    1.68
  11  -4   0  199.36    6.04
  11   4   0  205.82    6.01
  11   4  -1  273.52    8.10
  11   4  -1  270.35    8.06
  11  -4   1  263.90    8.08
 -11  -4  -1  271.71    8.10
 -11  -4   1  271.06    8.11
  11   4   1  284.17    8.06
  11   4  -2  156.01    4.76
 -11  -4  -2  160.27    4.77
  11   4  -2  162.68    4.76
  11  -4   2  156.60    4.76
 -11  -4  -3  175.87    5.25
  11  -4   3  175.16    5.27
  11   4  -3  177.46    5.26
  11   4  -3  172.35    5.24
  11   4  -4   84.81    2.97
  11   4  -4   92.26    2.87
  11   4  -4   95.32    2.83
  11  -4   4   91.02    2.89
 -11   4  -4   99.54    2.84
  12  -4   0   17.51    0.63
  12   4  -1    0.66    0.09
  12  -4   1    0.79    0.11
 -12  -4  -1    0.44    0.09
  12   4   1    0.83    0.10
  12   4  -2   12.84    0.48
  12  -4   2   12.32    0.49
  12   4  -2   13.04    0.49
 -12  -4  -2   13.34    0.51
  12   4   2   12.91    0.47
  12  -4   3    0.22    0.12
  12   4  -3    0.38    0.09
  12   4  -3    0.11    0.08
 -12  -4  -3    0.29    0.11
  12   4  -4    5.79    0.31
  12  -4   4    5.44    0.39
  12   4  -4    5.71    0.37
  12   4  -4    5.79    0.32
  12   4   4    6.20    0.47
  13   4   0   10.17    0.38
 -13  -4   0   10.78    0.45
 -13  -4  -1   12.43    0.50
  13   4   1   12.69    0.45
  13   4  -2    8.33    0.35
 -13  -4  -2    8.59    0.39
  13  -4   2    8.29    0.38
  13   4   2    8.79    0.35
  13   4  -3    8.49    0.38
  13  -4   3    8.48    0.42
  13   4  -3    8.62    0.37
 -13  -4  -3    8.47    0.41
  14   4   0    1.85    0.14
 -14  -4   0    1.94    0.21
 -14  -4  -1    0.31    0.12
  14   4  -1    0.59    0.09
  14   4   1    0.77    0.10
 -14  -4  -2    1.37    0.18
  14  -4   2    1.48    0.19
  14   4   2    1.53    0.16
  14   4  -3    0.09    0.11
  14  -4   3    0.18    0.14
  14   4  -3    0.18    0.09
  14   4   3    0.16    0.10
  15   4   0   79.76    2.42
  15   4  -1   37.50    1.19
  15   4   1   37.30    1.18
  15   4  -2   67.88    2.06
  15  -4   2   65.89    2.12
  15   4   2   65.13    2.03
  16   4   0   34.98    1.11
  16   4  -1    1.95    0.16
  16   4   1    1.94    0.17
  16   4  -2   29.37    1.01
  16  -4   2   29.64    1.09
  16   4   2   32.88    1.11
  17   4   0   36.70    1.18
  17   4  -1   66.71    2.01
  17  -4   1   64.19    2.12
   0   5   0   -0.29    0.02
   0  -5   0   -0.30    0.02
   0   5   0   -0.22    0.03
   0  -5  -1   -0.21    0.03
   0   5   1   -0.23    0.03
   0   5  -1   -0.19    0.02
   0   5  -1   -0.24    0.03
   0   5  -2   -0.08    0.03
   0  -5   2   -0.07    0.02
   0  -5  -2   -0.12    0.04
   0  -5   2   -0.12    0.02
   0   5   2   -0.06    0.04
   0   5  -3    0.11    0.05
   0  -5  -3    0.08    0.09
   0   5  -3    0.12    0.07
   0   5   3    0.01    0.07
   0   5  -4   -0.02    0.06
   0   5  -4    0.09    0.05
   0  -5  -4    0.15    0.09
   0  -5  -5    0.05    0.11
   0  -5  -5    0.09    0.08
   0  -5  -5    0.03    0.14
   0   5  -5    0.06    0.09
   1   5   0   71.41    2.05
   1   5   0   65.40    2.05
  -1  -5   0   65.18    2.05
   1   5   0   71.05    2.06
  -1   5   0   70.18    2.06
   1   5  -1  156.97    4.60
  -1  -5  -1  150.81    4.68
   1   5  -1  167.70    4.65
  -1  -5   1  166.71    4.64
  -1   5  -1  154.93    4.61
  -1   5  -1  162.12    4.57
   1   5   1  134.45    4.60
   1  -5  -1  144.05    4.59
  -1  -5  -2   43.83    1.41
   1   5  -2   46.54    1.41
   1  -5   2   45.57    1.33
   1  -5   2   43.91    1.33
  -1   5  -2   44.71    1.37
  -1   5  -2   46.28    1.41
   1   5   2   42.03    1.42
   1  -5  -2   44.96    1.41
  -1  -5   2   45.28    1.34
   1   5  -3   81.46    2.52
   1   5  -3   82.14    2.48
   1  -5   3   78.79    2.45
  -1   5  -3   80.68    2.52
   1   5   3   84.12    2.56
  -1   5  -3   82.38    2.48
   1  -5  -3   83.05    2.53
   1   5  -4   20.88    0.73
   1   5  -4   20.09    0.77
  -1  -5  -4   21.66    0.76
   1  -5  -4   21.68    0.78
  -1   5  -4   21.28    0.72
  -1   5  -4   20.11    0.77
  -1  -5  -5   35.03    1.13
   1   5  -5   31.51    1.18
   1   5  -5   32.49    1.12
  -1  -5  -5   34.19    1.13
   1  -5  -5   34.58    1.10
  -1   5  -5   31.45    1.16
   1  -5  -5   33.47    1.15
  -2   5   0   40.35    1.25
   2   5   0   40.51    1.25
   2   5   0   41.87    1.25
  -2  -5   0   41.60    1.26
   2   5  -1  120.25    3.38
   2   5  -1  114.83    3.40
  -2  -5  -1  108.83    3.40
  -2  -5   1  118.66    3.43
  -2   5  -1  117.83    3.36
  -2   5  -1  113.51    3.41
   2   5   1  106.86    3.41
   2  -5  -1  108.67    3.39
   2   5  -2   28.61    0.88
  -2  -5  -2   26.86    0.91
   2   5  -2   28.99    0.91
  -2  -5   2   27.84    0.85
   2  -5  -2   26.80    0.91
   2   5   2   26.75    0.93
  -2   5  -2   28.58    0.92
  -2   5  -2   27.83    0.86
   2  -5   3   60.47    1.86
   2   5  -3   63.12    1.89
   2   5  -3   58.58    1.92
   2   5   3   60.90    1.97
  -2   5  -3   60.51    1.93
  -2   5  -3   63.60    1.88
   2  -5  -3   63.11    1.94
   2   5  -4   14.07    0.57
   2   5  -4   13.88    0.53
  -2  -5  -4   14.01    0.55
   2  -5   4   14.30    0.51
  -2  -5  -4   15.32    0.52
  -2   5  -4   14.33    0.52
  -2   5  -4   13.80    0.57
   2  -5  -4   14.49    0.58
   2   5  -5   26.88    0.99
   2   5  -5   26.61    0.93
  -2  -5  -5   26.25    0.92
  -2  -5  -5   26.54    0.92
  -2   5  -5   25.63    0.97
   2  -5  -5   26.58    0.97
   2  -5  -5   26.99    0.90
  -3   5   0   66.41    2.07
   3   5   0   68.25    2.06
   3   5   0   66.84    2.06
  -3  -5   0   69.28    2.07
   3   5   0   70.85    2.05
   3   5  -1  132.12    3.97
   3   5  -1  135.39    3.91
   3   5  -1  134.53    3.92
  -3  -5  -1  131.79    3.93
  -3   5  -1  127.77    3.93
  -3   5  -1  129.57    3.88
   3   5   1  124.95    3.93
  -3  -5   1  134.17    3.92
  -3  -5  -2   51.94    1.61
   3   5  -2   52.83    1.58
   3   5  -2   52.57    1.53
   3   5  -2   49.51    1.54
   3  -5   2   49.25    1.53
  -3   5  -2   52.83    1.56
   3   5   2   52.47    1.64
  -3  -5   2   51.39    1.56
  -3   5  -2   50.50    1.62
   3  -5  -2   52.51    1.62
   3   5  -3   58.36    1.82
   3   5  -3   60.98    1.79
  -3  -5  -3   52.23    1.85
   3  -5   3   58.52    1.76
  -3   5  -3   56.47    1.83
   3  -5  -3   58.55    1.83
   3   5   3   57.89    1.86
  -3   5  -3   59.05    1.77
  -3  -5  -4   29.78    0.92
   3   5  -4   26.84    0.94
   3   5  -4   27.13    0.98
   3  -5   4   29.01    0.93
  -3  -5  -4   28.06    0.95
   3  -5  -4   28.88    0.94
  -3   5  -4   28.33    0.92
   3  -5  -4   27.54    0.99
  -3   5  -4   26.79    0.98
   3   5  -5   13.75    0.61
  -3  -5  -5   14.09    0.54
   3   5  -5   13.04    0.55
  -3  -5  -5   13.77    0.55
   3  -5   5   14.20    0.56
   3  -5  -5   13.33    0.63
  -3   5  -5   13.36    0.60
   3  -5  -5   14.42    0.54
   4   5   0    2.55    0.13
   4   5   0    2.61    0.12
  -4  -5   0    2.49    0.13
   4   5   0    2.63    0.12
   4   5  -1   15.27    0.50
   4   5  -1   15.79    0.49
   4   5  -1   15.82    0.52
  -4  -5  -1   15.70    0.53
  -4   5  -1   15.23    0.53
   4   5   1   14.47    0.53
  -4  -5   1   15.26    0.50
   4  -5   2    1.57    0.07
   4   5  -2    1.74    0.12
   4   5  -2    1.44    0.09
   4   5  -2    1.50    0.08
  -4  -5  -2    1.54    0.13
  -4  -5   2    1.31    0.09
   4   5   2    1.61    0.14
   4  -5  -2    1.51    0.13
  -4   5  -2    1.55    0.09
  -4   5  -2    1.33    0.13
   4   5  -3    9.70    0.37
  -4  -5  -3   10.23    0.33
   4   5  -3    9.22    0.40
   4  -5   3    9.47    0.34
  -4  -5  -3    9.55    0.39
  -4   5  -3    9.08    0.40
   4   5   3    8.91    0.43
  -4  -5   3    9.48    0.35
   4  -5  -3    9.61    0.42
  -4   5  -3    9.51    0.35
   4   5  -4    0.14    0.08
   4   5  -4    0.12    0.06
   4  -5   4    0.19    0.08
  -4  -5  -4    0.10    0.08
  -4   5  -4    0.13    0.08
   4  -5  -4    0.20    0.06
   4  -5  -4    0.36    0.13
   4   5  -5    5.30    0.35
  -4  -5  -5    5.14    0.40
   4  -5   5    5.55    0.33
  -4  -5  -5    5.79    0.31
   4   5  -5    5.30    0.30
   4  -5  -5    5.45    0.30
  -4   5  -5    5.10    0.34
   4  -5  -5    5.86    0.46
   5   5   0   64.18    1.81
   5   5   0   58.11    1.82
   5   5   0   58.07    1.82
  -5   5   0   59.69    1.78
  -5  -5  -1   49.30    1.50
   5  -5   1   48.02    1.45
   5   5  -1   49.09    1.48
   5   5  -1   46.25    1.46
  -5   5  -1   47.79    1.49
  -5  -5   1   48.34    1.48
   5   5   1   48.32    1.50
   5   5  -2   42.35    1.30
  -5  -5  -2   40.89    1.30
   5   5  -2   41.40    1.28
   5  -5   2   40.69    1.24
   5   5  -2   40.86    1.25
  -5   5  -2   42.28    1.24
  -5  -5   2   39.31    1.27
   5   5   2   42.55    1.33
  -5   5  -2   41.61    1.31
   5  -5  -2   38.41    1.34
   5   5  -3   26.35    0.78
   5   5  -3   24.48    0.87
  -5  -5  -3   26.13    0.86
   5   5  -3   25.52    0.80
   5  -5   3   26.31    0.82
   5   5  -3   24.52    0.84
   5  -5  -3   25.27    0.89
   5  -5  -3   25.10    0.84
  -5   5  -3   25.40    0.88
  -5  -5   3   24.90    0.83
   5   5   3   25.68    0.91
   5  -5   4   18.93    0.66
   5   5  -4   19.16    0.68
   5   5  -4   16.64    0.70
  -5  -5  -4   19.02    0.67
  -5  -5  -4   19.20    0.61
   5  -5  -4   17.99    0.66
   5  -5  -4   18.76    0.74
  -5   5  -4   18.18    0.71
   5   5  -5   10.63    0.48
   5  -5   5   10.87    0.49
  -5   5  -5   10.57    0.51
   5  -5  -5   11.49    0.47
   6   5   0    5.95    0.24
   6   5   0    5.75    0.23
   6   5   0    6.50    0.22
   6  -5   0    6.08    0.23
  -6  -5   0    5.93    0.25
   6  -5   1    0.54    0.05
   6   5  -1    0.45    0.06
  -6  -5  -1    0.64    0.08
   6   5  -1    0.53    0.07
   6   5   1    0.61    0.08
   6  -5  -1    0.57    0.07
  -6   5  -1    0.55    0.08
  -6  -5   1    0.57    0.07
  -6  -5  -2    4.41    0.22
   6   5  -2    4.65    0.19
   6   5  -2    4.46    0.20
   6  -5   2    4.48    0.17
   6   5  -2    4.77    0.23
   6  -5  -2    4.67    0.21
  -6   5  -2    4.33    0.23
   6   5   2    4.45    0.24
  -6  -5   2    4.40    0.20
  -6  -5  -3    0.26    0.07
   6   5  -3    0.32    0.09
   6   5  -3    0.41    0.08
   6  -5   3    0.37    0.07
   6   5  -3    0.43    0.08
   6   5  -3    0.41    0.06
   6  -5  -3    0.47    0.11
  -6  -5   3    0.31    0.06
  -6   5  -3    0.42    0.09
   6  -5   4    2.47    0.19
  -6  -5  -4    2.49    0.20
   6   5  -4    2.14    0.20
   6   5  -4    2.55    0.18
  -6   5  -4    2.33    0.21
   6  -5  -4    2.13    0.29
   6   5  -5    0.28    0.10
   6  -5   5    0.37    0.14
   6   5  -5    0.10    0.11
   6  -5  -5    0.10    0.10
  -6   5  -5    0.15    0.13
   7   5   0   21.73    0.66
   7   5   0   19.77    0.68
   7   5   0   20.71    0.67
   7  -5   0   20.64    0.67
  -7  -5   0   20.19    0.69
   7  -5   1    7.98    0.29
  -7  -5  -1    8.11    0.32
   7   5  -1    8.19    0.31
   7   5  -1    7.90    0.30
   7   5   1    8.22    0.33
   7  -5  -1    8.10    0.31
  -7   5  -1    8.02    0.32
  -7  -5   1    8.22    0.31
   7  -5   2   15.59    0.52
   7   5  -2   16.22    0.53
   7   5  -2   15.83    0.55
  -7  -5  -2   15.71    0.56
   7  -5  -2   16.37    0.56
   7   5   2   15.94    0.59
  -7  -5   2   15.27    0.55
  -7   5  -2   15.45    0.56
   7   5  -3    6.24    0.28
  -7  -5  -3    6.30    0.29
   7  -5   3    6.25    0.28
   7   5  -3    6.13    0.31
   7   5  -3    6.70    0.25
   7   5  -3    6.36    0.28
  -7  -5   3    5.92    0.28
  -7   5  -3    6.00    0.30
   7  -5  -3    6.16    0.34
  -7  -5  -4    9.39    0.40
   7  -5   4    9.42    0.40
   7   5  -4    9.48    0.35
   7   5  -4    8.64    0.40
   7   5  -4    9.77    0.33
   7   5  -4    9.16    0.44
   7  -5  -4    9.06    0.50
  -7   5  -4    9.05    0.42
   7   5  -5    3.90    0.31
   7   5  -5    3.42    0.25
   7  -5   5    4.08    0.39
   7  -5  -5    3.62    0.28
   7   5   5    3.46    0.43
  -7   5  -5    3.89    0.30
   8   5   0    1.87    0.13
   8   5  -1   20.88    0.68
  -8  -5  -1   21.02    0.70
   8  -5   1   20.93    0.67
   8   5  -1   19.93    0.68
   8   5   1   20.61    0.71
  -8   5  -1   20.34    0.69
   8  -5  -1   20.67    0.69
   8   5  -2    2.17    0.13
   8   5  -2    2.36    0.14
   8  -5   2    2.18    0.12
  -8   5  -2    2.00    0.15
   8   5   2    1.89    0.17
   8  -5  -2    2.09    0.15
  -8  -5   2    1.77    0.14
  -8  -5  -3   14.96    0.55
   8   5  -3   14.62    0.50
   8  -5   3   14.38    0.52
   8   5  -3   13.79    0.57
   8   5  -3   15.63    0.55
   8   5  -3   14.42    0.54
  -8   5  -3   15.12    0.55
   8  -5  -3   15.22    0.61
   8   5   3   13.27    0.74
  -8  -5   3   14.37    0.54
   8   5  -4    2.63    0.15
   8   5  -4    3.05    0.22
   8   5  -4    2.60    0.22
   8   5  -4    2.61    0.19
   8  -5   4    2.63    0.22
  -8  -5  -4    2.42    0.22
   8  -5  -4    2.80    0.38
  -8   5  -4    2.60    0.22
   9   5   0   62.25    2.00
   9  -5   0   64.42    1.98
   9   5   0   67.11    1.98
  -9  -5   0   65.41    2.00
   9   5  -1   10.59    0.40
  -9  -5  -1   11.19    0.43
   9   5  -1   11.15    0.40
   9  -5   1   10.61    0.39
   9   5   1   10.45    0.42
   9  -5  -1   11.06    0.41
   9   5   1   11.04    0.40
   9  -5   2   50.26    1.61
   9   5  -2   52.10    1.62
   9   5  -2   53.26    1.63
  -9  -5  -2   54.37    1.65
  -9   5  -2   51.26    1.63
   9   5  -3    8.54    0.37
  -9  -5  -3    8.85    0.38
   9  -5   3    8.50    0.35
   9   5  -3    9.10    0.35
   9  -5  -3    9.37    0.46
  -9  -5   3    8.61    0.39
  -9   5  -3    8.89    0.37
   9   5  -4   28.77    1.07
   9  -5   4   30.51    1.03
   9   5  -4   28.79    1.02
   9   5  -4   30.47    0.96
  -9  -5  -4   29.97    1.01
   9   5  -4   30.54    1.01
  -9   5  -4   30.27    1.02
 -10  -5   0   13.10    0.54
  10   5   0   12.98    0.49
  10   5   0   13.39    0.46
  10  -5   0   12.82    0.47
 -10  -5  -1    0.15    0.07
  10   5  -1    0.25    0.06
  10   5  -1    0.35    0.07
  10  -5   1    0.27    0.06
  10   5   1    0.32    0.07
  10   5   1    0.31    0.08
  10   5   1    0.36    0.05
  10  -5  -1    0.25    0.07
  10   5  -2   10.33    0.40
  10   5  -2   10.67    0.41
  10  -5   2   10.21    0.39
 -10  -5  -2   10.81    0.43
 -10   5  -2   10.56    0.41
  10  -5   3    0.38    0.09
 -10  -5  -3    0.34    0.10
  10   5  -3    0.41    0.08
  10   5  -3    0.44    0.08
 -10   5  -3    0.48    0.10
 -10  -5   3    0.37    0.11
  10   5  -4    6.09    0.28
  10   5  -4    5.91    0.31
  10   5  -4    5.39    0.46
  10  -5   4    5.62    0.35
 -10  -5  -4    6.03    0.34
 -10   5  -4    6.36    0.32
  11   5   0    1.27    0.12
  11  -5   0    1.17    0.12
  11   5  -1    0.68    0.09
  11   5  -1    0.59    0.09
 -11  -5  -1    0.87    0.13
  11   5   1    0.75    0.10
  11   5   1    0.60    0.09
  11   5  -2    0.75    0.11
  11   5  -2    0.78    0.10
 -11  -5  -2    0.72    0.12
  11  -5   2    0.82    0.11
  11  -5   3    0.33    0.09
  11   5  -3    0.40    0.09
 -11  -5  -3    0.62    0.12
 -11   5  -3    0.48    0.11
  11   5  -4    0.20    0.11
  11  -5   4    0.39    0.14
  11   5  -4    0.28    0.09
 -11   5  -4    0.35    0.12
  12  -5   0    0.21    0.06
  12   5   0    0.15    0.06
 -12  -5  -1    0.11    0.08
  12   5  -1    0.08    0.06
  12   5  -1    0.23    0.06
  12  -5   1    0.14    0.06
  12   5   1    0.16    0.06
  12   5   1    0.44    0.11
 -12  -5  -2    0.11    0.09
  12  -5   2    0.29    0.08
  12   5  -2    0.24    0.07
  12   5  -2    0.40    0.08
  12   5   2    0.33    0.08
 -12  -5  -3    0.18    0.12
  12   5  -3    0.22    0.08
  12  -5   3    0.21    0.14
  12   5  -3    0.32    0.08
  12   5  -4    0.19    0.09
  12  -5   4    0.84    0.19
  12   5  -4    0.27    0.13
  12   5  -4    0.53    0.13
  13  -5   0   12.41    0.49
  13   5   0   11.85    0.44
  13   5  -1    8.70    0.34
 -13  -5  -1    7.68    0.38
  13   5   1    8.36    0.33
 -13  -5  -2    9.97    0.45
  13   5  -2   10.06    0.40
  13   5   2    9.98    0.40
  13  -5   3    4.13    0.29
  13   5  -3    4.24    0.26
 -13  -5  -3    3.99    0.31
  13   5  -3    4.20    0.25
  14   5   0    0.41    0.09
  14  -5   1   61.47    1.91
  14   5  -1   60.85    1.87
 -14  -5  -1   58.84    1.92
  14   5   1   59.61    1.86
  14  -5   2    0.44    0.11
 -14  -5  -2    0.66    0.15
  14   5  -2    0.71    0.10
  14   5   2    0.83    0.12
  14   5  -3   40.49    1.32
  14  -5   3   40.33    1.35
  14   5  -3   39.70    1.32
  14   5   3   39.31    1.29
  15   5   0   74.50    2.27
  15  -5   1   14.46    0.58
  15   5  -1   13.69    0.51
  15   5   1   14.10    0.51
  15  -5   2   61.99    1.95
  15   5  -2   59.66    1.89
  15   5  -2   58.92    2.08
  15   5   2   61.37    1.88
  16   5   0    1.03    0.14
  16  -5   1    1.73    0.23
  16   5  -1    1.60    0.16
  16   5   1    1.76    0.16
  16  -5   2    1.30    0.19
  16   5  -2    0.80    0.16
  16   5  -2    1.14    0.15
  16   5   2    1.19    0.15
  17   5   0    0.27    0.10
  17   5   0    0.31    0.12
  17   5  -1    1.64    0.17
  17  -5   1    1.48    0.20
  17   5   1    1.33    0.18
   0   6   0   66.69    1.95
   0  -6   0   65.27    1.93
   0   6   0   60.65    1.93
   0   6   1  122.44    3.89
   0   6  -1  139.78    3.86
   0  -6  -1  123.11    3.88
   0   6  -1  135.49    3.90
   0  -6   1  128.42    3.86
   0   6   2   49.72    1.59
   0  -6  -2   51.63    1.57
   0  -6   2   49.35    1.48
   0   6  -2   48.89    1.57
   0   6   3   58.70    1.90
   0   6  -3   58.80    1.82
   0  -6  -3   60.19    1.88
   0   6  -3   59.76    1.87
   0   6  -4   26.46    0.97
   0  -6  -4   28.27    0.97
   0   6  -4   27.70    0.92
   0   6  -5   13.58    0.54
   0  -6  -5   13.85    0.56
   0   6  -5   13.99    0.60
   0  -6  -5   13.66    0.62
   1   6   0   20.40    0.62
   1   6   0   18.81    0.61
   1   6   0   18.88    0.61
  -1   6   0   19.49    0.63
   1  -6   0   19.58    0.61
  -1   6   0   18.91    0.60
  -1  -6   0   19.39    0.62
   1   6  -1   63.34    2.02
   1   6  -1   69.87    2.01
  -1  -6  -1   65.96    2.03
  -1   6  -1   67.03    2.04
  -1  -6   1   69.84    1.99
   1  -6  -1   67.04    2.03
  -1   6  -1   67.36    1.99
   1   6   1   62.54    2.03
   1   6  -2   13.67    0.50
  -1  -6  -2   13.56    0.50
   1   6  -2   14.17    0.46
   1  -6  -2   13.97    0.50
  -1  -6   2   13.36    0.43
  -1   6  -2   13.47    0.45
  -1   6  -2   13.30    0.50
   1   6   2   13.48    0.52
  -1  -6  -3   38.21    1.21
   1   6  -3   35.93    1.21
   1   6  -3   37.67    1.17
   1  -6   3   35.54    1.13
  -1   6  -3   36.05    1.16
   1   6   3   37.75    1.25
   1  -6  -3   36.40    1.21
  -1   6  -3   36.86    1.21
   1   6  -4    8.03    0.39
  -1  -6  -4    7.90    0.40
   1   6  -4    8.52    0.36
  -1   6  -4    8.40    0.35
   1  -6  -4    8.69    0.42
  -1   6  -4    8.37    0.39
   1   6  -5   16.51    0.70
   1   6  -5   16.67    0.64
  -1  -6  -5   17.31    0.69
  -1  -6  -5   17.56    0.65
   1  -6  -5   16.05    0.71
  -1   6  -5   16.61    0.70
   1  -6  -5   17.77    0.64
   2   6   0   63.59    1.95
   2   6   0   66.83    1.95
  -2   6   0   64.16    1.96
  -2  -6   0   64.03    1.96
  -2   6   0   64.05    1.93
   2   6   0   66.17    1.95
   2   6  -1   73.28    2.06
   2   6  -1   66.29    2.03
  -2  -6  -1   65.54    2.06
   2   6   1   63.58    2.06
  -2   6  -1   67.38    2.01
  -2  -6   1   69.19    2.02
   2  -6  -1   67.53    2.05
   2   6  -2   43.68    1.37
   2   6  -2   46.29    1.40
  -2  -6  -2   44.34    1.41
   2  -6  -2   45.68    1.41
   2   6   2   44.39    1.43
  -2  -6   2   43.55    1.34
  -2   6  -2   43.43    1.41
  -2   6  -2   44.05    1.35
   2   6  -3   33.48    1.12
  -2  -6  -3   34.95    1.16
   2   6  -3   33.86    1.15
   2  -6   3   34.99    1.08
   2   6   3   38.87    1.21
   2  -6  -3   35.51    1.17
  -2   6  -3   35.43    1.11
  -2   6  -3   33.24    1.16
  -2  -6   3   35.77    1.09
   2   6  -4   20.31    0.72
   2  -6   4   20.36    0.69
   2   6  -4   19.71    0.76
  -2  -6  -4   21.41    0.76
  -2   6  -4   21.10    0.71
   2  -6  -4   21.77    0.78
  -2   6  -4   19.68    0.76
   2   6  -5   15.87    0.67
  -2  -6  -5   15.88    0.60
  -2  -6  -5   14.77    0.64
   2   6  -5   15.37    0.61
   2  -6  -5   16.30    0.60
   2  -6  -5   16.23    0.70
  -2   6  -5   15.11    0.66
   3   6   0    0.51    0.05
  -3   6   0    0.57    0.05
  -3   6   0    0.53    0.07
   3   6   0    0.58    0.06
  -3  -6   0    0.51    0.06
  -3  -6   1    0.19    0.04
   3   6  -2    0.35    0.07
   3   6  -2    0.35    0.06
  -3  -6  -2    0.53    0.09
   3  -6  -2    0.52    0.09
   3   6   2    0.34    0.08
  -3  -6   2    0.43    0.05
  -3   6  -2    0.55    0.09
  -3   6  -2    0.42    0.06
   3   6  -3    0.10    0.06
   3  -6   3    0.10    0.04
   3   6  -3    0.14    0.05
  -3  -6  -3   -0.07    0.06
   3  -6  -3    0.07    0.07
  -3   6  -3    0.01    0.04
  -3   6  -3    0.05    0.07
  -3  -6   3    0.09    0.04
   3   6   3    0.05    0.07
  -3  -6  -4    0.27    0.09
  -3  -6  -4    0.36    0.11
   3   6  -4    0.18    0.10
   3  -6   4    0.28    0.08
   3   6  -4    0.25    0.07
  -3   6  -4    0.42    0.09
   3  -6  -4    0.07    0.12
  -3   6  -4    0.25    0.10
   3   6  -5    0.05    0.08
  -3  -6  -5   -0.01    0.12
   3   6  -5    0.26    0.12
  -3  -6  -5    0.15    0.14
   3  -6  -5    0.02    0.20
  -3   6  -5    0.20    0.12
   3  -6  -5    0.17    0.10
  -4  -6   0    2.49    0.13
   4   6   0    2.99    0.13
   4   6   0    2.61    0.13
   4   6   0    2.69    0.13
  -4   6   0    2.57    0.14
   4   6  -1   53.61    1.62
  -4  -6  -1   52.66    1.64
   4   6  -1   51.90    1.60
  -4   6  -1   54.03    1.65
  -4  -6   1   53.57    1.61
   4   6   1   51.90    1.64
   4   6  -2    2.02    0.12
   4   6  -2    1.73    0.13
   4   6  -2    1.82    0.10
   4   6  -2    2.02    0.09
  -4  -6  -2    2.16    0.15
  -4  -6   2    1.86    0.11
  -4   6  -2    1.98    0.15
   4   6   2    2.11    0.17
   4  -6  -2    1.80    0.17
  -4   6  -2    1.89    0.10
  -4  -6  -3   31.97    1.06
   4   6  -3   31.42    1.07
   4   6  -3   30.96    1.03
  -4  -6  -3   33.74    0.98
  -4   6  -3   31.36    1.00
  -4  -6   3   31.31    1.01
  -4   6  -3   31.28    1.08
   4  -6  -3   32.72    1.09
   4  -6   4    0.36    0.08
   4   6  -4    0.15    0.06
   4   6  -4    0.08    0.08
  -4  -6  -4    0.30    0.10
  -4  -6  -4    0.32    0.09
  -4   6  -4    0.22    0.10
   4  -6  -4    0.35    0.08
   4  -6  -4    0.42    0.15
   4   6  -5   15.32    0.60
   4  -6   5   15.23    0.59
  -4  -6  -5   15.43    0.71
  -4   6  -5   14.73    0.64
   4  -6  -5   14.59    0.58
  -5  -6   0   53.70    1.62
   5   6   0   55.44    1.59
   5   6   0   50.48    1.61
  -5   6   0   50.99    1.62
   5   6   0   52.47    1.61
   5   6  -1  123.48    3.54
   5   6  -1  117.64    3.51
  -5  -6  -1  123.39    3.55
   5   6  -1  115.36    3.53
  -5  -6   1  122.79    3.53
  -5   6  -1  109.17    3.54
   5   6   1  113.64    3.55
   5   6  -2   35.36    1.18
  -5  -6  -2   38.57    1.26
   5   6  -2   38.12    1.14
   5  -6   2   37.99    1.13
   5  -6  -2   37.68    1.21
   5   6   2   37.04    1.23
  -5   6  -2   35.86    1.21
  -5   6  -2   38.08    1.14
  -5  -6   2   38.03    1.17
   5  -6   3   70.26    2.09
  -5  -6  -3   71.14    2.16
   5   6  -3   69.63    2.14
   5   6  -3   66.27    2.17
   5  -6  -3   70.01    2.19
  -5   6  -3   70.68    2.10
  -5  -6   3   68.42    2.12
  -5   6  -3   67.77    2.18
   5   6  -4   21.05    0.77
  -5  -6  -4   21.24    0.77
   5  -6   4   21.38    0.74
   5   6  -4   21.37    0.82
   5  -6  -4   25.20    0.90
   5  -6  -4   21.53    0.85
  -5   6  -4   21.21    0.81
   5   6  -5   34.26    1.23
   5   6  -5   33.29    1.16
   5  -6   5   34.45    1.13
  -5   6  -5   32.36    1.20
   5  -6  -5   33.69    1.14
   6   6   0   80.04    2.20
  -6  -6   0   72.98    2.23
   6   6   0   73.14    2.22
   6   6   0   71.84    2.22
  -6   6   0   67.66    2.16
   6   6  -1   45.32    1.37
   6   6  -1   42.68    1.35
   6   6  -1   46.84    1.37
   6  -6   1   44.22    1.33
  -6   6  -1   41.89    1.38
  -6   6  -1   43.68    1.30
  -6  -6   1   43.12    1.36
   6   6   1   43.55    1.39
   6   6  -2   59.01    1.81
   6  -6   2   57.59    1.76
  -6  -6  -2   61.21    1.83
   6   6  -2   58.88    1.77
   6   6  -2   56.20    1.82
  -6  -6   2   55.65    1.79
  -6   6  -2   60.13    1.75
   6   6   2   60.70    1.86
  -6   6  -2   57.62    1.83
   6  -6   3   28.98    0.90
   6   6  -3   29.77    0.88
   6   6  -3   28.73    0.89
   6   6  -3   26.72    0.97
  -6  -6  -3   29.20    0.96
   6   6  -3   25.79    0.93
  -6  -6   3   27.82    0.93
   6  -6  -3   30.96    1.13
  -6   6  -3   27.71    0.97
   6   6  -4   29.96    1.04
   6  -6   4   31.08    1.01
   6   6  -4   28.97    1.08
  -6  -6  -4   31.43    1.04
  -6   6  -4   30.70    1.07
   6  -6  -4   31.17    1.11
   6  -6   5   14.08    0.57
   6   6  -5   13.67    0.57
   6   6  -5   13.31    0.62
   6  -6  -5   13.48    0.56
  -6   6  -5   13.64    0.61
   7   6   0    3.49    0.17
   7   6   0    3.52    0.16
  -7  -6   0    3.55    0.18
   7  -6   0    3.43    0.16
   7   6   0    3.67    0.18
   7   6  -1    0.41    0.07
   7   6  -1    0.35    0.06
   7  -6   1    0.39    0.06
   7   6  -1    0.34    0.05
   7  -6  -1    0.33    0.06
  -7   6  -1    0.36    0.07
  -7  -6   1    0.38    0.06
   7   6   1    0.39    0.07
  -7  -6  -2    3.21    0.19
   7   6  -2    2.79    0.18
   7   6  -2    3.05    0.15
   7   6  -2    3.50    0.18
   7  -6   2    3.25    0.14
  -7   6  -2    3.07    0.19
   7  -6  -2    3.18    0.18
   7   6   2    3.18    0.21
  -7  -6   2    2.71    0.17
   7   6  -3    0.47    0.08
   7   6  -3    0.49    0.10
   7  -6   3    0.59    0.07
   7   6  -3    0.56    0.08
  -7  -6  -3    0.50    0.10
   7   6  -3    0.41    0.08
   7  -6  -3    0.49    0.17
  -7   6  -3    0.51    0.11
  -7  -6   3    0.48    0.09
   7   6  -4    2.40    0.18
   7   6  -4    2.15    0.21
   7  -6   4    2.51    0.20
  -7  -6  -4    2.62    0.24
   7  -6  -4    2.23    0.34
  -7   6  -4    2.39    0.22
   7   6  -5    0.53    0.16
   7  -6  -5    0.46    0.13
  -7   6  -5    0.52    0.15
   8  -6   0    0.49    0.07
   8   6   0    0.59    0.08
   8   6   0    0.50    0.08
   8   6   0    0.49    0.08
  -8  -6   0    0.63    0.09
   8   6  -1    1.49    0.12
  -8  -6  -1    1.71    0.14
   8  -6   1    1.55    0.10
   8   6  -1    1.41    0.12
   8   6  -1    1.44    0.11
   8  -6  -1    1.54    0.12
   8   6   1    1.55    0.12
  -8   6  -1    1.51    0.13
   8   6   1    1.52    0.13
   8  -6   2    0.45    0.07
   8   6  -2    0.42    0.08
   8   6  -2    0.45    0.08
   8   6  -2    0.34    0.06
  -8  -6  -2    0.42    0.08
  -8  -6   2    0.40    0.08
   8  -6  -2    0.27    0.08
  -8   6  -2    0.54    0.10
   8   6  -3    1.01    0.12
  -8  -6  -3    1.06    0.16
   8   6  -3    1.13    0.14
   8  -6   3    1.03    0.11
   8   6  -3    1.21    0.11
   8   6  -3    1.21    0.16
  -8  -6   3    1.33    0.15
  -8   6  -3    1.60    0.16
   8   6  -4    0.31    0.06
   8   6  -4    0.33    0.10
   8   6  -4    0.51    0.09
   8   6  -4    0.28    0.11
   8  -6   4    0.31    0.11
  -8  -6  -4    0.26    0.12
  -8   6  -4    0.35    0.11
   9   6   0    3.29    0.17
   9  -6   0    3.17    0.17
   9   6   0    3.35    0.16
  -9  -6   0    3.48    0.20
   9   6   0    3.18    0.18
   9   6  -1    1.04    0.11
   9   6  -1    0.94    0.10
   9  -6   1    0.94    0.09
   9   6  -1    0.96    0.10
   9   6   1    1.19    0.11
   9  -6  -1    1.01    0.11
   9   6   1    1.15    0.12
   9   6  -2    2.82    0.16
   9  -6   2    2.53    0.14
  -9  -6  -2    2.75    0.20
   9   6  -2    2.90    0.17
   9   6  -2    2.74    0.18
  -9  -6   2    2.30    0.17
  -9   6  -2    2.91    0.19
   9   6  -3    0.91    0.13
   9   6  -3    0.83    0.11
  -9  -6  -3    0.76    0.13
   9  -6   3    0.77    0.12
   9   6  -3    0.83    0.11
  -9   6  -3    0.78    0.12
  -9  -6   3    0.65    0.11
   9   6  -4    1.57    0.17
   9   6  -4    1.77    0.14
   9   6  -4    1.51    0.20
   9  -6   4    2.19    0.22
  -9  -6  -4    1.87    0.25
  -9   6  -4    1.92    0.21
 -10  -6   0   15.55    0.57
  10  -6   0   15.66    0.55
  10   6   0   15.00    0.57
  10   6   0   15.12    0.54
  10   6  -1    1.09    0.11
  10  -6   1    0.96    0.10
  10   6  -1    1.15    0.11
  10   6   1    1.18    0.11
  10   6  -2   12.21    0.49
  10   6  -2   12.27    0.46
  10  -6   2   12.17    0.45
 -10  -6  -2   12.54    0.50
  10   6  -2   12.06    0.47
 -10   6  -2   12.83    0.48
  10   6  -3    0.24    0.08
  10   6  -3    0.23    0.07
  10   6  -3    0.30    0.08
 -10  -6  -3    0.25    0.12
  10  -6   3    0.12    0.07
 -10  -6   3    0.27    0.10
 -10   6  -3    0.28    0.10
  10  -6   4    6.55    0.36
 -10  -6  -4    6.60    0.39
  10   6  -4    6.99    0.30
  10   6  -4    6.58    0.34
 -10   6  -4    7.47    0.36
  11   6   0    7.92    0.30
  11  -6   0    7.66    0.33
  11   6   0    7.62    0.31
 -11  -6  -1   84.99    2.55
  11   6  -1   80.47    2.51
  11   6  -1   81.74    2.53
  11  -6   1   81.10    2.51
  11   6   1   82.69    2.51
  11   6  -2    6.92    0.32
  11   6  -2    7.25    0.32
 -11  -6  -2    7.98    0.37
  11  -6   3   51.54    1.66
 -11  -6  -3   52.84    1.69
  11   6  -3   53.70    1.65
  11   6  -3   51.46    1.72
  11   6  -3   52.85    1.68
 -11   6  -3   52.67    1.68
  11   6  -4    6.28    0.38
  11  -6   4    6.58    0.38
  11   6  -4    6.20    0.30
  11   6  -4    6.01    0.33
 -11   6  -4    6.72    0.35
  12   6   0   87.72    2.55
  12   6   0   82.68    2.57
  12  -6   0   82.47    2.60
  12   6  -1   39.32    1.27
 -12  -6  -1   40.06    1.29
  12   6  -1   37.63    1.24
  12  -6   1   39.43    1.26
  12   6   1   37.79    1.24
 -12  -6  -2   66.87    2.08
  12   6  -2   64.32    2.05
  12   6  -2   66.00    2.05
  12  -6   2   66.05    2.05
  12   6   2   65.66    2.04
  12  -6   3   26.95    0.93
  12   6  -3   27.80    0.94
  12   6  -3   26.07    0.97
 -12  -6  -3   26.29    0.95
  12   6  -3   27.38    0.91
  13   6   0    4.32    0.22
  13   6   0    3.77    0.21
  13  -6   0    4.26    0.24
  13   6  -1    0.51    0.10
 -13  -6  -1    0.48    0.12
  13   6   1    0.60    0.10
  13   6  -2    3.69    0.21
 -13  -6  -2    2.87    0.27
  13  -6   2    3.13    0.27
  13   6  -2    3.23    0.22
  13   6   2    3.14    0.20
  13   6  -3    0.14    0.10
  13  -6   3    0.32    0.13
  13   6  -3    0.33    0.09
  13   6  -3    0.17    0.10
  14   6   0    1.11    0.13
  14   6   0    1.06    0.14
  14  -6   1   17.25    0.65
  14   6  -1   17.05    0.62
  14   6   1   17.41    0.61
  14   6  -2    1.16    0.14
  14  -6   2    0.68    0.13
  14   6  -2    0.90    0.20
  14   6   2    0.93    0.13
  14   6  -3   10.26    0.46
  14   6  -3    8.17    0.51
  14   6  -3   10.83    0.45
  14  -6   3   10.66    0.50
  14   6   3   10.40    0.43
  15   6   0   14.71    0.52
  15   6   0   13.35    0.51
  15   6  -1    8.89    0.39
  15  -6   1    8.33    0.41
  15   6  -1    8.48    0.36
  15   6   1    8.74    0.37
  15   6  -2   11.56    0.51
  15   6  -2   11.76    0.51
  15  -6   2   11.26    0.51
  15   6   2   11.77    0.46
  16   6   0    1.87    0.19
  16   6   0    1.52    0.16
  16   6  -1    0.13    0.10
  16  -6   1    0.29    0.13
  16   6  -1    0.33    0.09
  16   6   1    0.17    0.09
  17   6   0    0.99    0.13
  17   6   0    1.12    0.24
   0  -7   0   -0.31    0.03
   0   7   0   -0.27    0.04
   0   7  -1   -0.27    0.03
   0  -7  -1   -0.29    0.03
   0  -7   1   -0.28    0.02
   0   7   1   -0.16    0.05
   0   7  -1   -0.19    0.04
   0   7  -2   -0.20    0.05
   0   7  -2   -0.10    0.04
   0  -7  -2   -0.03    0.05
   0   7   2   -0.15    0.05
   0  -7   2   -0.12    0.02
   0  -7  -3    0.07    0.07
   0   7   3    0.07    0.09
   0   7  -3    0.05    0.05
   0   7  -3    0.03    0.04
   0   7  -4    0.04    0.06
   0   7  -4    0.01    0.07
   0  -7  -4   -0.01    0.11
   0   7  -5    0.06    0.07
   0   7  -5    0.04    0.10
   0  -7  -5    0.07    0.20
   1   7   0   20.75    0.66
  -1  -7   0   20.20    0.66
   1   7   0   20.72    0.65
  -1   7   0   20.26    0.64
   1   7   0   20.17    0.65
  -1   7   0   20.29    0.67
   1  -7   0   20.38    0.65
   1   7  -1    1.44    0.09
   1   7  -1    1.60    0.12
  -1  -7  -1    1.46    0.11
  -1  -7   1    1.58    0.08
  -1   7  -1    1.49    0.09
   1  -7  -1    1.48    0.11
  -1   7  -1    1.61    0.12
   1   7   1    1.51    0.12
   1   7  -2   14.17    0.51
  -1  -7  -2   14.27    0.52
   1   7  -2   13.38    0.47
  -1   7  -2   13.75    0.47
  -1   7  -2   13.14    0.51
   1  -7  -2   13.48    0.51
  -1  -7   2   14.29    0.44
   1   7   2   13.98    0.53
   1   7  -3    0.58    0.08
  -1  -7  -3    0.78    0.12
   1   7  -3    0.65    0.11
   1   7   3    0.86    0.14
  -1   7  -3    0.66    0.12
   1  -7  -3    0.82    0.13
  -1  -7   3    0.58    0.07
  -1   7  -3    0.59    0.08
   1   7  -4    4.95    0.29
   1   7  -4    4.84    0.25
  -1  -7  -4    4.95    0.32
  -1   7  -4    5.15    0.25
  -1   7  -4    5.05    0.30
   1  -7  -4    5.52    0.34
   1   7  -5    0.32    0.12
  -1  -7  -5    0.39    0.12
   1   7  -5    0.27    0.09
  -1  -7  -5    0.32    0.19
  -1   7  -5    0.25    0.12
  -1   7  -5    0.31    0.10
  -2   7   0  683.12   20.06
   2   7   0  715.13   20.17
  -2   7   0  665.25   20.26
   2   7   0  760.44   20.22
   2   7   0  646.63   20.16
  -2  -7   0  591.09   20.18
  -2  -7  -1  299.50   10.05
   2   7  -1  348.66   10.16
   2   7  -1  351.46   10.05
  -2   7  -1  345.72   10.14
   2  -7  -1  326.51   10.04
  -2   7  -1  339.37    9.98
   2   7   1  311.50   10.09
  -2  -7   1  362.09   10.08
   2   7  -2  561.08   15.86
   2   7  -2  552.22   16.09
  -2  -7  -2  516.68   15.98
  -2  -7   2  580.44   15.83
  -2   7  -2  527.41   15.80
   2   7   2  486.43   15.92
  -2   7  -2  526.59   16.02
   2  -7  -2  498.45   15.83
   2   7  -3  197.08    6.07
   2   7  -3  210.04    6.03
  -2  -7  -3  200.03    6.07
   2  -7  -3  206.23    6.08
  -2  -7   3  210.16    6.01
  -2   7  -3  201.33    6.01
  -2   7  -3  191.73    6.08
   2   7  -4  260.11    7.76
  -2  -7  -4  262.29    7.79
   2   7  -4  254.91    7.82
  -2   7  -4  260.44    7.74
  -2   7  -4  253.16    7.82
   2  -7  -4  271.81    7.82
  -2  -7  -5   86.68    2.87
  -2  -7  -5   94.71    2.83
   2   7  -5   92.69    2.87
   2   7  -5   92.75    3.09
  -2   7  -5   87.34    2.92
   2  -7  -5   97.74    2.85
   3   7   0   52.01    1.55
   3   7   0   49.65    1.55
   3   7   0   49.63    1.56
  -3  -7   0   52.39    1.57
  -3   7   0   50.74    1.53
  -3   7   0   51.10    1.57
   3   7  -1   60.21    1.85
   3   7  -1   61.88    1.90
  -3  -7  -1   63.34    1.91
   3  -7  -1   63.16    1.90
  -3   7  -1   61.33    1.92
  -3  -7   1   64.77    1.88
   3   7   1   62.09    1.86
  -3   7  -1   61.24    1.86
   3   7   1   60.63    1.92
   3   7  -2   34.62    1.08
   3   7  -2   34.53    1.11
  -3  -7  -2   32.86    1.15
  -3   7  -2   34.94    1.06
   3   7   2   33.71    1.14
  -3   7  -2   34.48    1.13
  -3  -7   2   34.65    1.06
   3  -7   3   32.89    0.98
  -3  -7  -3   32.44    1.07
   3   7  -3   29.07    1.06
   3   7  -3   29.99    1.03
  -3   7  -3   31.78    1.09
  -3   7  -3   32.10    1.01
  -3  -7   3   33.16    1.00
   3  -7  -3   33.19    1.09
   3   7  -4   14.84    0.58
   3   7  -4   15.08    0.62
  -3  -7  -4   16.95    0.55
  -3  -7  -4   15.97    0.62
   3  -7   4   15.53    0.54
  -3   7  -4   14.72    0.62
  -3   7  -4   15.64    0.56
   3  -7  -4   15.92    0.66
  -3  -7  -5   12.66    0.60
   3   7  -5   13.21    0.55
  -3  -7  -5   14.13    0.53
  -3   7  -5   13.37    0.61
   3  -7  -5   14.21    0.55
   4   7   0   60.26    1.88
  -4  -7   0   64.98    1.90
   4   7   0   63.52    1.88
   4   7   0   59.48    1.89
   4   7  -1  112.99    3.26
   4   7  -1  109.50    3.22
   4   7  -1  107.53    3.25
  -4  -7  -1  111.32    3.27
   4   7   1  104.34    3.27
   4   7   1  109.50    3.20
  -4   7  -1  102.07    3.28
  -4  -7   1  109.51    3.24
  -4  -7  -2   46.68    1.43
   4   7  -2   44.27    1.42
   4   7  -2   44.20    1.40
   4   7   2   46.00    1.46
  -4   7  -2   42.93    1.44
   4  -7  -2   43.80    1.43
  -4   7  -2   45.56    1.36
  -4  -7   2   44.88    1.38
   4  -7   3   66.96    2.00
  -4  -7  -3   70.70    2.00
   4   7  -3   65.52    2.10
   4   7  -3   66.74    2.07
  -4  -7  -3   65.69    2.09
  -4  -7   3   66.71    2.03
  -4   7  -3   65.59    2.03
  -4   7  -3   65.51    2.11
   4  -7   4   25.20    0.83
  -4  -7  -4   26.66    0.82
   4   7  -4   25.06    0.88
  -4  -7  -4   25.20    0.90
   4   7  -4   23.09    0.91
   4  -7  -4   26.53    0.95
  -4   7  -4   25.55    0.93
  -4   7  -4   25.02    0.84
  -4  -7  -5   31.26    1.19
   4   7  -5   28.69    1.06
   4  -7   5   31.05    1.02
   4   7  -5   31.80    1.14
  -4   7  -5   29.20    1.11
   4  -7  -5   31.00    1.05
   5   7   0   12.50    0.42
  -5   7   0   12.00    0.45
   5   7   0   11.80    0.43
   5   7   0   12.38    0.44
   5   7  -1    0.12    0.05
  -5  -7  -1    0.10    0.06
   5   7  -1    0.18    0.06
   5   7  -1    0.12    0.06
  -5  -7   1    0.22    0.06
  -5   7  -1    0.11    0.07
   5   7   1    0.14    0.04
   5   7   1    0.15    0.07
  -5   7  -1    0.20    0.05
   5   7  -2    8.59    0.36
  -5  -7  -2    9.20    0.37
   5   7  -2    8.37    0.34
   5   7  -2    8.95    0.30
   5  -7   2    8.83    0.28
   5  -7  -2    9.03    0.38
  -5   7  -2    8.55    0.30
  -5  -7   2    8.51    0.33
  -5   7  -2    9.01    0.38
   5   7   2    8.80    0.39
  -5  -7  -3    0.15    0.08
   5  -7   3    0.16    0.04
   5   7  -3    0.10    0.06
   5   7  -3    0.09    0.06
  -5   7  -3    0.10    0.05
  -5   7  -3    0.12    0.07
  -5  -7   3    0.11    0.06
  -5  -7  -4    3.54    0.27
   5  -7   4    3.81    0.21
   5   7  -4    3.12    0.25
   5  -7  -4    3.42    0.34
  -5   7  -4    3.35    0.26
   5  -7   5    0.08    0.17
   5   7  -5    0.03    0.11
   5   7  -5   -0.04    0.08
   5  -7  -5    0.17    0.12
  -5   7  -5    0.06    0.12
  -6  -7   0    1.65    0.12
   6   7   0    1.62    0.12
   6   7   0    1.67    0.10
  -6   7   0    1.31    0.07
   6   7   0    1.42    0.11
   6   7  -1   19.56    0.65
   6   7  -1   19.80    0.66
   6   7  -1   20.40    0.67
   6  -7   1   20.34    0.63
  -6   7  -1   19.08    0.68
  -6   7  -1   19.47    0.60
   6   7   1   19.41    0.69
  -6  -7   1   20.34    0.67
  -6  -7  -2    1.56    0.15
   6  -7   2    1.32    0.08
   6   7  -2    1.25    0.12
   6   7  -2    1.34    0.11
   6   7  -2    1.33    0.09
  -6   7  -2    1.34    0.14
  -6   7  -2    1.29    0.08
   6  -7  -2    1.26    0.15
  -6  -7   2    1.20    0.12
   6   7   2    1.53    0.15
   6   7  -3   11.18    0.48
  -6  -7  -3   12.35    0.48
   6  -7   3   11.29    0.40
  -6   7  -3   12.26    0.50
  -6   7  -3   11.58    0.41
  -6  -7   3   11.26    0.44
   6   7  -4    0.74    0.14
   6   7  -4    0.80    0.12
  -6  -7  -4    0.82    0.14
   6  -7   4    1.12    0.14
  -6   7  -4    0.94    0.16
   6  -7  -4    1.04    0.19
   6   7  -5    4.55    0.34
  -6   7  -5    4.58    0.34
   6  -7  -5    4.69    0.32
   7   7   0    6.07    0.26
   7   7   0    6.91    0.25
  -7   7   0    6.24    0.21
   7  -7   0    6.26    0.25
   7   7   0    6.23    0.27
   7   7  -1    0.91    0.09
   7  -7   1    0.87    0.08
   7   7  -1    0.69    0.09
  -7  -7  -1    0.84    0.11
   7   7  -1    0.95    0.10
  -7   7  -1    0.87    0.11
   7   7   1    0.97    0.11
  -7  -7   1    0.97    0.13
   7   7  -2    4.63    0.20
   7  -7   2    4.72    0.19
   7   7  -2    4.44    0.24
   7   7  -2    4.49    0.22
  -7  -7  -2    4.99    0.26
   7  -7  -2    4.74    0.23
  -7   7  -2    4.60    0.25
   7   7   2    4.80    0.26
  -7  -7   2    4.65    0.22
   7   7  -3    0.47    0.08
   7   7  -3    0.81    0.08
  -7  -7  -3    0.62    0.11
   7  -7   3    0.60    0.09
   7   7  -3    0.76    0.11
   7   7  -3    0.51    0.11
  -7  -7   3    0.69    0.11
  -7   7  -3    0.56    0.12
   7  -7   4    2.61    0.20
   7   7  -4    2.74    0.20
  -7  -7  -4    3.45    0.28
   7   7  -4    2.73    0.23
  -7   7  -4    2.76    0.24
  -8  -7   0  566.24   16.92
   8  -7   0  554.57   17.00
   8   7   0  515.22   16.92
   8   7   0  615.93   17.09
   8   7   0  582.65   16.86
   8  -7   1  138.09    4.19
   8   7  -1  141.08    4.21
  -8  -7  -1  144.76    4.24
   8   7  -1  146.94    4.22
   8   7  -1  140.19    4.21
  -8   7  -1  133.23    4.23
   8   7   1  136.89    4.24
   8  -7  -1  140.70    4.22
   8   7   1  143.20    4.21
   8   7  -2  445.61   12.99
   8  -7   2  433.13   12.84
   8   7  -2  438.48   12.78
   8   7  -2  447.38   12.91
  -8  -7  -2  427.92   12.75
  -8   7  -2  373.56   12.74
  -8  -7   2  449.15   12.73
   8  -7   3   91.28    2.82
   8   7  -3   95.02    2.81
  -8  -7  -3   96.33    2.89
   8   7  -3   96.46    2.83
   8   7  -3   89.27    2.87
   8   7  -3   95.88    2.92
  -8   7  -3   92.37    2.90
  -8  -7   3   91.42    2.86
  -8  -7  -4  233.78    6.90
   8   7  -4  225.84    6.97
   8   7  -4  233.16    6.92
   8  -7   4  229.33    6.86
  -8   7  -4  229.09    6.94
  -9  -7   0    0.95    0.13
   9   7   0    0.95    0.11
   9  -7   0    0.92    0.10
   9   7   0    0.71    0.09
   9   7   0    0.76    0.10
   9   7  -1   11.74    0.45
   9  -7   1   12.54    0.44
   9   7  -1   12.24    0.46
   9   7  -1   12.21    0.46
   9   7   1   12.40    0.49
   9  -7  -1   12.59    0.47
   9   7   1   12.65    0.45
   9  -7   2    0.60    0.10
   9   7  -2    0.72    0.10
   9   7  -2    0.59    0.09
   9   7  -2    0.86    0.12
  -9  -7  -2    0.70    0.12
  -9   7  -2    0.91    0.13
  -9  -7   2    0.58    0.09
  -9  -7  -3    7.40    0.37
   9   7  -3    6.76    0.33
   9   7  -3    7.00    0.35
   9  -7   3    7.44    0.30
   9   7  -3    7.44    0.29
  -9  -7   3    6.79    0.34
  -9   7  -3    6.98    0.35
   9  -7   4    0.51    0.12
  -9  -7  -4    0.37    0.15
   9   7  -4    0.26    0.12
   9   7  -4    0.48    0.10
  -9   7  -4    0.58    0.13
 -10  -7   0   37.23    1.21
  10   7   0   37.26    1.18
  10  -7   0   38.07    1.18
  10   7   0   36.57    1.20
  10   7   0   34.37    1.23
  10   7  -1    8.70    0.35
  10   7  -1    8.59    0.35
  10   7  -1    7.91    0.34
  10  -7   1    8.28    0.33
  10   7   1    8.29    0.34
  10  -7  -1    8.67    0.36
  10  -7   2   27.73    0.91
 -10  -7  -2   28.34    0.97
  10   7  -2   28.61    0.94
  10   7  -2   26.59    0.95
  10   7  -2   28.33    0.92
 -10   7  -2   28.29    0.96
 -10  -7  -3    5.96    0.35
  10   7  -3    5.77    0.33
  10  -7   3    5.79    0.28
  10   7  -3    6.39    0.31
  10   7  -3    6.12    0.27
 -10  -7   3    5.55    0.39
 -10   7  -3    6.14    0.32
  10  -7   4   15.33    0.60
 -10  -7  -4   15.92    0.71
  10   7  -4   14.29    0.65
  10   7  -4   14.53    0.60
 -10   7  -4   15.49    0.62
  11   7   0    0.07    0.06
  11  -7   0    0.06    0.05
  11   7   0    0.07    0.05
  11   7   0    0.02    0.05
  11  -7   1    1.37    0.13
  11   7  -1    1.15    0.13
  11   7  -1    1.18    0.13
  11   7  -1    1.20    0.13
  11  -7  -1    1.20    0.18
  11   7   1    1.25    0.12
 -11  -7  -2   -0.07    0.10
  11   7  -2    0.05    0.07
  11  -7   2    0.07    0.06
  11   7  -2    0.10    0.06
  11   7  -2    0.02    0.06
  11   7   2    0.13    0.07
 -11  -7  -3    0.72    0.16
  11  -7   3    0.87    0.12
  11   7  -3    0.90    0.14
  11   7  -3    0.61    0.13
  11   7  -3    0.74    0.11
 -11   7  -3    0.83    0.14
  11   7  -4   -0.06    0.10
  11   7  -4    0.07    0.09
 -11   7  -4    0.12    0.11
  12  -7   0   20.90    0.74
  12   7   0   21.54    0.70
  12   7   0   20.47    0.72
 -12  -7  -1   33.39    1.13
  12   7  -1   32.39    1.08
  12   7  -1   32.51    1.10
  12   7  -1   33.84    1.08
  12  -7   1   32.13    1.08
  12   7   1   33.07    1.08
  12   7  -2   16.76    0.62
 -12  -7  -2   17.19    0.67
  12   7  -2   16.97    0.64
  12  -7   2   16.92    0.61
  12   7  -2   15.76    0.62
  12   7   2   17.49    0.61
  12   7  -3   24.79    0.83
  12  -7   3   22.43    0.81
  12   7  -3   21.77    0.85
  12   7  -3   22.74    0.79
  13  -7   0   22.66    0.81
  13   7   0   21.04    0.71
  13   7   0   19.46    0.72
  13   7  -1    2.67    0.19
 -13  -7  -1    3.34    0.42
  13  -7   1    2.47    0.22
  13   7  -1    2.86    0.20
  13   7   1    2.83    0.19
  13   7  -2   16.36    0.63
  13   7  -2   15.58    0.60
  13  -7   2   14.39    0.65
  13   7  -2   18.19    0.63
  13   7  -3    2.31    0.23
  13   7  -3    2.57    0.21
  13   7  -3    2.12    0.22
  13  -7   3    2.54    0.25
  14   7   0  148.25    4.44
  14   7  -1  149.89    4.41
  14   7  -1  140.79    4.39
  14  -7   1  145.95    4.43
  14   7   1  146.44    4.39
  14   7  -2  113.01    3.40
  14   7  -2  109.21    3.42
  14  -7   2  108.42    3.40
  14   7  -2  109.94    3.39
  14   7   2  113.08    3.37
  14   7  -3   96.74    2.98
  14   7  -3   97.69    2.96
  14  -7   3   93.17    2.98
  15   7   0    8.33    0.35
  15   7   0    7.66    0.35
  15   7  -1    3.42    0.22
  15  -7   1    3.72    0.39
  15   7  -1    3.48    0.24
  15   7   1    3.75    0.23
  15   7  -2    6.03    0.34
  15   7  -2    5.88    0.36
  15  -7   2    5.95    0.35
  15   7  -2    6.04    0.31
  15   7   2    5.82    0.30
  16   7   0    8.09    0.35
  16   7   0    7.04    0.34
  16   7  -1    3.62    0.23
  16   7  -1    3.50    0.25
  16  -7   1    4.28    0.31
  16   7   1    3.53    0.24
   0   8   0   20.03    0.67
   0  -8   0   19.86    0.65
   0   8   0   20.50    0.65
   0   8  -1  170.82    5.09
   0  -8   1  167.02    5.07
   0   8  -1  173.69    5.05
   0  -8  -1  168.81    5.07
   0   8  -2   15.43    0.52
   0   8   2   15.59    0.58
   0  -8  -2   15.01    0.57
   0  -8   2   15.78    0.48
   0  -8  -3  106.44    3.26
   0  -8   3  108.63    3.15
   0   8  -3  104.85    3.20
   0   8  -3  104.43    3.26
   0  -8  -4   12.26    0.55
   0   8  -4   12.68    0.53
   0   8  -4   11.81    0.47
   0   8  -5   48.68    1.59
   1   8   0    7.69    0.29
   1  -8   0    7.58    0.28
  -1  -8   0    7.57    0.28
  -1   8   0    7.39    0.30
  -1   8   0    7.55    0.27
   1   8   0    7.70    0.28
   1   8   0    7.68    0.28
   1  -8   1   43.13    1.29
   1   8  -1   43.84    1.33
  -1  -8  -1   41.61    1.35
   1   8  -1   42.44    1.36
   1   8   1   43.27    1.36
  -1   8  -1   41.86    1.36
   1  -8  -1   43.55    1.35
  -1  -8   1   43.04    1.31
  -1   8  -1   44.14    1.32
   1   8  -2    5.26    0.27
  -1  -8  -2    5.63    0.27
   1   8  -2    5.40    0.23
  -1   8  -2    5.62    0.23
  -1   8  -2    5.58    0.28
   1   8   2    5.67    0.29
  -1  -8   2    6.01    0.20
   1  -8  -2    5.41    0.28
   1   8  -3   23.52    0.86
  -1  -8  -3   25.12    0.87
   1   8  -3   23.86    0.81
  -1  -8   3   24.47    0.77
   1   8   3   23.79    0.95
   1  -8  -3   28.51    1.03
  -1   8  -3   23.64    0.87
  -1   8  -3   23.43    0.80
   1   8  -4    3.35    0.21
   1   8  -4    3.33    0.24
  -1  -8  -4    3.35    0.29
   1  -8  -4    3.65    0.31
  -1   8  -4    3.49    0.20
  -1   8  -4    3.27    0.25
  -1  -8  -5   11.32    0.47
   1   8  -5   10.62    0.47
  -1   8  -5   11.38    0.47
  -1   8  -5   10.64    0.56
  -2   8   0   83.06    2.48
   2   8   0   84.42    2.51
   2   8   0   86.31    2.50
   2  -8   0   81.65    2.49
  -2  -8   0   83.08    2.51
   2   8   0   82.27    2.50
  -2   8   0   80.31    2.51
   2   8  -1   43.72    1.36
  -2  -8  -1   42.16    1.36
   2   8  -1   42.56    1.33
   2   8   1   43.77    1.32
   2   8   1   43.18    1.37
  -2   8  -1   42.33    1.37
  -2   8  -1   42.53    1.31
  -2  -8   1   44.69    1.32
   2  -8  -1   43.27    1.35
  -2  -8  -2   61.54    1.94
   2   8  -2   60.72    1.90
   2   8  -2   62.08    1.94
  -2  -8   2   62.29    1.86
  -2   8  -2   60.07    1.95
   2  -8  -2   63.36    1.94
   2   8   2   63.15    1.96
  -2   8  -2   62.69    1.88
   2   8  -3   23.98    0.85
   2   8  -3   23.66    0.80
   2  -8   3   23.86    0.73
  -2  -8  -3   24.62    0.85
  -2   8  -3   22.59    0.85
  -2   8  -3   23.92    0.78
  -2  -8   3   24.48    0.76
   2   8  -4   29.44    0.99
  -2  -8  -4   29.86    1.04
   2   8  -4   27.71    1.03
   2  -8  -4   30.20    1.05
  -2   8  -4   27.97    1.04
  -2   8  -4   29.46    0.97
   2   8  -5   10.23    0.45
  -2  -8  -5   10.91    0.45
   2   8  -5    8.70    0.55
  -2   8  -5   10.31    0.51
  -2   8  -5    9.93    0.43
  -3   8   0    2.89    0.16
   3   8   0    2.49    0.15
  -3   8   0    2.92    0.13
   3   8   0    2.91    0.15
  -3  -8   0    2.95    0.16
   3   8   0    2.80    0.15
   3   8  -1    5.76    0.20
   3   8  -1    5.88    0.25
  -3  -8  -1    5.75    0.26
   3   8  -1    5.74    0.24
   3   8   1    5.55    0.21
  -3   8  -1    5.87    0.27
  -3   8  -1    5.63    0.21
  -3  -8   1    6.04    0.23
   3   8   1    5.53    0.26
   3  -8  -1    5.44    0.25
   3   8  -2    2.03    0.15
   3   8  -2    1.94    0.13
  -3  -8  -2    2.20    0.16
  -3  -8   2    1.95    0.11
  -3   8  -2    2.11    0.17
   3  -8  -2    2.02    0.16
   3   8   2    1.90    0.17
   3   8  -3    3.34    0.21
   3  -8   3    3.05    0.12
   3   8  -3    2.88    0.18
  -3  -8  -3    2.80    0.22
  -3   8  -3    2.88    0.21
  -3  -8   3    2.72    0.15
  -3   8  -3    2.79    0.16
  -3  -8  -4    1.09    0.13
   3  -8   4    0.88    0.11
  -3  -8  -4    0.81    0.15
   3   8  -4    0.92    0.12
   3   8  -4    0.57    0.12
   3  -8  -4    0.61    0.17
  -3   8  -4    0.88    0.11
  -3   8  -4    0.85    0.15
   3   8  -5    0.88    0.14
   3   8  -5    0.80    0.16
  -3   8  -5    1.02    0.19
   3  -8  -5    1.43    0.21
   4   8   0   30.44    0.97
  -4  -8   0   30.56    0.98
  -4   8   0   30.36    0.95
   4   8   0   31.18    0.97
   4   8   0   31.25    0.97
  -4   8   0   29.91    0.99
  -4  -8  -1   84.66    2.55
   4   8  -1   84.70    2.54
   4   8  -1   83.27    2.49
   4   8  -1   83.36    2.53
  -4   8  -1   80.52    2.56
  -4   8  -1   81.72    2.48
   4   8   1   84.07    2.48
  -4  -8   1   87.01    2.52
   4   8   1   81.31    2.55
  -4  -8  -2   24.25    0.82
   4   8  -2   23.22    0.80
   4   8  -2   22.59    0.78
  -4  -8   2   23.39    0.75
  -4   8  -2   23.39    0.74
  -4   8  -2   23.42    0.83
   4  -8  -2   23.53    0.81
   4   8   2   24.21    0.84
   4  -8   3   50.15    1.47
  -4  -8  -3   50.39    1.59
   4   8  -3   46.66    1.58
   4   8  -3   46.28    1.55
  -4   8  -3   49.46    1.61
  -4   8  -3   50.06    1.51
  -4  -8   3   49.79    1.52
   4   8  -4   13.34    0.59
  -4  -8  -4   15.17    0.60
   4   8  -4   14.39    0.56
   4  -8   4   14.38    0.49
  -4   8  -4   14.96    0.53
  -4   8  -4   13.12    0.59
   4  -8  -4   14.22    0.64
   4   8  -5   22.77    0.84
   4   8  -5   22.26    0.90
   4  -8  -5   23.08    0.84
  -4   8  -5   22.38    0.89
   5   8   0  224.79    6.69
  -5   8   0  204.31    6.61
   5   8   0  238.77    6.64
  -5  -8   0  213.86    6.60
  -5   8   0  212.57    6.54
   5   8   0  238.96    6.58
   5   8  -1   65.90    1.94
   5   8  -1   62.77    1.90
   5   8  -1   64.59    1.93
  -5   8  -1   61.85    1.87
  -5   8  -1   59.00    1.95
   5   8   1   62.35    1.95
  -5  -8   1   63.90    1.92
   5   8   1   61.86    1.87
   5   8  -2  168.82    4.92
   5   8  -2  164.79    4.99
   5   8  -2  165.35    5.01
   5  -8   2  175.08    4.94
  -5   8  -2  165.21    4.94
  -5  -8   2  169.46    4.97
  -5   8  -2  160.77    5.03
   5   8   2  169.70    5.04
   5  -8  -2  162.29    5.02
   5   8  -3   35.19    1.19
   5   8  -3   35.87    1.23
   5  -8   3   37.30    1.12
  -5  -8  -3   38.55    1.23
  -5   8  -3   37.69    1.15
  -5   8  -3   35.18    1.24
  -5  -8   3   36.82    1.17
   5   8  -4   79.09    2.54
   5  -8   4   85.19    2.47
  -5  -8  -4   83.70    2.56
   5   8  -4   79.81    2.58
  -5   8  -4   82.52    2.49
  -5   8  -4   77.50    2.59
   5   8  -5   20.98    1.00
   5   8  -5   21.08    0.85
  -5   8  -5   19.65    0.84
   5  -8  -5   19.98    0.77
   6   8   0   14.10    0.47
   6   8   0   13.54    0.49
   6   8   0   13.68    0.49
   6   8  -1  386.16   11.08
   6   8  -1  363.20   11.04
   6   8  -1  374.32   11.01
  -6  -8  -1  370.07   11.08
   6   8   1  352.57   10.88
  -6  -8   1  377.28   11.00
   6   8   1  393.31   10.83
  -6   8  -1  324.07   10.88
   6   8  -2   11.88    0.45
   6  -8   2   12.30    0.39
   6   8  -2   12.31    0.41
   6   8  -2   12.72    0.48
   6  -8  -2   11.77    0.48
  -6   8  -2   11.54    0.49
   6   8   2   12.58    0.50
  -6  -8   2   11.89    0.44
  -6   8  -2   12.10    0.40
   6   8  -3  219.87    6.72
   6  -8   3  224.69    6.61
  -6  -8  -3  226.97    6.71
   6   8  -3  224.68    6.69
  -6  -8   3  231.88    6.66
  -6   8  -3  224.20    6.63
  -6   8  -3  214.14    6.73
  -6  -8  -4    9.30    0.46
   6   8  -4    9.80    0.44
   6  -8   4   11.19    0.39
   6   8  -4    9.03    0.46
  -6   8  -4   10.09    0.48
   7   8   0    2.56    0.15
   7   8   0    2.33    0.16
  -7   8   0    2.15    0.10
   7   8   0    2.41    0.14
   7   8  -1    3.64    0.19
  -7  -8  -1    3.99    0.22
   7  -8   1    3.68    0.16
   7   8  -1    3.76    0.18
   7   8  -1    3.68    0.20
  -7   8  -1    3.71    0.22
  -7   8  -1    3.43    0.13
  -7  -8   1    3.80    0.20
   7   8   1    3.70    0.19
   7   8   1    3.66    0.22
   7   8  -2    1.52    0.13
   7   8  -2    1.51    0.14
   7   8  -2    1.68    0.11
  -7   8  -2    1.62    0.16
  -7  -8   2    1.66    0.13
  -7   8  -2    1.37    0.09
  -7  -8  -3    1.47    0.20
   7   8  -3    1.71    0.10
   7   8  -3    1.60    0.15
   7  -8   3    1.73    0.11
   7   8  -3    1.42    0.16
  -7   8  -3    1.48    0.18
  -7  -8   3    1.54    0.17
   7   8  -4    0.50    0.13
   7  -8   4    0.49    0.10
   7   8  -4    0.46    0.10
  -7  -8  -4    0.50    0.15
  -7   8  -4    0.54    0.14
   8   8   0   12.36    0.47
   8   8   0   12.83    0.49
   8   8   0   13.62    0.45
   8  -8   0   13.26    0.47
   8   8  -1    7.41    0.32
  -8  -8  -1    7.94    0.35
   8  -8   1    7.89    0.30
   8   8  -1    8.06    0.32
   8   8  -1    7.89    0.33
   8   8   1    8.16    0.35
   8   8   1    8.26    0.33
  -8   8  -1    7.36    0.34
   8  -8  -1    7.71    0.33
  -8  -8   1    7.89    0.34
  -8  -8  -2   10.34    0.42
   8   8  -2    9.99    0.36
   8   8  -2    9.44    0.39
   8  -8   2    9.53    0.34
   8   8  -2    9.38    0.40
  -8   8  -2    9.04    0.41
  -8  -8   2    9.27    0.39
   8   8  -3    4.69    0.22
  -8  -8  -3    5.07    0.30
   8   8  -3    4.64    0.26
   8  -8   3    4.54    0.21
   8   8  -3    4.24    0.26
   8   8  -3    5.03    0.20
  -8   8  -3    4.36    0.28
  -8  -8   3    4.62    0.27
   8   8  -4    4.98    0.32
  -8  -8  -4    5.28    0.37
   8   8  -4    4.79    0.29
   8  -8   4    5.08    0.27
  -8   8  -4    4.67    0.32
   9  -8   0    5.69    0.25
   9   8   0    4.98    0.25
   9   8   0    5.61    0.27
   9   8   0    5.87    0.26
   9   8  -1    5.10    0.24
   9   8  -1    4.64    0.24
   9   8  -1    5.02    0.24
   9  -8   1    4.83    0.22
   9   8   1    4.86    0.24
   9  -8  -1    5.19    0.25
   9   8  -2    3.75    0.23
   9   8  -2    4.51    0.21
   9  -8   2    3.66    0.19
   9   8  -2    3.64    0.22
  -9  -8  -2    4.43    0.27
  -9   8  -2    3.77    0.25
  -9  -8   2    3.54    0.22
   9  -8   3    3.24    0.18
   9   8  -3    3.15    0.22
   9   8  -3    3.06    0.21
  -9  -8  -3    3.08    0.27
   9   8  -3    2.67    0.22
   9   8  -3    3.15    0.17
  -9  -8   3    3.03    0.25
  -9   8  -3    3.06    0.24
   9   8  -4    1.84    0.18
   9  -8   4    1.34    0.21
  -9   8  -4    1.58    0.22
 -10  -8   0  136.62    4.13
  10   8   0  133.10    4.08
  10  -8   0  132.78    4.06
  10   8   0  133.95    4.06
  10   8   0  136.95    4.02
  10   8  -1   88.42    2.65
  10   8  -1   86.12    2.65
  10   8  -1   84.68    2.65
  10  -8   1   85.25    2.63
  10   8   1   85.80    2.65
  10  -8  -1   89.69    2.67
  10   8  -2  101.58    3.14
  10   8  -2  103.58    3.11
  10  -8   2  101.34    3.10
 -10  -8  -2  106.25    3.17
  10   8  -2  103.35    3.16
 -10  -8   2  102.06    3.15
 -10   8  -2  100.12    3.16
  10  -8   3   52.52    1.66
  10   8  -3   55.43    1.65
  10   8  -3   51.64    1.75
  10   8  -3   53.67    1.72
 -10  -8  -3   53.15    1.74
 -10   8  -3   53.64    1.74
  10  -8   4   53.98    1.72
  10   8  -4   52.94    1.77
  10   8  -4   54.43    1.82
 -10   8  -4   54.59    1.78
  11   8   0   46.82    1.53
  11   8   0   49.42    1.50
  11  -8   0   49.12    1.54
  11   8  -1   51.15    1.61
  11  -8   1   53.58    1.61
  11   8  -1   50.40    1.61
  11   8  -1   49.44    1.62
  11   8   1   50.14    1.61
  11   8  -2   37.19    1.27
 -11  -8  -2   37.88    1.29
  11   8  -2   37.46    1.26
  11   8  -2   39.31    1.24
  11  -8   2   38.26    1.23
  11   8   2   39.64    1.24
  11   8  -3   33.52    1.06
  11  -8   3   32.72    1.07
  11   8  -3   31.17    1.14
  11   8  -3   31.70    1.11
 -11   8  -3   33.01    1.12
  12  -8   0    5.26    0.35
  12   8   0    5.59    0.25
  12   8   0    5.28    0.27
  12   8  -1   84.82    2.62
  12   8  -1   87.40    2.62
  12   8  -1   84.27    2.63
  12  -8   1   84.82    2.62
  12   8   1   83.82    2.61
  12   8  -2    5.36    0.30
  12  -8   2    5.37    0.27
  12   8  -2    5.64    0.29
  12   8  -2    5.39    0.28
  12   8   2    5.18    0.27
  12  -8   3   54.65    1.73
  12   8  -3   54.61    1.80
  12   8  -3   53.18    1.76
  12   8  -3   55.17    1.72
  13   8   0    1.71    0.15
  13  -8   0    1.86    0.18
  13   8   0    1.57    0.16
  13   8  -1    0.96    0.13
  13   8  -1    0.94    0.14
  13   8   1    1.11    0.14
  13   8  -2    1.27    0.18
  13   8  -2    1.11    0.15
  13  -8   2    1.38    0.18
  13   8  -2    1.21    0.17
  13   8   2    1.42    0.15
  13   8  -3    0.59    0.13
  13  -8   3    0.67    0.15
  13   8  -3    0.51    0.11
  13   8   3    0.70    0.16
  14   8   0    0.43    0.10
  14   8   0    0.26    0.09
  14   8  -1    0.85    0.13
  14  -8   1    0.63    0.13
  14   8  -1    0.53    0.12
  14  -8   2    0.29    0.12
  14   8  -2    0.04    0.11
  14   8  -2    0.20    0.10
  14   8  -2    0.24    0.11
  14   8   2    0.22    0.09
  15   8   0   15.07    0.59
  15   8   0   16.70    0.57
  15  -8   1   10.95    0.50
  15   8  -1   10.54    0.45
  15   8  -1   11.48    0.47
  15   8   1   11.58    0.46
  15   8  -2   12.67    0.56
  15   8  -2   13.19    0.56
  15  -8   2   12.49    0.56
  15   8  -2   13.13    0.53
  15   8   2   13.32    0.52
  16  -8   0   13.91    0.63
  16   8   0   14.28    0.55
  16   8  -1   51.40    1.68
  16   8  -1   55.63    1.70
  16   8  -1   50.90    1.74
  16  -8   1   51.76    1.73
  16   8   1   53.08    1.68
   0   9   0    0.25    0.06
   0   9   0    0.08    0.03
   0   9  -1    0.06    0.04
   0  -9   1    0.16    0.04
   0   9  -1    0.04    0.06
   0  -9  -1    0.10    0.05
   0   9  -2    0.08    0.06
   0  -9   2    0.03    0.02
   0   9  -2    0.04    0.04
   0   9  -3    0.04    0.05
   0   9  -3    0.04    0.06
   0   9  -4    0.05    0.08
   0  -9  -4    0.21    0.15
   0   9  -4    0.28    0.08
   0   9  -5   -0.02    0.09
   0   9  -5    0.07    0.08
  -1   9   0    3.70    0.16
  -1  -9   0    4.14    0.18
   1   9   0    3.59    0.18
  -1   9   0    3.64    0.19
   1  -9   0    4.25    0.18
   1   9   0    3.55    0.19
   1  -9   1   19.03    0.60
   1   9  -1   19.84    0.64
  -1  -9  -1   19.67    0.66
   1   9  -1   19.36    0.67
   1   9   1   19.16    0.63
   1  -9  -1   19.33    0.66
  -1   9  -1   19.88    0.63
  -1   9  -1   18.25    0.67
  -1  -9   1   19.58    0.62
   1   9   1   18.41    0.66
   1   9  -2    3.13    0.20
   1   9  -2    3.19    0.17
  -1  -9  -2    3.59    0.22
  -1   9  -2    2.93    0.16
  -1   9  -2    3.36    0.21
   1  -9  -2    3.10    0.20
  -1  -9   2    3.33    0.14
   1   9   2    3.06    0.21
   1   9  -3   11.34    0.48
   1  -9   3   11.83    0.37
   1   9  -3   11.47    0.44
  -1   9  -3   11.64    0.43
  -1  -9   3   11.61    0.39
  -1   9  -3   11.79    0.50
  -1  -9  -4    2.43    0.28
   1   9  -4    2.51    0.23
   1   9  -4    2.48    0.18
   1  -9  -4    3.04    0.31
  -1   9  -4    2.59    0.23
  -1   9  -4    2.49    0.18
   1   9  -5    6.16    0.39
   1   9  -5    6.26    0.33
  -1  -9  -5    6.33    0.33
  -1   9  -5    6.19    0.33
  -1   9  -5    5.58    0.43
  -2   9   0   24.80    0.80
   2   9   0   25.02    0.81
   2   9   0   25.45    0.81
  -2  -9   0   25.71    0.82
  -2   9   0   25.21    0.84
   2  -9   0   25.90    0.81
   2   9  -1    3.13    0.16
  -2  -9  -1    3.22    0.18
   2   9  -1    3.23    0.19
  -2   9  -1    3.14    0.15
   2   9   1    3.05    0.15
  -2   9  -1    3.09    0.19
  -2  -9   1    3.37    0.16
   2  -9  -1    3.16    0.18
   2   9   1    3.01    0.18
   2   9  -2   19.86    0.69
  -2  -9  -2   21.30    0.74
   2   9  -2   19.97    0.73
   2   9   2   20.14    0.75
  -2   9  -2   20.37    0.74
  -2  -9   2   20.84    0.66
  -2   9  -2   21.11    0.68
   2  -9  -2   21.59    0.74
   2   9  -3    3.26    0.19
  -2  -9  -3    3.19    0.24
   2   9  -3    2.89    0.21
  -2   9  -3    2.95    0.17
  -2   9  -3    2.98    0.22
  -2  -9   3    3.07    0.15
   2   9  -4   11.50    0.52
   2   9  -4   11.34    0.47
  -2  -9  -4   11.96    0.55
  -2   9  -4   11.78    0.53
  -2   9  -4   11.52    0.46
   2  -9  -4   11.93    0.56
   2   9  -5    2.32    0.20
   2   9  -5    2.64    0.26
  -2  -9  -5    2.26    0.24
  -2   9  -5    1.96    0.18
  -2   9  -5    2.01    0.34
   3   9   0    4.77    0.21
  -3  -9   0    4.87    0.22
   3   9   0    5.15    0.21
  -3   9   0    4.80    0.19
   3   9   0    4.64    0.22
  -3   9   0    4.70    0.23
  -3  -9  -1    0.23    0.06
   3   9  -1    0.39    0.07
   3   9  -1    0.21    0.03
   3   9   1    0.20    0.07
  -3   9  -1    0.16    0.07
   3  -9  -1    0.21    0.05
  -3  -9   1    0.20    0.05
   3   9  -2    4.61    0.25
   3   9  -2    4.29    0.22
  -3  -9  -2    4.56    0.25
  -3  -9   2    4.68    0.20
  -3   9  -2    5.30    0.20
  -3   9  -2    4.41    0.26
   3   9   2    4.52    0.27
   3  -9  -2    4.44    0.25
   3   9  -3    0.16    0.08
  -3  -9  -3    0.09    0.09
  -3   9  -3    0.10    0.08
  -3   9  -3    0.20    0.06
   3   9  -4    3.62    0.26
  -3  -9  -4    3.87    0.32
   3   9  -4    3.80    0.23
  -3   9  -4    3.34    0.20
   3  -9  -4    3.64    0.48
  -3   9  -4    3.32    0.27
   3   9  -5    0.43    0.14
   3   9  -5    0.49    0.12
  -3   9  -5    0.32    0.17
  -3   9  -5    0.51    0.11
   3  -9  -5    0.51    0.15
  -4   9   0    3.41    0.15
   4   9   0    3.29    0.17
   4   9   0    3.31    0.17
  -4   9   0    2.89    0.18
   4   9   0    3.47    0.17
  -4  -9   0    3.71    0.19
   4   9  -1   61.29    1.80
  -4  -9  -1   54.55    1.90
   4   9  -1   59.95    1.85
   4   9  -1   58.91    1.84
  -4   9  -1   57.28    1.87
   4   9   1   61.43    1.87
  -4   9  -1   59.12    1.79
  -4  -9   1   63.99    1.83
   4   9   1   59.99    1.80
   4  -9  -1   59.75    1.85
   4   9  -2    2.89    0.19
   4   9  -2    2.97    0.17
  -4  -9  -2    3.08    0.21
  -4   9  -2    2.83    0.16
  -4   9  -2    3.07    0.21
  -4  -9   2    3.09    0.16
   4   9   2    2.98    0.22
   4  -9  -2    3.62    0.24
   4   9  -3   35.41    1.20
  -4  -9  -3   38.61    1.25
   4   9  -3   36.71    1.24
  -4   9  -3   36.84    1.16
  -4   9  -3   37.03    1.27
  -4  -9  -4    3.19    0.31
   4   9  -4    3.20    0.22
   4   9  -4    3.33    0.25
   4  -9   4    3.32    0.17
  -4   9  -4    3.27    0.27
  -4   9  -4    3.61    0.20
   4   9  -5   18.49    0.79
   4  -9  -5   19.30    0.74
  -5  -9   0    4.18    0.21
   5   9   0    4.37    0.20
   5   9   0    4.37    0.21
   5   9   0    4.29    0.20
  -5   9   0    3.86    0.22
  -5   9   0    4.21    0.17
   5   9  -1    0.64    0.09
   5   9  -1    0.49    0.08
  -5  -9  -1    0.41    0.07
  -5   9  -1    0.58    0.11
  -5   9  -1    0.55    0.06
  -5  -9   1    0.58    0.09
   5   9   1    0.48    0.07
   5   9   1    0.46    0.09
   5   9  -2    3.49    0.19
   5   9  -2    3.52    0.21
  -5  -9   2    3.71    0.19
  -5   9  -2    3.50    0.15
  -5   9  -2    3.47    0.23
   5   9   2    3.32    0.23
   5   9  -3    0.49    0.09
   5   9  -3    0.48    0.10
  -5  -9  -3    0.81    0.14
   5  -9   3    0.49    0.06
  -5   9  -3    0.64    0.13
  -5  -9   3    0.57    0.09
  -5   9  -3    0.66    0.09
  -5  -9  -4    2.52    0.29
   5   9  -4    2.09    0.21
   5   9  -4    2.11    0.18
   5  -9   4    2.26    0.16
  -5   9  -4    2.32    0.23
  -5   9  -4    2.06    0.16
   6   9   0    5.96    0.26
  -6   9   0    5.72    0.21
   6   9   0    5.98    0.25
   6   9   0    6.01    0.26
   6   9  -1   50.37    1.52
  -6  -9  -1   51.64    1.57
   6   9  -1   48.33    1.54
   6   9  -1   50.22    1.55
  -6   9  -1   48.91    1.58
  -6  -9   1   46.44    1.63
   6   9   1   50.52    1.57
   6   9   1   49.20    1.48
  -6   9  -1   47.81    1.48
   6   9  -2    4.39    0.23
   6   9  -2    4.89    0.19
   6  -9   2    4.69    0.18
   6   9  -2    4.54    0.25
  -6   9  -2    5.19    0.19
  -6   9  -2    4.53    0.27
  -6  -9   2    4.92    0.23
   6   9  -3   27.01    0.97
   6  -9   3   27.72    0.86
   6   9  -3   26.61    0.95
  -6  -9  -3   29.83    0.99
  -6   9  -3   28.67    1.00
  -6  -9   3   26.70    0.92
  -6   9  -3   28.21    0.89
   6  -9   4    3.12    0.18
   6   9  -4    2.77    0.24
  -6  -9  -4    3.29    0.47
   6   9  -4    2.82    0.21
  -6   9  -4    2.95    0.26
   7   9   0    0.71    0.10
  -7   9   0    0.54    0.06
   7   9   0    0.33    0.07
   7   9  -1    1.56    0.13
   7   9  -1    1.60    0.13
   7  -9   1    1.94    0.11
   7   9  -1    1.71    0.12
  -7  -9   1    1.60    0.14
  -7   9  -1    1.63    0.16
  -7   9  -1    1.64    0.08
   7   9   1    1.68    0.13
   7   9   1    1.62    0.15
   7   9   1    1.38    0.10
   7   9  -2    0.80    0.09
   7  -9   2    0.67    0.07
   7   9  -2    0.71    0.10
   7   9  -2    0.83    0.12
  -7   9  -2    0.58    0.12
  -7  -9   2    0.74    0.11
  -7   9  -2    0.76    0.08
   7   9  -3    0.46    0.12
  -7  -9  -3    0.34    0.12
   7  -9   3    0.64    0.08
   7   9  -3    0.42    0.10
  -7   9  -3    0.44    0.08
  -7   9  -3    0.37    0.11
  -7  -9   3    0.45    0.10
   7   9  -4    0.61    0.12
   7  -9   4    0.91    0.11
   7   9  -4    1.39    0.19
  -7   9  -4    0.71    0.16
   8   9   0    0.92    0.12
   8  -9   0    0.91    0.10
   8   9   0    0.78    0.10
   8   9  -1   28.66    0.95
  -8  -9  -1   30.63    1.01
   8  -9   1   30.14    0.94
   8   9  -1   29.01    0.97
   8   9  -1   30.21    0.98
   8   9   1   31.19    1.04
  -8   9  -1   26.85    1.00
  -8  -9   1   30.00    0.99
   8   9   1   28.22    0.96
   8   9  -2    1.06    0.11
   8  -9   2    1.02    0.09
   8   9  -2    0.94    0.14
  -8   9  -2    0.88    0.14
  -8  -9   2    1.01    0.13
   8  -9   3   12.67    0.44
   8   9  -3   12.04    0.53
   8   9  -3   12.03    0.50
  -8  -9  -3   13.38    0.55
  -8  -9   3   11.95    0.50
  -8   9  -3   12.48    0.54
   8   9  -4    0.97    0.15
   8  -9   4    1.38    0.18
  -8   9  -4    1.22    0.19
   9   9   0    0.48    0.09
   9  -9   0    0.63    0.10
   9   9   0    0.48    0.08
   9   9   0    0.79    0.11
   9   9  -1   56.79    1.79
   9   9  -1   55.37    1.79
   9   9  -1   56.56    1.78
   9  -9   1   57.84    1.76
   9  -9  -1   56.96    1.80
  -9  -9   1   59.70    1.86
  -9   9  -1   56.26    1.83
   9   9   1   57.98    1.79
  -9  -9  -2    0.86    0.13
   9   9  -2    0.74    0.12
   9   9  -2    0.95    0.13
   9   9  -2    1.10    0.12
   9  -9   2    0.92    0.10
  -9   9  -2    0.89    0.15
  -9  -9   2    0.55    0.11
   9   9  -3   35.77    1.24
   9   9  -3   37.97    1.13
  -9  -9  -3   33.90    1.23
   9   9  -3   35.66    1.21
   9  -9   3   35.40    1.14
   9   9  -3   38.70    1.12
  -9   9  -3   36.50    1.24
  -9  -9   3   33.49    1.20
   9   9  -4    0.82    0.14
   9   9  -4    1.01    0.18
  -9   9  -4    1.04    0.19
  10   9   0   18.03    0.66
  10   9   0   18.22    0.68
  10   9   0   18.52    0.63
  10  -9   0   19.96    0.67
  10   9  -1   55.74    1.73
  10   9  -1   54.24    1.73
  10   9  -1   53.10    1.74
  10  -9   1   55.38    1.72
  10   9   1   56.67    1.74
  10  -9  -1   55.83    1.75
 -10  -9  -2   15.64    0.61
  10   9  -2   14.53    0.58
  10  -9   2   14.64    0.52
  10   9  -2   15.34    0.54
  10   9  -2   14.51    0.56
 -10  -9   2   14.14    0.57
 -10   9  -2   14.37    0.59
  10   9  -3   36.75    1.12
  10   9  -3   36.42    1.15
  10   9  -3   34.69    1.23
  10  -9   3   34.84    1.14
  10   9  -3   35.14    1.21
 -10   9  -3   35.11    1.23
  10   9  -4    9.06    0.48
  10   9  -4    9.34    0.46
 -10   9  -4    9.78    0.48
  11   9   0    0.25    0.08
  11   9   0    0.25    0.08
  11  -9   0    0.28    0.08
  11   9   0    0.41    0.09
  11   9  -1    0.44    0.09
  11   9  -1    0.26    0.08
  11   9  -1    0.29    0.08
  11  -9   1    0.29    0.08
  11   9   1    0.35    0.09
  11  -9  -1    0.32    0.09
  11   9  -2    0.31    0.09
  11   9  -2    0.51    0.10
  11  -9   2    0.15    0.07
  11   9  -2    0.12    0.07
  11   9   2    0.33    0.09
  11   9  -3    0.10    0.10
  11   9  -3    0.13    0.08
  11  -9   3    0.19    0.09
  11   9  -3    0.29    0.09
 -11   9  -3    0.45    0.13
  12   9   0    0.25    0.08
  12   9   0    0.51    0.10
  12  -9   0    0.07    0.07
  12   9  -1    2.16    0.18
  12  -9   1    2.32    0.19
  12   9  -1    2.19    0.18
  12   9  -1    2.43    0.21
  12   9   1    2.20    0.18
  12   9  -2    0.38    0.11
  12  -9   2   -0.04    0.07
  12   9  -2    0.14    0.08
  12   9  -2    0.04    0.08
  12   9   2    0.05    0.07
  12  -9   3    2.28    0.21
  12   9  -3    2.09    0.21
  12   9  -3    1.91    0.19
  12   9  -3    1.66    0.20
 -12   9  -3    2.05    0.24
  13   9   0    6.57    0.32
  13   9   0    6.64    0.32
  13  -9   0    7.12    0.35
  13   9  -1   21.92    0.77
  13   9  -1   23.34    0.84
  13   9  -1   20.58    0.77
  13  -9   1   21.11    0.77
  13   9   1   21.06    0.76
  13  -9   2    5.37    0.29
  13   9  -2    5.01    0.29
  13   9  -2    4.94    0.30
  13   9  -2    5.66    0.32
  13   9   2    5.26    0.28
  13   9  -3   10.87    0.53
  13   9  -3   11.83    0.49
  13   9  -3   11.23    0.50
  13  -9   3   11.37    0.50
  13   9   3   11.20    0.47
  14   9   0   15.72    0.61
  14   9   0   16.43    0.57
  14  -9   0   15.83    0.64
  14   9  -1   15.04    0.59
  14  -9   1   14.92    0.60
  14   9  -1   15.30    0.58
  14   9   1   15.61    0.58
  14   9  -2   13.24    0.55
  14   9  -2   13.78    0.57
  14   9  -2   13.65    0.57
  14  -9   2   13.40    0.56
  15  -9   0   21.39    0.83
  15   9   0   22.57    0.86
  15   9  -1   24.84    0.89
  15   9  -1   25.66    0.89
  15  -9   1   24.87    0.92
  15   9  -1   26.13    0.94
  15   9   1   24.94    0.88
  16  -9   0    1.37    0.27
  16   9   0    1.54    0.19
   0 -10   0  213.96    6.61
   0  10   0  221.11    6.60
   0  10   0  231.32    6.62
   0 -10   1   70.05    2.14
   0 -10  -1   69.48    2.19
   0  10  -1   73.82    2.17
   0  10  -1   71.49    2.21
   0  10  -2  161.26    5.01
   0 -10   2  169.98    4.90
   0 -10  -2  169.90    5.01
   0  10  -2  163.34    4.95
   0 -10   3   44.42    1.30
   0  10  -3   41.62    1.36
   0  10  -3   42.43    1.43
   0  10  -4   85.21    2.57
   0  10  -4   80.08    2.64
   0  10  -5   24.16    0.89
   0  10  -5   25.16    0.98
  -1 -10   0    9.71    0.36
   1  10   0   10.04    0.38
   1 -10   0    9.96    0.36
  -1  10   0    9.09    0.36
  -1  10   0    9.69    0.38
   1  10   0    9.89    0.36
   1 -10   1  178.84    5.36
  -1 -10  -1  178.16    5.37
   1  10  -1  184.51    5.35
   1  10  -1  180.70    5.38
   1 -10  -1  183.74    5.37
  -1  10  -1  167.92    5.39
   1  10   1  174.49    5.37
  -1 -10   1  176.29    5.33
  -1  10  -1  189.42    5.34
   1  10   1  183.09    5.34
  -1 -10  -2    9.55    0.39
   1  10  -2    8.50    0.34
   1  10  -2    8.68    0.39
   1 -10   2    8.72    0.29
   1  10   2    8.87    0.40
   1 -10  -2    9.05    0.39
  -1  10  -2    8.52    0.39
  -1 -10   2    8.71    0.30
  -1  10  -2    9.01    0.34
   1  10  -3  111.87    3.37
   1  10  -3  108.89    3.43
   1 -10   3  114.18    3.29
  -1 -10   3  113.50    3.31
  -1  10  -3  110.18    3.44
  -1  10  -3  108.42    3.36
   1  10  -4    6.75    0.38
   1  10  -4    7.02    0.33
  -1  10  -4    6.97    0.38
  -1  10  -4    7.37    0.33
   1  10  -5   50.85    1.73
   1  10  -5   49.39    1.65
  -1  10  -5   50.68    1.73
  -1  10  -5   49.84    1.64
   2  10   0    3.90    0.19
  -2 -10   0    3.91    0.19
   2  10   0    3.91    0.18
   2 -10   0    3.79    0.18
  -2  10   0    3.63    0.20
  -2  10   0    3.89    0.17
   2  10   0    4.14    0.19
   2  10  -1    4.22    0.22
   2  10  -1    4.16    0.20
   2 -10   1    4.24    0.17
  -2 -10   1    4.27    0.19
   2  10   1    4.06    0.19
  -2  10  -1    4.11    0.23
   2  10   1    3.87    0.22
   2 -10  -1    4.21    0.22
  -2 -10  -2    2.42    0.19
   2  10  -2    2.32    0.15
   2  10  -2    2.40    0.18
  -2  10  -2    2.78    0.20
   2  10   2    2.59    0.20
  -2  10  -2    2.67    0.14
  -2 -10   2    2.48    0.13
   2  10  -3    1.70    0.14
   2  10  -3    1.92    0.19
  -2  10  -3    2.33    0.14
  -2  10  -3    1.94    0.19
  -2 -10   3    1.74    0.12
   2  10  -4    0.82    0.14
   2  10  -4    0.87    0.13
  -2  10  -4    0.94    0.13
  -2  10  -4    0.53    0.12
   2  10  -5    0.47    0.13
  -2  10  -5    0.67    0.13
  -3  10   0    8.05    0.34
  -3 -10   0    8.32    0.33
   3  10   0    8.46    0.32
  -3  10   0    8.19    0.30
   3  10   0    8.18    0.32
   3 -10   0    8.21    0.31
   3  10   0    8.10    0.32
   3  10  -1    0.58    0.10
   3  10  -1    0.33    0.06
   3 -10  -1    0.35    0.08
  -3  10  -1    0.55    0.11
  -3 -10   1    0.44    0.07
  -3  10  -1    0.40    0.06
   3  10   1    0.41    0.08
   3  10   1    0.59    0.08
  -3 -10  -2    6.52    0.32
   3  10  -2    6.14    0.30
   3  10  -2    6.19    0.28
   3  10   2    6.69    0.33
  -3 -10   2    6.44    0.25
  -3  10  -2    6.26    0.32
  -3  10  -2    6.31    0.25
   3  10  -3    0.40    0.10
  -3 -10  -3    0.41    0.15
   3  10  -3    0.54    0.09
  -3  10  -3    0.32    0.07
  -3 -10   3    0.38    0.07
  -3  10  -3    0.61    0.13
   3  10  -4    2.95    0.25
   3  10  -4    3.12    0.21
  -3  10  -4    3.36    0.27
  -3  10  -4    3.10    0.20
  -4  10   0    0.86    0.12
   4  10   0    1.03    0.10
  -4  10   0    1.03    0.09
  -4 -10   0    0.99    0.11
   4  10   0    1.06    0.11
   4  10   0    1.00    0.11
   4  10  -1    1.83    0.13
   4  10  -1    1.85    0.10
   4  10  -1    1.83    0.15
  -4  10  -1    1.81    0.16
   4  10   1    1.87    0.16
  -4  10  -1    1.82    0.11
   4  10   1    1.83    0.11
   4 -10  -1    1.73    0.14
  -4 -10   1    1.87    0.13
   4  10  -2    0.69    0.11
  -4 -10  -2    0.98    0.14
   4  10  -2    1.38    0.12
  -4  10  -2    1.02    0.09
  -4  10  -2    1.06    0.15
  -4 -10   2    1.06    0.11
  -4 -10  -3    0.53    0.12
   4  10  -3    0.60    0.10
   4  10  -3    0.52    0.12
  -4  10  -3    0.61    0.13
  -4  10  -3    0.61    0.08
  -4 -10   3    0.49    0.08
   4 -10   4    1.05    0.11
   4  10  -4    1.11    0.14
   4  10  -4    0.97    0.16
  -4  10  -4    0.97    0.16
  -4  10  -4    0.98    0.12
  -5  10   0   48.43    1.55
  -5  10   0   47.03    1.47
   5  10   0   46.99    1.52
   5  10   0   49.95    1.52
  -5 -10   0   49.56    1.53
   5  10   0   49.10    1.50
   5  10  -1   57.68    1.80
   5  10  -1   57.28    1.75
   5  10  -1   58.53    1.79
   5 -10  -1   57.87    1.80
   5  10   1   57.81    1.74
   5  10   1   57.11    1.81
  -5 -10   1   60.28    1.79
  -5  10  -1   55.72    1.83
  -5  10  -1   55.40    1.73
   5  10  -2   38.02    1.27
   5  10  -2   38.13    1.25
  -5  10  -2   38.46    1.19
  -5  10  -2   39.68    1.31
   5  10  -3   35.43    1.22
  -5 -10  -3   38.64    1.26
   5  10  -3   35.19    1.25
  -5  10  -3   37.70    1.28
  -5 -10   3   37.05    1.18
  -5  10  -3   37.91    1.17
   5 -10   4   23.55    0.72
   5  10  -4   21.52    0.86
   5  10  -4   22.13    0.82
  -5  10  -4   23.12    0.78
  -5  10  -4   22.70    0.89
   6  10   0  181.57    5.52
   6  10   0  194.00    5.50
   6  10   0  181.44    5.52
  -6  10   0  180.68    5.55
  -6 -10   0  196.29    5.55
  -6  10   0  175.22    5.46
   6  10  -1   44.67    1.41
   6  10  -1   44.86    1.37
   6  10  -1   43.49    1.40
  -6 -10   1   45.72    1.41
   6  10   1   45.11    1.43
  -6  10  -1   42.82    1.34
  -6  10  -1   41.89    1.44
   6  10   1   43.95    1.34
   6  10   1   45.56    1.40
   6 -10   2  142.23    4.17
   6  10  -2  143.56    4.26
   6  10  -2  138.85    4.27
  -6  10  -2  136.36    4.30
  -6 -10   2  143.83    4.23
  -6  10  -2  140.18    4.18
   6  10  -3   27.37    0.96
   6  10  -3   27.71    0.99
   6 -10   3   28.08    0.86
  -6 -10  -3   28.80    1.00
  -6  10  -3   28.01    1.02
  -6 -10   3   27.83    0.93
  -6  10  -3   28.35    0.90
   6  10  -4   71.43    2.32
   6 -10   4   73.43    2.16
   6  10  -4   69.64    2.27
  -6 -10   4   70.52    2.23
  -6  10  -4   70.87    2.33
  -6  10  -4   72.50    2.20
   7  10   0   54.92    1.78
  -7  10   0   55.33    1.72
   7  10   0   59.55    1.76
   7  10   0   59.37    1.79
   7  10  -1   71.41    2.17
   7  10  -1   69.10    2.17
   7  10  -1   70.99    2.14
   7  10   1   70.38    2.16
   7  10   1   71.55    2.09
   7  10   1   68.09    2.19
  -7  10  -1   68.27    2.21
  -7  10  -1   69.29    2.08
  -7 -10   1   71.55    2.18
   7 -10   2   45.72    1.40
   7  10  -2   48.12    1.41
   7  10  -2   45.98    1.48
   7  10  -2   44.94    1.49
  -7  10  -2   46.11    1.40
  -7  10  -2   45.82    1.53
  -7 -10   2   45.58    1.46
  -7 -10  -3   44.93    1.48
   7  10  -3   43.55    1.45
   7  10  -3   41.94    1.47
   7 -10   3   43.87    1.35
  -7 -10   3   43.45    1.42
  -7  10  -3   44.99    1.51
  -7  10  -3   46.24    1.37
   7  10  -4   24.59    0.95
   7 -10   4   28.80    0.96
  -7  10  -4   26.36    1.01
   8  10   0   -0.06    0.06
  -8  10   0   -0.02    0.05
   8  10   0    0.04    0.05
   8  10   0    0.07    0.06
   8 -10   1    2.91    0.16
   8  10  -1    2.75    0.18
   8  10  -1    2.83    0.19
   8  10  -1    2.94    0.18
   8  10   1    3.07    0.18
  -8  10  -1    2.91    0.21
   8  10   1    3.12    0.21
   8  10   1    2.72    0.13
  -8 -10   1    3.08    0.21
   8  10  -2    0.03    0.07
   8  10  -2    0.08    0.06
   8  10  -2    0.10    0.07
   8 -10   2    0.05    0.04
  -8 -10   2    0.03    0.07
  -8  10  -2    0.06    0.08
  -8  10  -2    0.03    0.06
   8  10  -3    1.38    0.18
   8 -10   3    1.37    0.12
   8  10  -3    1.57    0.16
  -8  10  -3    1.63    0.20
  -8 -10   3    1.36    0.20
   8  10  -4    0.09    0.08
   8  10  -4   -0.13    0.09
  -8  10  -4    0.18    0.13
   9 -10   0    9.67    0.39
   9  10   0   10.16    0.38
   9  10   0   10.23    0.41
   9  10   0    9.19    0.41
   9 -10   1   25.67    0.85
   9  10  -1   24.74    0.85
   9  10  -1   25.49    0.86
   9  10  -1   25.43    0.87
   9 -10  -1   25.37    0.87
  -9  10  -1   24.15    0.90
   9  10   1   24.91    0.86
  -9 -10   1   26.21    0.89
   9  10  -2    7.65    0.36
   9 -10   2    7.59    0.30
   9  10  -2    7.97    0.32
   9  10  -2    7.75    0.35
  -9 -10   2    7.48    0.36
  -9  10  -2    7.69    0.40
   9 -10   3   15.18    0.53
   9  10  -3   14.98    0.62
   9  10  -3   15.80    0.61
  -9 -10   3   14.69    0.61
  -9  10  -3   15.45    0.64
   9  10  -4    4.60    0.31
   9  10  -4    4.55    0.34
  -9  10  -4    6.04    0.38
  10  10   0   70.45    2.23
  10  10   0   69.23    2.24
  10  10   0   73.77    2.18
  10 -10   0   72.95    2.22
  10  10  -1   61.98    1.96
  10 -10   1   63.06    1.94
  10  10  -1   63.03    1.95
  10  10  -1   62.51    1.94
  10 -10  -1   59.44    1.98
  10  10   1   62.70    1.95
  10  10  -2   55.91    1.77
  10 -10   2   55.07    1.71
  10  10  -2   57.41    1.72
  10  10  -2   55.18    1.78
  10  10   2   54.57    1.75
 -10  10  -2   55.10    1.81
 -10 -10   2   52.72    1.77
  10  10  -3   40.03    1.40
  10  10  -3   41.34    1.43
  10 -10   3   40.32    1.32
  10  10  -3   45.08    1.30
 -10  10  -3   43.11    1.45
  11  10   0    6.16    0.31
  11  10   0    4.86    0.24
  11 -10   0    4.85    0.27
  11  10   0    4.68    0.26
  11 -10   1  116.87    3.63
  11  10  -1  120.12    3.66
  11  10  -1  121.57    3.65
  11  10   1  121.31    3.65
  11 -10   2    4.59    0.25
  11  10  -2    4.48    0.27
  11  10  -2    4.78    0.28
  11  10  -2    4.85    0.26
 -11  10  -2    5.19    0.32
  11  10   2    4.65    0.26
  11  10  -3   74.47    2.42
  11  10  -3   79.81    2.31
  11  10  -3   73.91    2.40
  11 -10   3   73.10    2.32
 -11  10  -3   76.94    2.44
  12 -10   0    5.06    0.28
  12  10   0    5.19    0.25
  12  10   0    4.76    0.27
  12  10  -1    2.58    0.22
  12  10  -1    2.55    0.20
  12  10  -1    2.90    0.20
  12 -10   1    2.97    0.21
  12  10   1    2.72    0.20
  12  10  -2    3.94    0.27
  12  10  -2    3.91    0.26
  12 -10   2    4.51    0.26
  12  10  -2    3.62    0.25
  12  10   2    4.11    0.24
  12 -10   3    1.24    0.16
  12  10  -3    1.02    0.16
 -12  10  -3    1.15    0.18
  13  10   0   14.62    0.53
  13 -10   0   14.28    0.58
  13  10   0   13.99    0.56
  13 -10   1    9.81    0.44
  13  10  -1   10.16    0.45
  13  10  -1   10.29    0.44
  13  10  -1   10.38    0.46
  13  10   1   10.43    0.44
  13  10  -2   11.61    0.50
  13  10  -2   11.73    0.49
  13 -10   2   10.97    0.47
  13  10  -2   11.22    0.50
  13  10   2   11.55    0.48
  14  10   0    1.67    0.18
  14  10   0    1.96    0.25
  14 -10   0    2.15    0.23
  14  10  -1    0.61    0.13
  14  10  -1    0.75    0.15
  14  10  -1    0.70    0.13
  14 -10   1    0.58    0.15
  14  10   1    1.05    0.14
  14  10  -2    1.55    0.19
  14 -10   2    1.83    0.24
  14  10  -2    1.47    0.19
  14  10  -2    1.26    0.18
  14  10   2    1.56    0.17
  15 -10   0   16.54    0.73
  15  10   0   17.27    0.65
  15  10  -1    2.37    0.22
  15  10  -1    3.20    0.31
  15  10  -1    2.46    0.23
  15 -10   1    2.84    0.30
   0  11   0    0.13    0.04
   0 -11   0    0.04    0.04
   0  11   0    0.01    0.05
   0 -11   1    0.06    0.04
   0  11  -1    0.02    0.04
   0  11  -1    0.05    0.05
   0 -11  -1   -0.07    0.05
   0  11  -2   -0.05    0.04
   0  11  -2    0.32    0.08
   0 -11   2    0.08    0.04
   0  11  -3   -0.03    0.07
   0 -11   3    0.00    0.04
   0  11  -3    0.13    0.06
   0  11  -4    0.01    0.07
   0  11  -4    0.01    0.08
   1  11   0    6.77    0.28
  -1 -11   0    6.66    0.28
  -1  11   0    6.53    0.30
   1  11   0    6.87    0.30
  -1  11   0    6.68    0.27
   1 -11   0    6.83    0.28
   1  11  -1   96.25    2.91
  -1 -11  -1   98.49    2.95
   1 -11   1   93.04    2.88
   1  11  -1   97.83    2.96
  -1 -11   1   96.66    2.89
   1 -11  -1   95.29    2.94
  -1  11  -1   98.97    2.91
  -1  11  -1   94.14    2.96
   1  11   1   97.13    2.91
   1 -11   2    5.81    0.21
   1  11  -2    5.82    0.30
   1  11  -2    5.82    0.26
   1  11   2    6.00    0.32
  -1 -11   2    5.79    0.22
  -1  11  -2    5.84    0.25
  -1  11  -2    5.48    0.31
   1  11  -3   57.69    1.81
   1 -11   3   58.91    1.71
   1  11  -3   56.40    1.87
  -1 -11   3   57.86    1.74
  -1  11  -3   56.11    1.87
  -1  11  -3   57.50    1.79
   1  11  -4    4.10    0.30
   1  11  -4    3.85    0.24
  -1  11  -4    3.91    0.29
  -1  11  -4    4.20    0.24
  -2 -11   0    1.20    0.12
   2 -11   0    1.03    0.11
   2  11   0    1.03    0.10
   2  11   0    1.07    0.12
  -2  11   0    1.19    0.09
  -2  11   0    1.32    0.13
   2  11  -1    1.12    0.10
   2 -11   1    0.85    0.08
   2  11  -1    0.91    0.12
   2  11   1    0.87    0.12
  -2  11  -1    0.93    0.09
  -2 -11   1    1.12    0.10
   2 -11  -1    1.12    0.13
   2  11   1    1.25    0.11
  -2  11  -1    1.03    0.13
   2  11  -2    0.80    0.13
   2  11  -2    0.96    0.11
  -2 -11   2    1.08    0.09
   2  11   2    0.58    0.11
  -2  11  -2    0.88    0.09
   2  11  -3    0.55    0.13
   2  11  -3    0.35    0.08
  -2  11  -3    0.50    0.09
  -2  11  -3    0.58    0.12
  -2 -11   3    0.52    0.07
   2  11  -4    0.69    0.12
   2  11  -4    0.62    0.14
  -2  11  -4    0.43    0.10
  -2  11  -4    0.49    0.13
   3  11   0  667.98   19.32
  -3 -11   0  589.00   19.34
   3 -11   0  629.16   19.35
   3  11   0  706.38   19.51
  -3  11   0  649.02   19.24
   3  11   0  666.00   19.32
  -3  11   0  623.05   19.35
   3  11  -1  139.97    4.18
   3  11  -1  138.29    4.15
  -3  11  -1  138.72    4.12
   3 -11  -1  139.34    4.17
   3  11   1  123.86    4.14
  -3 -11   1  144.57    4.14
   3  11   1  141.81    4.18
  -3  11  -1  139.52    4.21
   3  11  -2  547.74   15.86
   3  11  -2  520.50   15.52
  -3 -11  -2  494.53   15.36
  -3  11  -2  476.35   15.38
  -3  11  -2  515.52   15.52
   3  11   2  518.75   15.38
  -3 -11   2  562.55   15.47
   3  11  -3   93.49    2.85
   3  11  -3   90.01    2.89
  -3  11  -3   92.80    2.81
  -3  11  -3   91.36    2.92
  -3 -11   3   94.91    2.79
   3  11  -4  279.65    8.21
   3  11  -4  267.48    8.26
  -3  11  -4  271.58    8.27
  -3  11  -4  277.52    8.16
   4 -11   0    0.67    0.10
  -4  11   0    0.81    0.12
  -4  11   0    0.75    0.08
   4  11   0    0.67    0.10
   4  11   0    1.02    0.10
  -4 -11   0    0.85    0.11
   4  11   0    0.86    0.10
   4  11  -1    5.87    0.21
   4  11  -1    6.42    0.29
   4  11  -1    5.72    0.26
  -4 -11   1    5.65    0.26
   4  11   1    5.76    0.29
   4 -11  -1    5.91    0.28
   4  11   1    5.60    0.24
  -4  11  -1    5.38    0.24
  -4  11  -1    5.60    0.30
  -4 -11  -2    0.43    0.11
   4  11  -2    0.47    0.10
   4  11  -2    0.58    0.10
  -4  11  -2    0.77    0.09
  -4  11  -2    0.51    0.11
  -4 -11   2    0.57    0.08
   4  11   2    0.51    0.12
   4  11  -3    3.46    0.24
   4  11  -3    3.01    0.20
  -4  11  -3    3.20    0.25
  -4  11  -3    3.17    0.18
  -4 -11   3    3.37    0.19
   4  11  -4    0.27    0.12
   4  11  -4    0.19    0.08
  -4 -11   4    0.23    0.11
  -4  11  -4    0.27    0.13
  -4  11  -4    0.33    0.09
  -5 -11   0    2.74    0.19
  -5  11   0    2.84    0.14
   5  11   0    3.10    0.18
   5  11   0    2.94    0.18
   5  11   0    2.78    0.17
  -5  11   0    2.92    0.20
   5  11  -1    8.55    0.37
   5  11  -1    8.66    0.31
   5  11  -1    8.24    0.35
   5  11   1    8.72    0.35
   5  11   1    8.80    0.38
  -5  11  -1    8.34    0.31
  -5  11  -1    8.64    0.40
   5  11   1    8.79    0.32
   5 -11  -1    8.25    0.36
  -5 -11   1    8.96    0.36
   5  11  -2    2.41    0.19
   5  11  -2    2.41    0.17
  -5 -11   2    2.38    0.17
  -5  11  -2    2.25    0.13
   5  11   2    2.52    0.23
  -5  11  -2    2.39    0.22
  -5 -11  -3    5.09    0.35
   5  11  -3    5.27    0.31
   5  11  -3    5.23    0.28
  -5  11  -3    5.34    0.24
  -5 -11   3    5.30    0.26
  -5  11  -3    5.51    0.33
   5  11  -4    1.46    0.17
   5  11  -4    1.15    0.19
  -5  11  -4    1.45    0.15
  -5 -11   4    1.35    0.17
  -5  11  -4    0.96    0.17
   6  11   0    0.55    0.09
  -6  11   0    0.43    0.10
   6  11   0    0.67    0.10
  -6 -11   0    0.44    0.08
   6  11   0    0.61    0.09
  -6  11   0    0.64    0.07
   6  11  -1    1.59    0.12
   6  11  -1    1.40    0.14
   6  11   1    1.54    0.13
   6  11   1    1.28    0.11
   6 -11  -1    1.48    0.16
  -6 -11   1    1.46    0.15
  -6  11  -1    1.53    0.10
   6  11   1    1.64    0.16
  -6  11  -1    1.35    0.17
   6 -11   2    0.39    0.06
   6  11  -2    0.51    0.10
   6  11  -2    0.49    0.11
  -6  11  -2    0.57    0.13
  -6 -11   2    0.47    0.09
  -6  11  -2    0.48    0.07
  -6 -11  -3    0.95    0.18
   6  11  -3    0.92    0.13
   6 -11   3    0.73    0.07
   6  11  -3    0.77    0.14
  -6  11  -3    0.99    0.11
  -6 -11   3    0.59    0.11
  -6  11  -3    0.88    0.16
   6  11  -4    0.21    0.10
  -6 -11   4    0.16    0.14
  -6  11  -4    0.32    0.13
  -6  11  -4    0.26    0.10
   7  11   0  149.19    4.46
  -7  11   0  140.78    4.38
   7  11   0  146.72    4.46
   7  11   0  155.82    4.43
   7  11  -1  162.50    4.78
   7  11  -1  161.64    4.77
   7  11  -1  156.69    4.73
   7  11   1  163.56    4.70
  -7 -11   1  162.12    4.78
   7  11   1  162.08    4.80
   7  11   1  158.71    4.77
  -7  11  -1  153.39    4.68
  -7  11  -1  146.47    4.82
   7 -11   2  116.32    3.50
   7  11  -2  116.53    3.61
   7  11  -2  116.29    3.59
   7  11  -2  123.03    3.49
  -7 -11   2  120.72    3.58
  -7  11  -2  114.43    3.65
  -7  11  -2  116.91    3.50
   7  11  -3   98.33    3.08
   7 -11   3  101.00    2.96
   7  11  -3   96.72    3.10
  -7  11  -3  101.32    2.98
  -7  11  -3  101.22    3.14
  -7 -11   3   96.62    3.03
   7  11  -4   64.86    2.10
   7  11  -4   63.19    2.14
  -7  11  -4   66.31    2.16
   8  11   0   40.69    1.23
   8  11   0   38.75    1.26
   8  11   0   37.74    1.26
  -8  11   0   37.93    1.17
   8  11  -1    2.97    0.18
   8 -11   1    2.71    0.16
   8  11  -1    2.86    0.19
   8  11  -1    2.74    0.19
   8  11   1    2.78    0.21
  -8 -11   1    3.52    0.23
  -8  11  -1    2.60    0.22
   8  11   1    2.56    0.18
   8  11   1    2.79    0.15
  -8  11  -1    2.76    0.13
   8  11  -2   28.27    0.99
   8  11  -2   28.42    1.00
   8 -11   2   28.75    0.91
   8  11  -2   30.79    0.92
  -8  11  -2   28.82    1.05
  -8 -11   2   28.13    0.98
  -8  11  -2   28.74    0.89
   8  11  -3    1.57    0.17
   8  11  -3    1.95    0.21
   8 -11   3    2.00    0.13
  -8 -11   3    2.09    0.22
  -8  11  -3    1.90    0.23
   8  11  -4   13.99    0.63
   8  11  -4   13.78    0.62
   9  11   0  103.10    3.11
   9 -11   0  101.60    3.10
   9  11   0  104.12    3.07
   9  11   0   97.97    3.11
   9  11  -1   75.29    2.31
   9  11  -1   72.36    2.29
   9 -11   1   75.35    2.28
   9  11  -1   75.25    2.33
   9 -11  -1   71.51    2.35
  -9 -11   1   76.05    2.34
  -9  11  -1   73.62    2.37
   9  11   1   75.10    2.32
   9  11   1   75.50    2.35
   9  11  -2   83.21    2.53
   9  11  -2   78.78    2.53
   9 -11   2   80.69    2.45
   9  11  -2   84.20    2.46
  -9  11  -2   79.20    2.58
  -9 -11   2   79.40    2.52
   9  11  -3   48.61    1.62
   9 -11   3   47.98    1.51
   9  11  -3   48.78    1.64
  -9  11  -3   50.83    1.67
  10  11   0    0.65    0.10
  10  11   0    0.40    0.09
  10 -11   0    0.41    0.09
  10  11  -1    1.43    0.16
  10  11  -1    1.34    0.16
 -10  11   1    1.57    0.12
  10  11  -1    1.13    0.14
  10 -11   1    1.19    0.14
  10 -11  -1    1.36    0.15
 -10 -11   1    1.48    0.22
  10  11   1    1.32    0.15
  10  11  -2    0.37    0.10
  10 -11   2    0.33    0.08
  10  11  -2    0.39    0.09
  10  11  -2    0.24    0.10
  10  11   2    0.35    0.10
 -10  11  -2    0.31    0.11
  10  11  -3    0.72    0.14
  10  11  -3    0.56    0.13
  10 -11   3    0.61    0.10
 -10  11  -3    0.68    0.16
  11  11   0    9.90    0.45
  11  11   0    9.81    0.38
  11  11   0    9.76    0.42
  11 -11   1    1.47    0.16
  11  11  -1    1.22    0.16
  11  11  -1    1.20    0.18
  11  11  -1    1.31    0.16
  11  11   1    1.59    0.16
  11  11  -2    7.47    0.37
  11  11  -2    7.14    0.37
  11  11  -2    7.78    0.35
  11 -11   2    7.47    0.33
 -11  11  -2    7.72    0.42
  11  11   2    7.26    0.35
  11  11  -3    0.97    0.15
  11 -11   3    0.72    0.13
  12 -11   0    2.22    0.20
  12  11   0    2.17    0.19
  12  11   0    2.19    0.19
  12  11  -1    3.28    0.23
  12  11  -1    3.42    0.25
  12 -11   1    3.46    0.31
  12  11  -1    2.98    0.22
  12  11   1    3.17    0.21
  12  11  -2    1.71    0.21
  12  11  -2    1.57    0.19
  12 -11   2    1.47    0.19
  12  11  -2    1.41    0.18
  12  11   2    1.72    0.17
  13  11   0  270.80    7.99
  13  11   0  268.87    8.07
  13  11  -1  110.45    3.42
  13  11  -1  110.76    3.42
  13 -11   1  105.29    3.40
  13  11  -1  114.44    3.40
  13  11   1  113.47    3.41
  13  11  -2  205.99    6.23
  13 -11   2  198.07    6.18
  13  11  -2  212.91    6.24
  13  11  -2  206.25    6.18
  13  11   2  208.23    6.20
  14 -11   0    0.10    0.12
  14  11   0    0.14    0.08
  14  11  -1    0.05    0.11
  14  11  -1    0.10    0.14
  14  11  -1    0.44    0.13
  14 -11   1    0.33    0.13
  14  11   1    0.24    0.10
  14 -11  -1    0.13    0.13
  15  11   0   21.89    0.80
  15 -11   0   22.24    0.85
  15  11   0   21.32    0.86
   0  12   0  179.15    5.34
   0  12   0  180.22    5.31
   0 -12   0  175.15    5.31
   0 -12   1   74.35    2.26
   0 -12  -1   75.89    2.32
   0  12  -1   75.65    2.29
   0  12  -1   73.81    2.34
   0 -12   2  143.68    4.10
   0  12  -2  130.74    4.21
   0  12  -2  140.11    4.16
   0  12  -3   46.42    1.49
   0  12  -3   45.29    1.56
   0 -12   3   47.98    1.41
   0  12  -4   71.11    2.26
   0  12  -4   72.46    2.34
   1 -12   0   36.14    1.15
  -1  12   0   35.32    1.13
  -1  12   0   36.04    1.18
   1  12   0   35.80    1.17
  -1 -12   0   37.03    1.15
   1  12   0   35.61    1.14
  -1 -12  -1   21.80    0.73
   1  12  -1   20.30    0.74
   1 -12   1   20.03    0.67
   1  12  -1   20.47    0.70
   1 -12  -1   20.50    0.72
  -1  12  -1   20.01    0.74
  -1  12  -1   20.87    0.69
   1  12   1   20.65    0.70
  -1 -12   1   21.57    0.68
   1  12  -2   29.48    0.99
   1  12  -2   30.70    1.05
   1 -12   2   31.03    0.93
  -1 -12   2   30.96    0.95
  -1  12  -2   29.02    1.05
  -1  12  -2   30.39    0.98
   1  12  -3   15.00    0.62
   1  12  -3   15.50    0.57
   1 -12   3   15.21    0.48
  -1  12  -3   15.03    0.63
  -1 -12   3   14.99    0.50
  -1  12  -3   15.10    0.56
   1  12  -4   17.46    0.66
   1  12  -4   16.95    0.72
  -1  12  -4   17.49    0.65
  -1  12  -4   17.17    0.72
   2  12   0    1.55    0.14
   2  12   0    1.54    0.12
  -2  12   0    1.37    0.15
  -2 -12   0    1.93    0.17
  -2  12   0    1.38    0.11
   2 -12   0    1.43    0.13
   2  12  -1   16.92    0.64
  -2 -12  -1   17.87    0.65
   2 -12   1   17.30    0.58
   2  12  -1   17.48    0.61
   2 -12  -1   17.89    0.64
   2  12   1   17.59    0.61
  -2  12  -1   18.06    0.60
  -2  12  -1   17.63    0.67
  -2 -12   1   18.13    0.60
   2  12   1   17.65    0.63
   2  12  -2    0.98    0.14
   2  12  -2    0.86    0.11
   2 -12   2    0.89    0.07
  -2  12  -2    0.96    0.10
  -2  12  -2    1.00    0.15
  -2 -12   2    1.01    0.10
   2  12   2    0.95    0.14
   2  12  -3    8.43    0.38
   2  12  -3    8.41    0.42
  -2  12  -3    8.93    0.36
  -2 -12   3    8.86    0.33
  -2  12  -3    8.75    0.44
   2  12  -4    0.20    0.08
   2  12  -4    0.23    0.11
  -2  12  -4    0.36    0.09
  -2  12  -4    0.24    0.12
  -3  12   0    3.06    0.16
  -3 -12   0    3.18    0.19
  -3  12   0    3.12    0.21
   3 -12   0    3.21    0.18
   3  12   0    2.89    0.16
   3  12   0    3.10    0.19
   3  12  -1    3.22    0.20
   3  12  -1    2.91    0.18
   3 -12   1    3.15    0.16
   3 -12  -1    3.27    0.21
  -3  12  -1    3.16    0.17
   3  12   1    3.41    0.21
   3  12   1    3.15    0.18
  -3  12  -1    3.45    0.23
  -3 -12   1    3.43    0.19
   3  12  -2    3.01    0.18
   3 -12   2    2.59    0.12
   3  12  -2    2.58    0.20
   3  12   2    2.76    0.23
  -3 -12   2    2.62    0.16
  -3  12  -2    2.40    0.21
  -3  12  -2    2.87    0.16
   3  12  -3    1.92    0.21
   3  12  -3    2.33    0.18
  -3  12  -3    2.16    0.15
  -3  12  -3    2.27    0.22
   3  12  -4    1.64    0.29
   3  12  -4    1.71    0.18
  -3  12  -4    1.46    0.22
  -3 -12   4    1.33    0.20
  -3  12  -4    1.59    0.17
   4  12   0    0.28    0.07
   4  12   0    0.27    0.07
   4  12   0    0.21    0.06
   4 -12   0    0.16    0.06
  -4 -12   0    0.32    0.08
  -4  12   0    0.31    0.09
   4  12  -1   16.24    0.59
   4  12  -1   15.76    0.57
   4  12   1   16.06    0.55
  -4  12  -1   15.84    0.54
   4  12   1   15.91    0.57
  -4  12  -1   15.43    0.62
  -4 -12   1   16.32    0.58
   4  12   1   16.23    0.60
   4 -12  -1   15.66    0.59
   4  12  -2    0.09    0.06
   4  12  -2    0.22    0.09
  -4  12  -2    0.14    0.06
   4  12   2    0.04    0.08
  -4 -12   2    0.09    0.07
  -4  12  -2    0.19    0.10
   4  12  -3   10.24    0.43
   4  12  -3    9.99    0.46
  -4  12  -3    9.79    0.48
  -4 -12   3   10.01    0.39
  -4  12  -3    9.90    0.39
   4  12  -4    0.19    0.08
  -4 -12   4    0.09    0.12
  -4  12  -4    0.11    0.08
  -4  12  -4    0.06    0.11
  -5 -12   0   28.68    0.95
   5  12   0   29.39    0.93
   5  12   0   28.40    0.94
   5  12   0   29.08    0.93
  -5  12   0   25.45    0.97
  -5  12   0   28.28    0.89
   5  12  -1    0.38    0.08
   5  12  -1    0.35    0.09
  -5 -12   1    0.40    0.08
   5  12   1    0.59    0.09
   5  12   1    0.48    0.11
   5 -12  -1    0.34    0.09
  -5  12  -1    0.40    0.11
   5  12   1    0.52    0.10
  -5  12  -1    0.68    0.08
   5  12  -2   23.20    0.82
   5  12  -2   22.92    0.84
  -5  12  -2   23.46    0.76
  -5  12  -2   22.95    0.87
  -5 -12   2   23.76    0.79
   5  12   2   23.72    0.88
   5  12  -3    0.18    0.09
   5  12  -3    0.07    0.07
  -5  12  -3    0.15    0.07
  -5 -12   3    0.01    0.08
  -5  12  -3    0.20    0.10
   5  12  -4   12.48    0.59
   5  12  -4   12.41    0.54
  -5 -12   4   12.09    0.53
  -5  12  -4   13.05    0.49
  -5  12  -4   12.84    0.72
  -6  12   0    4.59    0.20
   6  12   0    4.90    0.24
  -6 -12   0    5.15    0.27
   6  12   0    5.41    0.26
   6  12   0    4.80    0.25
  -6  12   0    4.93    0.29
   6  12  -1   32.25    1.06
   6  12  -1   33.53    1.00
   6  12  -1   30.01    1.05
   6  12   1   31.94    0.99
  -6 -12   1   32.22    1.05
   6  12   1   30.15    1.04
   6  12   1   33.30    1.08
  -6  12  -1   30.06    1.10
  -6  12  -1   31.08    0.98
   6 -12  -1   31.16    1.06
   6  12  -2    5.06    0.28
   6  12  -2    4.66    0.26
  -6 -12   2    4.68    0.26
  -6  12  -2    4.49    0.30
  -6  12  -2    4.58    0.20
   6  12  -3   21.51    0.79
   6  12  -3   21.61    0.81
  -6 -12   3   20.58    0.74
  -6  12  -3   21.28    0.71
  -6  12  -3   21.30    0.85
   6  12  -4    3.95    0.31
   6  12  -4    4.04    0.27
  -6  12  -4    4.08    0.24
   7  12   0   82.87    2.52
   7  12   0   84.77    2.53
  -7 -12   0   80.87    2.54
   7  12   0   82.32    2.50
  -7  12   0   78.65    2.45
   7  12  -1   38.63    1.19
   7  12  -1   36.18    1.23
   7  12  -1   38.28    1.24
   7  12   1   37.64    1.23
  -7 -12   1   39.73    1.25
   7 -12  -1   37.42    1.25
  -7  12  -1   35.92    1.29
   7  12   1   38.48    1.17
  -7  12  -1   36.02    1.15
   7  12   1   38.32    1.26
   7 -12   2   63.88    1.92
   7  12  -2   61.84    2.00
   7  12  -2   62.46    2.02
  -7  12  -2   63.50    2.07
  -7 -12   2   64.95    1.99
   7  12  -3   25.63    0.95
   7 -12   3   26.30    0.80
   7  12  -3   24.52    0.91
  -7 -12   3   24.16    0.88
  -7  12  -3   26.40    0.98
  -7  12  -3   26.19    0.83
   7  12  -4   35.07    1.44
   7  12  -4   35.18    1.28
  -7  12  -4   35.51    1.33
  -8  12   0    0.90    0.09
   8  12   0    0.86    0.13
   8  12   0    0.79    0.11
   8  12   0    0.79    0.11
   8  12  -1    0.00    0.06
   8 -12   1    0.10    0.05
   8  12  -1    0.12    0.08
   8  12  -1    0.08    0.07
   8  12   1    0.09    0.07
  -8 -12   1    0.20    0.10
  -8  12  -1    0.16    0.10
   8  12   1    0.03    0.10
   8  12   1    0.11    0.06
  -8  12  -1    0.12    0.06
   8 -12   2    0.40    0.07
   8  12  -2    0.47    0.10
   8  12  -2    0.31    0.10
  -8 -12   2    0.31    0.12
  -8  12  -2    0.60    0.15
   8 -12   3    0.06    0.06
   8  12  -3    0.16    0.08
   8  12  -3   -0.02    0.08
  -8  12  -3    0.07    0.11
  -8  12  -3    0.08    0.08
  -8 -12   3    0.13    0.12
   9 -12   0   12.82    0.50
   9  12   0   12.95    0.48
   9  12   0   13.54    0.52
   9  12   0   13.05    0.52
   9  12  -1   12.02    0.50
   9  12  -1   12.47    0.50
  -9  12   1   13.15    0.43
   9  12  -1   12.75    0.48
   9 -12   1   12.19    0.46
  -9 -12   1   13.05    0.54
  -9  12  -1   12.25    0.56
   9  12   1   12.47    0.53
   9  12   1   12.07    0.50
   9  12  -2   10.10    0.45
   9  12  -2   10.15    0.45
   9  12  -2   10.67    0.38
   9 -12   2   10.04    0.38
  -9  12  -2    9.92    0.50
   9  12   2    9.53    0.42
  -9 -12   2    9.97    0.46
   9  12  -3    8.25    0.41
   9 -12   3    7.92    0.32
   9  12  -3    7.96    0.43
  -9  12  -3    8.87    0.47
  10  12   0    8.61    0.34
  10  12   0    8.57    0.38
  10 -12   0    7.59    0.36
  10  12   0    7.90    0.38
  10 -12   1    6.01    0.28
  10  12  -1    5.73    0.30
  10  12  -1    5.28    0.29
  10  12  -1    5.37    0.29
  10  12   1    5.56    0.29
  10  12  -2    6.75    0.35
  10 -12   2    6.85    0.31
  10  12  -2    7.02    0.37
  10  12  -2    7.26    0.31
  10  12   2    7.01    0.34
 -10  12  -2    6.92    0.41
  10  12  -3    4.70    0.30
  10  12  -3    4.31    0.38
 -10  12  -3    4.85    0.36
  11  12   0   12.83    0.48
  11  12   0   13.01    0.55
  11  12   0   13.25    0.53
  11  12  -1    9.15    0.40
  11  12  -1    9.23    0.41
  11 -12   1    8.71    0.39
  11  12  -1    8.79    0.42
  11  12   1    9.02    0.40
  11 -12   2   10.38    0.43
  11  12  -2   10.40    0.48
  11  12  -2   10.87    0.48
  11  12  -2   11.10    0.44
 -11  12  -2   10.60    0.53
  11  12   2   10.67    0.45
  11  12  -3    6.23    0.37
  11  12  -3    6.48    0.38
  12  12   0    8.70    0.37
  12  12   0    9.18    0.45
  12 -12   0    8.77    0.42
  12  12   0    8.96    0.41
  12  12  -1    1.01    0.14
  12 -12   1    0.88    0.14
  12  12  -1    0.89    0.15
  12  12  -1    0.69    0.13
  12  12   1    0.99    0.15
  12 -12   2    6.68    0.35
  12  12  -2    7.23    0.39
  12  12  -2    7.48    0.38
  12  12   2    7.19    0.35
  13 -12   0   28.49    1.01
  13  12   0   28.53    1.00
  13  12   0   28.29    1.03
  13 -12   1    3.89    0.29
  13  12  -1    3.11    0.30
  13  12  -1    3.48    0.26
  13  12  -1    3.71    0.26
  13  12   1    3.50    0.25
  13 -12   2   22.04    0.82
  13  12  -2   23.12    0.86
  13  12  -2   22.55    0.82
  13  12  -2   23.41    0.86
  13  12   2   22.37    0.82
  14  12   0    1.15    0.16
  14  12   0    0.83    0.20
  14 -12   0    0.85    0.17
  14  12  -1    0.16    0.17
  14 -12   1    0.14    0.14
  14  12  -1    0.18    0.10
  14  12  -1    0.22    0.13
  14  12   1    0.39    0.11
  14 -12  -1    0.27    0.14
   0  13   0    0.13    0.05
   0 -13   0    0.07    0.11
   0  13   0    0.19    0.08
   0 -13   1    0.00    0.05
   0  13  -1    0.05    0.05
   0 -13  -1    0.01    0.06
   0  13  -1    0.06    0.06
   0  13  -2    0.01    0.05
   0  13  -2   -0.08    0.07
   0  13  -3   -0.01    0.08
   0 -13   3    0.13    0.05
   0  13  -3    0.00    0.06
   0  13  -4    0.12    0.09
  -1  13   0    2.50    0.15
  -1 -13   0    2.63    0.17
   1  13   0    2.42    0.18
   1 -13   0    2.16    0.19
   1  13   0    2.44    0.15
  -1  13   0    2.50    0.19
   1 -13   1   13.30    0.47
   1  13  -1   13.41    0.50
  -1 -13  -1   13.78    0.52
   1  13  -1   12.37    0.53
   1  13   1   13.63    0.51
  -1  13  -1   13.74    0.49
  -1 -13   1   13.82    0.48
   1 -13  -1   14.42    0.53
  -1  13  -1   13.28    0.55
   1 -13   2    2.47    0.13
   1  13  -2    2.51    0.17
   1  13  -2    2.60    0.21
  -1 -13   2    2.49    0.14
  -1  13  -2    2.05    0.20
  -1  13  -2    2.36    0.16
   1  13  -3    8.92    0.39
   1  13  -3    8.60    0.44
   1 -13   3    9.17    0.30
  -1  13  -3    8.96    0.38
  -1  13  -3    9.39    0.46
  -1 -13   3    8.64    0.33
   1  13  -4    2.26    0.19
   1  13  -4    2.13    0.32
  -1  13  -4    2.08    0.19
   2 -13   0    0.88    0.12
  -2 -13   0    0.77    0.11
  -2  13   0    0.82    0.12
  -2  13   0    0.90    0.10
   2  13   0    0.87    0.13
   2  13  -1   21.31    0.74
   2  13  -1   21.31    0.78
  -2 -13  -1   21.71    0.77
   2 -13   1   21.49    0.71
  -2 -13   1   22.47    0.73
  -2  13  -1   21.35    0.80
  -2  13  -1   21.58    0.73
   2  13   1   22.11    0.74
   2 -13  -1   22.65    0.77
   2  13  -2    1.16    0.12
   2  13  -2    1.05    0.15
   2 -13   2    1.08    0.09
  -2  13  -2    1.17    0.16
   2  13   2    1.29    0.18
  -2  13  -2    1.18    0.12
   2  13  -3    9.52    0.47
   2  13  -3    9.61    0.42
  -2  13  -3    9.37    0.47
  -2 -13   3   10.21    0.37
  -2  13  -3    9.77    0.40
   2  13  -4    0.87    0.14
   2  13  -4    0.87    0.18
  -2  13  -4    0.88    0.13
   3  13   0    1.75    0.14
  -3 -13   0    1.45    0.15
  -3  13   0    1.45    0.12
  -3  13   0    1.44    0.16
   3  13   0    1.44    0.14
   3  13  -1   82.17    2.54
   3 -13   1   83.43    2.47
   3  13  -1   82.23    2.52
  -3 -13  -1   87.94    2.66
   3  13   1   83.90    2.53
   3  13   1   80.26    2.49
  -3 -13   1   80.91    2.51
   3  13   1   80.33    2.51
  -3  13  -1   83.03    2.49
   3 -13  -1   81.50    2.53
  -3  13  -1   74.98    2.56
   3 -13   2    1.82    0.11
   3  13  -2    1.69    0.15
   3  13  -2    2.12    0.19
  -3  13  -2    1.83    0.13
   3  13   2    2.15    0.25
  -3  13  -2    1.85    0.20
  -3 -13   2    1.93    0.16
   3  13  -3   51.90    1.66
   3  13  -3   50.25    1.71
  -3  13  -3   52.85    1.62
  -3 -13   3   51.86    1.59
  -3  13  -3   49.78    1.73
   3  13  -4    2.10    0.19
   3  13  -4    2.06    0.25
  -3  13  -4    1.44    0.26
  -3  13  -4    2.26    0.19
  -4  13   0   22.11    0.74
   4  13   0   22.77    0.78
   4 -13   0   22.13    0.76
  -4 -13   0   23.73    0.79
   4  13   0   23.01    0.75
   4  13   0   22.25    0.77
  -4  13   0   21.46    0.81
   4  13  -1   65.95    2.03
   4 -13   1   67.17    1.97
   4  13  -1   61.18    2.01
   4  13   1   66.55    2.03
  -4  13  -1   64.60    1.97
   4 -13  -1   65.28    2.03
   4  13   1   63.56    2.01
  -4 -13   1   64.87    2.00
  -4  13  -1   62.06    2.07
   4  13   1   63.86    1.98
   4 -13   2   19.09    0.60
   4  13  -2   18.71    0.72
   4  13  -2   18.89    0.69
  -4  13  -2   18.26    0.74
  -4  13  -2   18.69    0.64
   4  13   2   18.84    0.73
  -4 -13   2   19.65    0.66
   4  13  -3   41.33    1.38
   4  13  -3   41.01    1.42
  -4  13  -3   40.82    1.44
  -4 -13   3   42.07    1.32
  -4  13  -3   42.08    1.32
   4  13  -4   10.86    0.51
   4  13  -4   11.67    0.57
  -4  13  -4   11.83    0.48
  -4  13  -4   12.74    0.60
   5  13   0    0.10    0.07
  -5  13   0    0.12    0.05
  -5  13   0    0.06    0.07
   5 -13   0    0.09    0.06
   5  13   0    0.10    0.06
  -5 -13   0    0.10    0.07
   5  13   0    0.12    0.06
   5  13  -1    0.30    0.08
   5  13  -1    0.40    0.09
   5  13   1    0.16    0.07
  -5  13  -1    0.25    0.10
   5 -13  -1    0.21    0.09
  -5 -13   1    0.19    0.08
  -5  13  -1    0.16    0.06
   5  13  -2    0.13    0.06
   5  13  -2    0.13    0.08
  -5  13  -2    0.19    0.07
  -5  13  -2    0.39    0.12
  -5 -13   2    0.22    0.09
   5  13   2    0.14    0.09
   5  13  -3    0.22    0.08
   5  13  -3    0.13    0.10
  -5  13  -3    0.25    0.08
  -5 -13   3    0.31    0.10
  -5  13  -3    0.14    0.11
   5  13  -4    0.00    0.11
   5  13  -4    0.07    0.08
  -5  13  -4    0.14    0.09
  -5  13  -4    0.07    0.12
   6  13   0    0.14    0.06
  -6 -13   0    0.21    0.09
  -6  13   0    0.22    0.06
   6  13   0    0.09    0.07
   6  13   0    0.15    0.07
   6  13  -1   16.77    0.55
   6  13  -1   16.05    0.61
   6  13  -1   15.95    0.61
  -6 -13   1   16.71    0.62
   6  13   1   16.20    0.57
   6  13   1   16.73    0.61
   6 -13  -1   16.16    0.62
   6  13   1   16.87    0.63
  -6  13  -1   15.97    0.67
  -6  13  -1   16.74    0.55
   6  13  -2    0.03    0.07
   6  13  -2    0.10    0.08
  -6  13  -2    0.44    0.13
  -6  13  -2    0.08    0.07
  -6 -13   2    0.19    0.10
   6  13   2    0.16    0.15
   6  13  -3   10.49    0.49
   6  13  -3    9.81    0.46
  -6  13  -3   10.38    0.40
  -6  13  -3   10.47    0.53
  -6 -13   3   10.25    0.44
   6  13  -4    0.31    0.12
  -6  13  -4    0.32    0.11
  -6  13  -4    0.32    0.15
   7  13   0    4.15    0.24
   7  13   0    4.07    0.24
  -7 -13   0    4.45    0.27
  -7  13   0    3.99    0.20
   7  13   0    4.30    0.23
  -7  13   1    6.63    0.27
   7  13  -1    6.15    0.31
   7  13  -1    6.59    0.28
   7  13  -1    6.36    0.31
   7  13   1    6.58    0.38
   7  13   1    6.56    0.27
  -7  13  -1    6.78    0.38
   7  13   1    6.39    0.31
  -7 -13   1    6.44    0.33
  -7  13  -1    6.36    0.25
   7 -13  -1    6.13    0.34
   7 -13   2    3.91    0.19
   7  13  -2    4.01    0.25
   7  13  -2    4.06    0.27
  -7  13  -2    3.83    0.19
  -7  13  -2    3.94    0.29
  -7 -13   2    4.02    0.28
   7 -13   3    4.99    0.20
   7  13  -3    4.98    0.32
   7  13  -3    4.79    0.29
  -7  13  -3    5.29    0.36
  -7  13  -3    5.00    0.24
  -7 -13   3    5.17    0.32
   8  13   0   22.94    0.83
  -8  13   0   23.20    0.75
   8  13   0   23.79    0.80
   8  13   0   24.52    0.83
  -8 -13   0   23.91    0.87
   8  13  -1   21.35    0.76
   8  13  -1   21.66    0.72
   8  13  -1   20.84    0.76
  -8  13   1   20.97    0.69
   8  13   1   19.98    0.75
  -8  13  -1   20.60    0.82
   8  13   1   21.11    0.68
   8 -13  -1   21.18    0.79
   8  13   1   21.32    0.79
  -8 -13   1   20.92    0.78
  -8  13  -1   20.98    0.66
   8 -13   2   18.43    0.61
   8  13  -2   17.35    0.68
   8  13  -2   18.77    0.70
  -8  13  -2   18.77    0.76
  -8 -13   2   17.87    0.69
  -8  13  -2   17.85    0.59
   8  13   2   17.11    0.66
   8  13  -3   11.73    0.54
   8  13  -3   11.37    0.51
  -8  13  -3   11.58    0.57
  -8  13  -3   11.73    0.42
   9  13   0    0.55    0.12
   9  13   0    0.81    0.11
   9  13   0    0.70    0.13
   9  13  -1   60.70    1.95
  -9  13   1   61.33    1.86
   9 -13   1   61.47    1.90
   9  13  -1   61.71    1.91
   9  13  -1   62.75    1.94
  -9 -13   1   60.68    1.97
   9  13   1   61.35    1.94
  -9  13  -1   59.12    2.02
   9 -13   2    1.17    0.13
   9  13  -2    1.14    0.12
   9  13  -2    0.91    0.14
   9  13  -2    1.01    0.16
  -9  13  -2    1.06    0.19
   9  13   2    0.91    0.14
   9  13  -3   40.78    1.40
  10  13   0   28.94    1.01
  10  13   0   29.78    0.96
  10  13   0   28.27    1.00
  10 -13   1   19.18    0.69
  10  13  -1   19.44    0.69
  10  13  -1   18.94    0.72
  10  13  -1   19.51    0.71
  10  13   1   19.12    0.71
  10 -13  -1   19.03    0.73
  10  13  -2   24.90    0.77
  10  13  -2   22.92    0.86
  10 -13   2   22.84    0.79
  10  13  -2   23.45    0.86
  10  13   2   23.49    0.84
 -10  13  -2   22.05    0.91
  10  13  -3   12.21    0.61
  10  13  -3   13.50    0.61
 -10  13  -3   14.24    0.66
  11  13   0    0.07    0.08
  11 -13   0    0.26    0.11
  11  13   0    0.22    0.10
  11  13   0    0.11    0.11
  11  13  -1    2.46    0.20
  11 -13   1    1.93    0.20
  11  13  -1    2.54    0.23
  11  13  -1    2.17    0.21
  11  13   1    1.94    0.19
  11 -13  -1    1.96    0.22
  11  13  -2    0.16    0.11
  11 -13   2    0.06    0.09
  11  13  -2   -0.05    0.10
  11  13  -2    0.08    0.09
  11  13   2    0.01    0.07
  12  13   0    0.22    0.10
  12 -13   0    0.21    0.11
  12  13   0    0.11    0.13
  12  13   0    0.18    0.12
  12  13  -1   10.08    0.46
  12  13  -1   10.73    0.46
  12  13  -1   10.30    0.47
  12 -13   1    9.84    0.45
  12  13   1   10.16    0.45
  12 -13  -1    9.90    0.49
  12  13  -2    0.09    0.11
  12  13  -2    0.14    0.10
  12  13   2    0.11    0.09
  13  13   0    3.00    0.24
  13 -13   0    2.97    0.29
  13  13   0    3.51    0.34
  13  13  -1    6.64    0.40
  13  13  -1    6.98    0.37
  13 -13   1    7.36    0.39
  13  13  -1    6.39    0.37
  13 -13  -1    6.86    0.41
  13  13   1    6.92    0.46
  13  13   1    6.91    0.36
   0 -14   0  230.17    6.83
   0  14   0  233.21    6.83
   0  14   0  224.94    6.87
   0 -14   1  187.40    5.57
   0 -14  -1  186.59    5.63
   0  14  -1  184.78    5.66
   0  14  -1  188.96    5.60
   0  14   1  189.27    5.60
   0 -14   2  195.03    5.64
   0  14  -2  185.83    5.77
   0  14  -2  189.45    5.70
   0 -14   3  126.35    3.70
   0  14  -3  125.84    3.79
   0  14  -3  120.87    3.87
   0  14  -4  108.34    3.40
   0  14  -4  105.61    3.31
   1  14   0   14.44    0.53
   1 -14   0   14.41    0.53
  -1 -14   0   14.43    0.53
  -1  14   0   14.00    0.51
   1  14   0   14.42    0.55
  -1  14   0   14.27    0.56
  -1 -14  -1    2.79    0.22
   1 -14   1    3.01    0.17
   1  14  -1    2.74    0.18
   1  14  -1    2.89    0.22
   1  14   1    3.15    0.19
  -1 -14   1    2.98    0.18
  -1  14  -1    3.00    0.23
  -1  14  -1    3.05    0.18
   1  14   1    3.38    0.21
   1 -14  -1    3.02    0.22
   1  14  -2   11.63    0.52
   1  14  -2   11.60    0.47
   1 -14   2   12.05    0.41
  -1  14  -2   11.70    0.52
  -1  14  -2   12.10    0.46
  -1 -14   2   11.86    0.42
   1 -14   3    2.46    0.13
   1  14  -3    2.48    0.23
   1  14  -3    2.37    0.19
  -1  14  -3    2.32    0.18
  -1 -14   3    2.27    0.16
  -1  14  -3    2.75    0.24
   1  14  -4    7.15    0.42
   1  14  -4    7.05    0.36
  -1  14  -4    7.04    0.35
  -1  14  -4    7.20    0.43
   2  14   0   24.30    0.81
   2  14   0   23.52    0.83
  -2  14   0   23.92    0.79
  -2  14   0   23.55    0.86
  -2 -14   0   24.03    0.82
   2 -14   0   24.07    0.81
   2 -14   1    4.83    0.23
  -2 -14  -1    5.15    0.28
   2  14  -1    4.99    0.25
   2  14  -1    5.11    0.28
   2 -14  -1    4.79    0.28
  -2 -14   1    5.16    0.25
  -2  14  -1    4.46    0.29
  -2  14  -1    5.18    0.24
   2  14   1    4.95    0.25
   2  14  -2   18.71    0.74
   2  14  -2   19.44    0.70
   2 -14   2   19.43    0.62
  -2  14  -2   19.27    0.76
  -2  14  -2   19.34    0.67
  -2 -14   2   19.45    0.65
   2  14  -3    3.25    0.26
   2  14  -3    3.58    0.23
  -2  14  -3    3.44    0.27
  -2  14  -3    3.51    0.22
   2  14  -4   10.64    0.48
   2  14  -4   10.48    0.53
  -2  14  -4   10.62    0.46
  -2  14  -4   11.01    0.55
  -3  14   0    8.19    0.33
   3  14   0    8.22    0.36
   3 -14   0    8.32    0.35
   3  14   0    8.21    0.35
  -3  14   0    8.01    0.39
  -3 -14   0    8.28    0.36
   3 -14   1    0.04    0.06
  -3 -14  -1    0.03    0.08
   3  14  -1    0.07    0.07
   3  14  -1    0.12    0.07
   3  14   1    0.15    0.07
  -3  14  -1    0.09    0.08
   3  14   1    0.22    0.08
  -3  14  -1   -0.02    0.05
  -3 -14   1    0.06    0.07
   3 -14  -1   -0.08    0.08
   3  14   1    0.00    0.07
   3  14  -2    5.97    0.33
   3 -14   2    5.81    0.23
   3  14  -2    6.25    0.30
  -3  14  -2    6.03    0.27
   3  14   2    6.28    0.35
  -3  14  -2    6.05    0.36
  -3 -14   2    6.32    0.28
   3  14  -3    0.05    0.07
   3  14  -3    0.04    0.08
  -3 -14   3    0.15    0.08
  -3  14  -3    0.01    0.10
  -3  14  -3    0.01    0.07
   3  14  -4    2.91    0.23
   3  14  -4    2.87    0.28
  -3  14  -4    3.17    0.29
  -3  14  -4    2.84    0.21
   4  14   0   73.11    2.25
   4  14   0   75.38    2.22
   4  14   0   71.99    2.25
  -4  14   0   70.94    2.30
   4 -14   0   73.73    2.24
  -4 -14   0   71.33    2.25
  -4  14   0   70.71    2.21
   4  14  -1   82.76    2.57
   4  14  -1   80.79    2.55
   4 -14   1   83.69    2.50
   4  14   1   82.94    2.52
  -4 -14   1   81.03    2.53
   4  14   1   83.72    2.55
   4  14   1   83.99    2.56
  -4  14  -1   82.62    2.50
   4 -14  -1   81.62    2.56
  -4  14  -1   81.27    2.61
   4  14  -2   59.74    1.89
   4  14  -2   61.02    1.93
   4 -14   2   59.31    1.80
  -4 -14   2   58.89    1.85
  -4  14  -2   57.11    1.96
  -4  14  -2   58.91    1.84
   4  14   2   61.55    1.94
   4  14  -3   50.64    1.71
   4  14  -3   49.66    1.66
  -4 -14   3   51.79    1.60
  -4  14  -3   51.04    1.74
  -4  14  -3   51.20    1.61
   4  14  -4   30.34    1.18
  -4  14  -4   33.45    1.21
  -4  14  -4   31.84    1.07
  -5  14   0   64.51    2.01
   5 -14   0   65.68    2.05
   5  14   0   68.33    2.04
  -5  14   0   62.32    2.11
  -5 -14   0   66.46    2.07
   5  14   0   66.65    2.05
   5  14   0   67.09    2.07
  -5  14   1   43.62    1.40
   5  14  -1   41.66    1.44
   5  14  -1   46.16    1.46
   5 -14   1   45.78    1.40
   5  14   1   46.28    1.46
   5 -14  -1   44.15    1.46
  -5 -14   1   44.15    1.44
  -5  14  -1   45.36    1.39
  -5  14  -1   43.21    1.51
   5  14   1   45.14    1.40
   5  14   1   45.58    1.45
   5  14  -2   51.70    1.72
   5  14  -2   54.19    1.75
   5 -14   2   55.18    1.62
  -5 -14   2   52.08    1.68
  -5  14  -2   53.23    1.65
  -5  14  -2   53.69    1.79
   5  14  -3   29.91    1.07
   5  14  -3   30.74    1.12
  -5  14  -3   30.85    1.00
  -5 -14   3   30.09    1.02
  -5  14  -3   31.28    1.15
  -6 -14   0   30.06    1.03
   6  14   0   29.41    1.02
   6  14   0   31.67    1.00
  -6  14   0   29.66    0.96
   6 -14   0   30.77    1.01
   6  14   0   29.72    1.00
   6  14  -1  133.08    4.14
  -6  14   1  135.70    4.08
   6  14  -1  138.83    4.15
  -6  14  -1  135.12    4.07
   6  14   1  136.69    4.14
  -6  14  -1  133.94    4.22
   6 -14  -1  132.38    4.15
   6  14   1  139.38    4.09
   6  14   1  142.27    4.16
  -6 -14   1  136.85    4.14
   6  14  -2   26.85    0.96
   6  14  -2   26.56    0.93
  -6  14  -2   26.51    0.86
  -6  14  -2   25.93    1.00
  -6 -14   2   26.20    0.91
   6  14  -3   90.36    2.81
   6  14  -3   88.36    2.84
  -6 -14   3   85.00    2.74
  -6  14  -3   91.66    2.71
  -6  14  -3   90.36    2.88
   7  14   0    8.93    0.38
   7  14   0    8.55    0.36
  -7 -14   0    8.27    0.41
   7  14   0    8.31    0.38
  -7  14   0    8.39    0.32
  -7  14   1    1.22    0.12
   7  14  -1    0.98    0.12
   7  14  -1    1.09    0.14
   7  14  -1    1.03    0.15
   7  14   1    0.94    0.13
  -7 -14   1    0.97    0.15
  -7  14  -1    0.94    0.11
  -7  14  -1    0.71    0.15
   7  14   1    1.16    0.14
   7  14   1    0.94    0.14
   7 -14  -1    1.25    0.17
   7  14  -2    6.39    0.33
   7 -14   2    6.42    0.26
   7  14  -2    6.06    0.35
  -7  14  -2    6.45    0.26
  -7 -14   2    6.71    0.37
   7  14   2    6.15    0.32
  -7  14  -2    6.40    0.40
   7  14  -3    0.55    0.14
   7  14  -3    0.58    0.13
  -7  14  -3    0.72    0.12
  -7 -14   3    0.67    0.15
   8  14   0    5.92    0.30
  -8  14   0    5.10    0.24
  -8 -14   0    5.02    0.33
   8  14   0    5.40    0.29
   8  14   0    5.84    0.27
   8  14  -1    1.59    0.18
  -8  14   1    1.74    0.14
   8  14  -1    1.86    0.16
   8  14  -1    1.60    0.16
   8 -14  -1    1.79    0.24
   8  14   1    1.55    0.16
   8  14   1    1.92    0.22
  -8  14  -1    1.66    0.22
  -8  14  -1    1.87    0.14
   8  14   1    1.68    0.17
  -8 -14   1    1.74    0.23
   8 -14   2    4.30    0.22
   8  14  -2    4.27    0.29
   8  14  -2    4.31    0.27
  -8 -14   2    4.44    0.32
   8  14   2    4.13    0.26
  -8  14  -2    4.39    0.34
  -8  14  -2    4.22    0.23
   8  14  -3    0.84    0.14
  -8  14  -3    1.57    0.21
  -8  14  -3    1.22    0.24
   9  14   0    0.07    0.07
   9  14   0    0.20    0.09
   9 -14   1    0.02    0.08
   9  14  -1    0.15    0.08
  -9  14   1    0.11    0.08
   9  14  -1    0.07    0.08
   9  14  -1    0.12    0.09
   9  14   1   -0.16    0.11
   9  14   1    0.13    0.09
   9 -14   2    0.00    0.07
   9  14  -2    0.24    0.12
   9  14  -2    0.05    0.09
   9  14   2    0.21    0.09
  -9  14  -2    0.03    0.12
   9  14  -3    0.08    0.09
  -9  14  -3   -0.02    0.14
  10  14   0  124.79    3.61
  10  14   0  117.92    3.67
  10 -14   0  116.05    3.65
  10  14   0  118.95    3.66
  10  14  -1   30.78    1.02
  10  14  -1   31.42    1.04
  10 -14   1   30.43    1.02
  10  14  -1   29.94    1.06
  10 -14  -1   28.77    1.05
  10  14   1   30.26    1.05
  10  14  -2  100.97    3.02
  10  14  -2   98.52    3.02
  10 -14   2   92.28    2.92
  10  14   2   92.60    2.98
  11  14   0   50.40    1.64
  11  14   0   49.26    1.63
  11  14   0   51.15    1.57
  11 -14   0   48.46    1.62
  11  14  -1   10.24    0.46
  11 -14   1    8.77    0.47
  11  14  -1   10.40    0.45
  11  14  -1   10.03    0.45
  11  14   1   10.66    0.52
  11  14   1    9.78    0.44
  11 -14  -1    9.61    0.47
  11 -14   2   40.42    1.33
  11  14  -2   41.95    1.38
  11  14  -2   40.28    1.38
  11  14   2   37.86    1.34
  12  14   0   21.19    0.80
  12 -14   0   20.86    0.80
  12  14   0   21.35    0.82
  12  14  -1   50.00    1.66
  12 -14   1   48.74    1.62
  12  14  -1   51.35    1.62
  12  14  -1   50.65    1.63
  12  14   1   49.68    1.70
  12  14   1   49.50    1.64
  13  14   0    2.90    0.34
  13  14   0    3.08    0.25
  13 -14   0    2.80    0.32
   0  15   0    0.32    0.10
   0 -15   0    0.17    0.08
   0  15   0    0.23    0.07
   0  15  -1   -0.05    0.06
   0 -15   1    0.01    0.06
   0  15  -1   -0.05    0.07
   0  15   1    0.04    0.06
   0 -15  -1    0.08    0.09
   0  15  -2    0.02    0.06
   0  15  -2    0.04    0.07
   0 -15   2    0.16    0.07
   0  15  -3   -0.01    0.08
   0 -15   3    0.10    0.08
   0  15  -3    0.06    0.09
  -1  15   0   13.08    0.54
   1  15   0   12.83    0.50
  -1  15   0   13.64    0.49
   1  15   0   12.91    0.53
   1 -15   0   13.00    0.51
  -1 -15   0   13.44    0.51
  -1  15   1    0.26    0.08
   1  15  -1    0.23    0.10
   1  15  -1    0.31    0.08
  -1 -15  -1    0.28    0.10
  -1 -15   1    0.51    0.09
   1  15   1    0.30    0.08
   1 -15  -1    0.27    0.10
  -1  15  -1    0.25    0.07
  -1  15  -1    0.14    0.09
   1  15  -2    9.80    0.47
   1 -15   2    9.80    0.36
   1  15  -2   10.04    0.42
  -1  15  -2   10.11    0.41
  -1 -15   2   10.29    0.38
  -1  15  -2    9.78    0.47
   1 -15   3    0.15    0.06
   1  15  -3    0.09    0.10
   1  15  -3    0.19    0.09
  -1 -15   3    0.26    0.09
  -1  15  -3    0.20    0.09
  -1  15  -3    0.16    0.11
   2 -15   0   54.09    1.69
   2  15   0   53.53    1.69
  -2 -15   0   54.17    1.70
   2  15   0   53.76    1.71
  -2  15   0   54.06    1.67
  -2  15   0   51.64    1.74
  -2  15   1  113.19    3.40
   2  15  -1  109.70    3.41
   2  15  -1  114.68    3.46
  -2 -15  -1  112.88    3.44
   2 -15   1  111.71    3.38
  -2 -15   1  113.17    3.39
   2  15   1  111.70    3.42
   2 -15  -1  109.17    3.44
  -2  15  -1  113.70    3.40
  -2  15  -1  109.37    3.48
   2  15   1  114.58    3.42
   2  15  -2   46.53    1.48
   2  15  -2   44.40    1.53
   2 -15   2   45.45    1.39
  -2  15  -2   45.55    1.45
  -2  15  -2   44.95    1.54
  -2 -15   2   45.68    1.43
   2  15  -3   77.07    2.48
   2  15  -3   75.96    2.42
  -2 -15   3   74.60    2.33
  -2  15  -3   78.02    2.50
  -2  15  -3   78.37    2.39
  -3  15   0   57.46    1.80
   3 -15   0   58.71    1.83
  -3  15   0   57.66    1.89
   3  15   0   58.69    1.83
  -3 -15   0   57.80    1.83
   3  15   0   58.37    1.84
  -3  15   1   38.39    1.24
  -3 -15  -1   38.48    1.29
   3  15  -1   38.32    1.30
   3 -15   1   39.39    1.24
   3  15  -1   39.92    1.27
   3 -15  -1   38.42    1.29
  -3 -15   1   39.75    1.26
   3  15   1   37.19    1.27
  -3  15  -1   38.46    1.33
   3  15   1   39.33    1.26
  -3  15  -1   39.28    1.24
   3  15  -2   47.10    1.54
   3  15  -2   45.64    1.49
   3 -15   2   44.67    1.40
  -3 -15   2   46.41    1.45
  -3  15  -2   44.67    1.56
  -3  15  -2   46.49    1.46
   3  15  -3   24.85    0.92
   3  15  -3   25.98    0.97
  -3  15  -3   26.23    1.00
  -3 -15   3   24.59    0.85
  -3  15  -3   26.52    0.89
   4  15   0   15.11    0.57
  -4 -15   0   15.07    0.58
   4 -15   0   15.50    0.57
  -4  15   0   14.72    0.53
  -4  15   0   14.94    0.62
   4  15   0   15.11    0.57
   4  15  -1  110.42    3.48
  -4  15   1  114.93    3.45
  -4 -15  -1  110.77    3.50
   4  15  -1  114.80    3.51
   4  15   1  118.76    3.46
   4 -15  -1  112.03    3.50
  -4 -15   1  110.46    3.47
  -4  15  -1  114.45    3.56
   4  15   1  116.79    3.49
  -4  15  -1  114.01    3.44
   4  15   1  117.77    3.49
   4  15  -2   12.93    0.56
   4 -15   2   13.04    0.46
   4  15  -2   13.29    0.54
  -4 -15   2   13.28    0.51
  -4  15  -2   14.59    0.62
  -4  15  -2   13.27    0.50
   4  15  -3   72.21    2.30
   4  15  -3   71.64    2.35
  -4  15  -3   74.66    2.57
  -4  15  -3   71.82    2.23
  -4 -15   3   70.27    2.22
  -5  15   0    2.57    0.16
   5  15   0    2.79    0.19
   5 -15   0    2.63    0.22
  -5  15   0    2.59    0.23
   5  15   0    2.55    0.19
  -5 -15   0    2.60    0.22
   5  15   0    2.64    0.20
  -5  15   1    1.34    0.13
   5  15  -1    1.28    0.15
   5 -15   1    1.11    0.16
   5  15  -1    1.29    0.16
   5  15   1    1.22    0.15
   5  15   1    1.21    0.18
  -5  15  -1    1.23    0.19
   5 -15  -1    1.50    0.22
   5  15   1    1.18    0.14
  -5 -15   1    0.94    0.14
  -5  15  -1    1.08    0.12
   5  15  -2    1.85    0.18
   5 -15   2    2.19    0.16
   5  15  -2    1.97    0.20
  -5 -15   2    1.81    0.21
  -5  15  -2    2.06    0.23
  -5  15  -2    1.95    0.16
   5  15  -3    0.61    0.19
   5  15  -3    0.52    0.11
  -5 -15   3    0.79    0.15
  -5  15  -3    0.70    0.11
   6 -15   0    0.23    0.11
   6  15   0    0.27    0.09
   6  15   0    0.30    0.10
   6  15   0    0.31    0.09
  -6  15   0    0.33    0.08
  -6 -15   0    0.34    0.11
   6 -15   1    2.95    0.21
  -6  15   1    3.03    0.18
   6  15  -1    3.04    0.22
   6  15  -1    3.15    0.22
  -6  15  -1    2.92    0.27
   6  15   1    2.86    0.21
  -6  15  -1    3.04    0.18
   6  15   1    3.12    0.20
  -6 -15   1    2.93    0.25
   6 -15  -1    2.97    0.27
   6  15  -2    0.03    0.09
   6 -15   2    0.18    0.09
   6  15  -2    0.21    0.09
  -6  15  -2    0.23    0.09
  -6  15  -2    0.17    0.12
  -6 -15   2    0.25    0.13
   6  15   2    0.16    0.08
   6  15  -3    1.99    0.20
  -6 -15   3    1.61    0.20
  -6  15  -3    2.10    0.18
  -6  15  -3    1.74    0.25
   7 -15   0    4.74    0.30
   7  15   0    4.99    0.28
   7  15   0    5.11    0.27
  -7 -15   0    4.54    0.32
  -7  15   0    4.93    0.23
   7  15   0    5.07    0.27
  -7  15   1    6.88    0.30
   7  15  -1    6.87    0.35
   7  15  -1    7.13    0.36
   7  15   1    7.08    0.35
   7  15   1    7.29    0.38
   7  15   1    7.50    0.36
  -7  15  -1    7.03    0.42
   7 -15  -1    8.61    0.43
  -7  15  -1    7.12    0.29
  -7 -15   1    7.24    0.39
   7  15  -2    4.34    0.27
   7 -15   2    4.24    0.21
   7  15  -2    4.18    0.29
  -7 -15   2    4.31    0.33
  -7  15  -2    4.45    0.35
   7  15   2    4.11    0.26
  -7  15  -2    4.53    0.22
   7  15  -3    5.43    0.33
   7  15  -3    4.78    0.36
  -7  15  -3    5.54    0.40
  -7  15  -3    5.17    0.27
   8 -15   0  121.63    3.85
   8  15   0  130.95    3.83
  -8  15   0  123.89    3.77
   8  15   0  126.63    3.84
   8  15   0  129.21    3.88
   8  15  -1  174.38    4.91
   8  15  -1  167.88    4.99
  -8  15   1  163.83    4.91
   8  15  -1  162.59    5.00
   8  15   1  166.31    5.01
  -8  15  -1  156.58    5.08
   8  15   1  160.67    4.99
   8 -15   2   99.56    3.01
   8  15  -2  102.08    3.12
   8  15  -2  104.65    3.13
   8  15   2  100.23    3.09
  -8  15  -2   91.96    3.23
   9  15   0    0.12    0.10
   9  15   0    0.21    0.11
   9  15   0    0.51    0.11
   9  15  -1   20.10    0.77
  -9  15   1   20.26    0.68
   9 -15   1   19.76    0.73
   9  15  -1   20.46    0.75
   9  15  -1   22.03    0.71
   9  15   1   19.66    0.76
   9  15   1   20.84    0.80
   9 -15   2    0.01    0.08
   9  15  -2   -0.04    0.08
   9  15  -2   -0.01    0.09
  -9  15  -2    0.05    0.15
   9  15   2    0.17    0.08
  10  15   0    4.05    0.25
  10 -15   0    4.23    0.28
  10  15   0    3.64    0.29
  10  15   0    4.50    0.27
  10  15  -1   14.72    0.55
  10  15  -1   13.84    0.58
  10  15  -1   14.30    0.57
  10 -15   1   13.86    0.56
  10 -15  -1   11.76    0.69
  10  15   1   15.20    0.63
  10  15   1   13.74    0.57
  10  15  -2    3.58    0.27
  10  15  -2    3.53    0.29
  10  15   2    4.33    0.40
 -10  15  -2    3.77    0.35
  10  15   2    3.05    0.24
  11 -15   0   -0.09    0.11
  11  15   0    0.02    0.12
  11  15   0   -0.08    0.13
  11  15   0    0.13    0.09
  11  15  -1    0.18    0.10
  11  15  -1    0.20    0.12
  11 -15   1    0.14    0.12
  11  15   1    0.06    0.08
  11  15   1   -0.13    0.16
  11 -15  -1    0.20    0.13
  12 -15   0   18.26    0.76
  12  15   0   19.17    0.75
  12  15   0   19.60    0.78
   0 -16   0   47.61    1.53
   0  16   0   47.23    1.57
   0  16   0   48.83    1.53
   0  16  -1   11.77    0.52
   0  16   1   11.92    0.47
   0 -16  -1   12.24    0.51
   0  16  -1   11.46    0.46
   0 -16   1   11.58    0.45
   0  16  -2   37.73    1.25
   0  16  -2   38.00    1.32
   0  16  -3    6.12    0.32
  -1 -16   0    0.16    0.09
   1 -16   0    0.03    0.09
   1  16   0    0.40    0.09
   1  16   0    0.07    0.08
  -1  16   0    0.29    0.11
  -1  16   0    0.22    0.07
   1 -16   1   14.80    0.54
   1  16  -1   14.89    0.57
   1  16  -1   15.65    0.62
  -1  16   1   15.13    0.56
  -1 -16  -1   14.92    0.60
  -1 -16   1   15.05    0.55
  -1  16  -1   15.06    0.62
   1  16   1   15.11    0.57
   1 -16  -1   14.85    0.60
  -1  16  -1   15.36    0.56
   1  16  -2    0.08    0.09
   1 -16   2    0.13    0.08
   1  16  -2    0.25    0.09
  -1  16  -2    0.13    0.08
  -1  16  -2    0.06    0.10
  -1 -16   2    0.16    0.08
   1  16  -3   10.55    0.46
  -1  16  -3   10.07    0.72
  -1  16  -3   10.51    0.45
   2  16   0    2.69    0.18
   2 -16   0    2.65    0.23
  -2  16   0    2.67    0.17
  -2 -16   0    2.52    0.21
  -2  16   0    2.57    0.23
   2  16   0    2.54    0.21
  -2  16   1   24.20    0.81
  -2 -16  -1   23.63    0.86
   2 -16   1   23.00    0.79
   2  16  -1   23.38    0.87
   2  16  -1   23.69    0.83
  -2  16  -1   24.56    0.81
   2  16   1   23.26    0.83
  -2  16  -1   23.72    0.89
  -2 -16   1   24.27    0.81
   2 -16  -1   23.42    0.86
   2 -16   2    2.58    0.17
   2  16  -2    2.58    0.19
   2  16  -2    2.68    0.23
  -2  16  -2    2.78    0.19
  -2  16  -2    2.54    0.25
  -2 -16   2    2.34    0.19
   2  16  -3   16.63    0.66
  -2  16  -3   16.48    0.78
  -2  16  -3   17.00    0.64
   3 -16   0    2.52    0.23
   3  16   0    2.53    0.21
  -3  16   0    2.49    0.17
   3  16   0    2.68    0.19
  -3 -16   0    2.71    0.23
  -3  16   0    2.59    0.23
   3  16  -1    0.20    0.08
  -3  16   1    0.27    0.08
  -3 -16  -1    0.20    0.12
   3 -16   1    0.24    0.09
   3  16  -1    0.25    0.10
   3 -16  -1    0.11    0.12
  -3 -16   1    0.47    0.11
  -3  16  -1    0.26    0.10
   3  16   1    0.20    0.07
  -3  16  -1    0.25    0.08
   3 -16   2    2.00    0.18
   3  16  -2    2.15    0.18
   3  16  -2    2.10    0.22
  -3  16  -2    1.91    0.23
  -3  16  -2    2.13    0.17
  -3 -16   2    2.28    0.21
   3  16  -3    0.09    0.13
   3  16  -3    0.22    0.09
  -3  16  -3    0.28    0.10
  -3  16  -3    0.15    0.13
   4  16   0    9.96    0.43
  -4  16   0   10.08    0.49
  -4 -16   0   10.27    0.45
   4 -16   0   10.18    0.45
  -4  16   0   10.19    0.40
   4  16   0   10.22    0.44
   4  16  -1   20.53    0.74
   4 -16   1   20.98    0.71
   4  16  -1   20.30    0.76
  -4  16   1   19.89    0.70
   4  16   1   21.12    0.73
   4  16   1   20.64    0.74
  -4  16  -1   20.59    0.81
  -4  16  -1   20.06    0.70
  -4 -16   1   19.86    0.73
   4 -16  -1   19.91    0.77
   4  16  -2    9.92    0.46
   4  16  -2    8.46    0.41
   4 -16   2    8.72    0.35
  -4  16  -2    8.59    0.47
  -4 -16   2    8.48    0.40
  -4  16  -2    9.18    0.38
   4  16  -3   13.92    0.64
   4  16  -3   14.18    0.59
  -4  16  -3   14.34    0.55
  -4  16  -3   14.34    0.67
   5  16   0    8.59    0.39
   5 -16   0    8.64    0.41
  -5 -16   0    8.40    0.41
  -5  16   0    8.80    0.35
   5  16   0    8.50    0.39
  -5  16   0    8.56    0.45
   5  16  -1    0.37    0.11
   5  16  -1    0.23    0.10
  -5  16   1    0.16    0.08
   5 -16   1    0.18    0.10
  -5  16  -1    0.17    0.07
   5  16   1    0.17    0.10
   5  16   1    0.28    0.09
  -5  16  -1    0.33    0.13
   5  16   1    0.14    0.10
  -5 -16   1    0.19    0.11
   5 -16  -1    0.18    0.13
   5  16  -2    8.41    0.41
   5 -16   2    7.08    0.31
   5  16  -2    7.29    0.37
   5  16   2    7.30    0.36
  -5  16  -2    7.64    0.33
  -5 -16   2    7.38    0.37
   5  16   2    7.48    0.42
  -5  16  -2    6.80    0.42
   5  16  -3    0.27    0.12
   5  16  -3    0.30    0.12
   5  16   3    0.26    0.24
  -5  16  -3    0.31    0.10
  -5  16  -3    0.45    0.16
   6  16   0   23.59    0.85
   6  16   0   23.99    0.84
  -6 -16   0   23.54    0.95
   6 -16   0   23.48    0.85
   6  16   0   25.25    0.82
  -6  16   0   23.55    0.79
  -6  16   1    2.54    0.17
   6  16  -1    2.33    0.19
   6  16  -1    2.52    0.22
   6 -16   1    2.32    0.23
   6 -16  -1    2.44    0.30
  -6 -16   1    2.72    0.26
  -6  16  -1    2.43    0.17
   6  16   1    2.52    0.24
  -6  16  -1    2.22    0.25
   6  16   1    2.28    0.19
   6  16  -2   19.28    0.75
   6  16  -2   19.70    0.77
  -6 -16   2   19.12    0.74
  -6  16  -2   19.73    0.84
  -6  16  -2   19.76    0.67
   6  16   2   20.50    0.80
   6  16   2   18.83    0.73
   6  16  -3    0.81    0.15
   6  16   3    0.77    0.26
  -6  16  -3    1.15    0.22
  -6  16  -3    0.97    0.14
  -7  16   0    3.23    0.19
   7  16   0    3.27    0.23
   7  16   0    3.36    0.23
   7  16   0    3.28    0.23
   7 -16   0    3.11    0.29
   7  16  -1    0.76    0.13
  -7  16   1    0.93    0.12
   7 -16   1    1.11    0.16
   7  16  -1    0.84    0.14
   7  16   1    1.10    0.15
  -7  16  -1    0.76    0.18
  -7  16  -1    1.15    0.13
   7  16   1    0.94    0.16
   7  16  -2    3.10    0.24
   7 -16   2    2.80    0.19
   7  16  -2    3.04    0.26
   7  16   2    3.28    0.32
   7  16   2    2.82    0.22
  -7  16  -2    3.20    0.20
   8  16   0    0.49    0.11
   8 -16   0    0.29    0.16
  -8  16   0    0.48    0.11
   8  16   0    0.56    0.13
   8  16   0    0.33    0.12
   8  16  -1    0.07    0.07
   8  16  -1    0.06    0.10
  -8  16   1    0.16    0.09
   8 -16   1    0.08    0.14
   8  16   1    0.07    0.08
  -8  16  -1    0.11    0.13
  -8  16  -1    0.09    0.16
   8  16  -2    0.39    0.13
   8  16  -2    0.33    0.11
   8  16   2    0.33    0.10
  -8  16  -2    0.40    0.17
   8  16   2    0.41    0.18
   9  16   0   -0.03    0.12
   9  16   0    0.11    0.11
   9  16   0    0.17    0.10
   9 -16   1    0.12    0.10
   9  16  -1    0.04    0.10
  -9  16   1    0.20    0.10
   9  16  -1    0.20    0.09
   9  16  -1    0.19    0.12
   9  16   1    0.00    0.07
   9  16   1    0.17    0.14
   9  16  -2    0.08    0.15
   9  16   2    0.06    0.19
   9  16   2    0.02    0.08
  -9  16  -2    0.18    0.14
  10  16   0    0.18    0.09
  10  16   0    0.49    0.15
  10  16   0    0.30    0.13
  10 -16   0    0.25    0.12
  10 -16   1    6.43    0.36
  10  16  -1    6.95    0.37
  10  16  -1    6.87    0.37
  10  16   1    7.37    0.44
  10  16   1    6.43    0.35
  10 -16  -1    6.29    0.39
  11 -16   0   -0.10    0.14
  11  16   0    0.14    0.10
  11  16   0    0.21    0.16
   0  17   0    0.21    0.11
   0 -17   0    0.13    0.10
   0  17   0    0.20    0.08
   0  17  -1    0.03    0.09
   0 -17  -1    0.11    0.13
   0  17  -1   -0.01    0.06
   0  17   1    0.06    0.06
   0 -17   1    0.10    0.09
   0  17  -2    0.05    0.08
   0  17  -2   -0.04    0.10
   0 -17   2    0.05    0.09
   0  17  -3    0.11    0.10
   0  17  -3    0.17    0.11
   1  17   0    7.81    0.39
   1 -17   0    7.88    0.39
  -1 -17   0    7.80    0.38
  -1  17   0    7.85    0.35
   1  17   0    8.38    0.36
  -1  17   0    8.04    0.41
   1  17  -1   47.61    1.51
   1 -17   1   45.42    1.48
  -1  17   1   47.60    1.51
   1  17  -1   48.57    1.58
  -1  17  -1   48.27    1.51
   1  17   1   45.89    1.51
  -1  17  -1   47.72    1.59
   1 -17  -1   44.21    1.54
  -1 -17   1   46.25    1.49
   1 -17   2    6.88    0.31
   1  17  -2    7.00    0.35
   1  17  -2    7.18    0.40
  -1  17  -2    7.22    0.42
  -1  17  -2    7.41    0.34
  -1 -17   2    7.15    0.33
   1  17  -3   34.65    1.23
   1  17  -3   31.93    1.14
  -1  17  -3   33.08    1.23
  -1  17  -3   32.79    1.13
  -2  17   0   23.05    0.89
   2  17   0   24.70    0.84
  -2 -17   0   23.44    0.84
  -2  17   0   23.27    0.81
   2  17   0   24.10    0.86
   2 -17   0   23.89    0.85
  -2  17   1   15.22    0.57
   2  17  -1   15.23    0.58
   2 -17   1   14.89    0.56
   2  17  -1   15.13    0.63
   2  17   1   15.12    0.58
   2 -17  -1   14.19    0.62
  -2  17  -1   15.16    0.64
  -2 -17   1   15.48    0.58
  -2  17  -1   15.19    0.56
   2  17  -2   20.94    0.77
   2  17  -2   21.38    0.83
  -2 -17   2   20.88    0.73
  -2  17  -2   21.68    0.76
  -2  17  -2   20.52    0.85
   2  17  -3   12.29    0.54
   2  17  -3   12.89    0.60
  -2  17  -3   13.39    0.62
  -2  17  -3   11.85    0.51
  -3  17   0    6.42    0.37
  -3  17   0    6.46    0.30
   3  17   0    6.47    0.32
   3 -17   0    6.66    0.36
   3  17   0    7.24    0.35
  -3 -17   0    5.95    0.35
   3  17  -1    0.05    0.10
   3 -17   1    0.11    0.10
   3  17  -1    0.19    0.09
   3  17   1    0.09    0.07
  -3 -17   1    0.12    0.10
  -3  17  -1    0.34    0.13
   3 -17  -1    0.22    0.15
   3 -17   2    6.14    0.36
   3  17  -2    5.74    0.35
   3  17  -2    5.86    0.32
  -3  17  -2    5.15    0.37
  -3 -17   2    6.22    0.33
   3  17   2    5.63    0.31
  -3  17  -2    5.86    0.29
   3  17  -3    0.07    0.09
   3  17  -3    0.16    0.10
  -3  17  -3   -0.02    0.11
  -3  17  -3    0.10    0.09
  -4  17   0   18.92    0.77
   4 -17   0   18.76    0.71
   4  17   0   18.87    0.70
   4  17   0   19.11    0.71
  -4 -17   0   17.68    0.71
  -4  17   0   19.02    0.66
   4  17  -1    2.57    0.20
  -4  17   1    2.35    0.17
   4 -17   1    2.51    0.24
   4  17  -1    2.60    0.22
  -4  17  -1    2.03    0.25
   4  17   1    2.46    0.20
  -4 -17   1    2.04    0.23
   4  17  -2   16.08    0.66
   4  17  -2   15.14    0.62
  -4  17  -2   15.96    0.58
  -4 -17   2   15.16    0.60
   4  17   2   15.45    0.61
   5 -17   0   13.90    0.60
  -5  17   0   14.42    0.53
   5  17   0   15.50    0.59
   5  17   0   14.57    0.58
   5 -17   1   15.25    0.59
  -5  17   1   15.15    0.56
   5  17  -1   15.24    0.61
   5  17  -1   15.61    0.60
  -5  17  -1   15.48    0.69
  -5 -17   1   14.30    0.60
   5  17   1   14.61    0.60
  -5  17  -1   15.50    0.55
   5  17  -2   12.06    0.52
   5  17  -2   12.55    0.56
   5  17   2   11.68    0.50
  -5  17  -2   10.45    0.80
  -5  17  -2   12.78    0.47
  -5 -17   2   10.76    0.50
   6  17   0    0.08    0.10
   6 -17   0   -0.05    0.14
   6  17   0    0.11    0.09
  -6  17   0   -0.05    0.08
  -6  17   1    0.37    0.09
   6 -17   1    0.51    0.15
   6  17  -1    0.31    0.11
   6  17  -1    0.22    0.09
   6  17   1    0.22    0.10
  -6  17  -1    0.24    0.14
   6  17   1    0.32    0.13
  -6  17  -1    0.44    0.10
   6  17  -2    0.15    0.08
   6  17  -2    0.21    0.12
  -6  17  -2    0.10    0.10
  -6  17  -2    0.01    0.13
   6  17   2   -0.04    0.15
   6  17   2    0.12    0.09
  -7  17   0    4.11    0.23
   7  17   0    4.05    0.26
   7  17   0    3.83    0.27
   7  17   0    3.97    0.26
   7 -17   0    3.90    0.34
   7 -17   1   17.59    0.67
   7  17  -1   16.74    0.68
   7  17  -1   17.76    0.68
  -7  17   1   16.67    0.61
   7  17   1   17.43    0.69
  -7  17  -1   17.23    0.60
   7  17   1   17.55    0.68
   7  17  -2    3.12    0.25
   7  17  -2    3.54    0.29
   7  17   2    3.10    0.23
  -7  17  -2    3.04    0.33
   7  17   2    3.46    0.36
  -7  17  -2    3.66    0.22
   8  17   0   47.62    1.52
   8  17   0   47.58    1.52
  -8  17   0   46.46    1.47
   8  17   0   47.12    1.57
   8  17  -1   66.74    2.09
   8  17  -1   63.49    2.10
  -8  17   1   65.16    2.01
  -8  17  -1   65.79    2.21
   8  17   1   65.30    2.09
   8  17   1   64.13    2.09
   9  17   0    9.11    0.42
   9  17   0    9.06    0.44
   9  17   0    9.24    0.44
   9 -17   1   28.61    1.02
  -9  17   1   29.61    0.95
   9  17  -1   29.13    1.07
   9  17  -1   30.72    1.04
   9  17   1   30.18    1.07
   9  17   1   28.42    1.04
  10  17   0    0.65    0.17
  10  17   0    1.15    0.17
  10 -17   0    0.98    0.18
   0  18   0    0.13    0.08
   0 -18   0   -0.09    0.12
   0  18   0    0.08    0.11
   0  18  -1   24.68    0.92
   0  18  -1   24.33    0.85
   0  18   1   23.75    0.85
   0 -18   1   24.31    0.84
   0  18  -2    0.17    0.09
   0  18   2    0.29    0.10
  -1  18   0   86.55    2.67
  -1  18   0   85.64    2.75
   1  18   0   88.08    2.73
   1 -18   0   86.29    2.69
   1  18   0   87.94    2.68
  -1 -18   0   84.41    2.68
   1 -18   1   61.53    1.96
   1  18  -1   63.23    2.05
   1  18  -1   62.73    1.99
  -1  18   1   63.02    1.99
  -1 -18   1   62.70    1.97
  -1  18  -1   62.04    2.06
   1  18   1   62.71    2.00
  -1  18  -1   64.63    1.99
   1  18  -2   73.90    2.33
  -1  18   2   76.81    2.33
  -1  18  -2   73.35    2.32
   1  18   2   71.28    2.32
  -2  18   0    4.05    0.30
   2 -18   0    3.78    0.32
  -2 -18   0    3.77    0.31
  -2  18   0    3.89    0.23
   2  18   0    4.36    0.29
   2  18   0    4.02    0.25
  -2  18   1    1.44    0.16
   2  18  -1    1.51    0.21
   2 -18   1    1.69    0.22
   2  18  -1    1.26    0.15
   2  18   1    1.45    0.16
  -2  18  -1    1.55    0.16
  -2  18  -1    1.38    0.21
  -2 -18   1    1.36    0.17
   2  18  -2    3.13    0.23
   2  18  -2    3.40    0.35
   2  18   2    3.21    0.23
  -2  18  -2    3.23    0.23
  -2  18  -2    2.76    0.33
   3  18   0    0.24    0.09
  -3  18   0    0.10    0.10
   3 -18   0   -0.09    0.14
  -3  18   0    0.12    0.07
   3  18   0    0.09    0.11
  -3  18   1    1.45    0.16
   3 -18   1    1.32    0.18
   3  18  -1    1.22    0.15
   3  18  -1    1.76    0.22
   3  18   1    1.44    0.17
  -3  18  -1    1.30    0.20
  -3 -18   1    1.74    0.24
  -3  18  -1    1.26    0.15
   3  18  -2    0.07    0.09
  -3  18  -2    0.11    0.09
   3  18   2    0.16    0.09
  -3  18  -2    0.03    0.10
  -4  18   0    3.42    0.30
   4  18   0    3.56    0.24
   4  18   0    3.49    0.26
  -4  18   0    3.56    0.21
   4 -18   0    2.54    0.32
   4  18  -1    1.73    0.17
  -4  18   1    1.45    0.16
   4 -18   1    1.80    0.26
   4  18  -1    1.69    0.22
  -4 -18   1    1.29    0.18
   4  18   1    1.52    0.18
  -4  18  -1    1.51    0.16
  -4  18  -1    1.64    0.24
   4  18  -2    2.95    0.22
  -4  18   2    2.77    0.21
  -4  18  -2    2.94    0.30
   4  18   2    2.54    0.22
  -4  18  -2    2.72    0.21
  -5  18   0  267.74    8.02
   5  18   0  270.60    8.09
   5 -18   0  257.94    8.07
   5  18   0  283.33    8.08
   5 -18   1   66.79    2.11
   5  18  -1   69.76    2.17
  -5  18   1   66.75    2.09
   5  18  -1   66.32    2.15
  -5  18  -1   67.00    2.09
   5  18   1   67.38    2.15
   5  18  -2  226.01    6.76
  -5  18   2  229.43    6.70
  -5  18  -2  230.04    6.86
   5  18   2  206.06    6.74
  -5  18  -2  226.84    6.68
  -6  18   0    1.29    0.15
   6  18   0    1.50    0.21
   6  18   0    1.53    0.17
   6 -18   0    1.44    0.33
   6  18  -1    0.04    0.10
   6  18  -1    0.14    0.07
  -6  18   1    0.23    0.10
  -6  18  -1    0.13    0.09
  -6  18  -1    0.27    0.14
   6  18   1    0.46    0.12
   6  18  -2    1.17    0.31
  -6  18   2    0.99    0.14
  -6  18  -2    1.15    0.22
  -6  18  -2    1.10    0.15
   7  18   0    8.99    0.43
  -7  18   0    9.10    0.38
   7  18   0    9.18    0.43
   7  18  -1    7.97    0.40
   7  18  -1    8.05    0.40
  -7  18   1    8.24    0.35
   7  18   1    7.84    0.40
  -7  18  -1    7.76    0.34
  -7  18  -1    7.14    0.48
   7  18   1    7.52    0.43
  -8  18   0    1.02    0.13
   8  18   0    0.82    0.14
   8  18   0    1.11    0.17
   8  18  -1    0.03    0.11
  -8  18   1    0.14    0.10
   8  18   1   -0.07    0.17
   0  19   0    0.01    0.11
   0  19   0   -0.01    0.07
   0  19   1    0.16    0.08
   0 -19   1    0.08    0.13
   0  19  -1    0.06    0.12
   0  19  -1    0.07    0.07
   0  19  -2    0.13    0.10
   0  19   2    0.02    0.09
   0  19  -2   -0.01    0.12
   1  19   0    8.95    0.40
   1  19   0    9.07    0.45
  -1  19   0    8.93    0.46
  -1  19   0    8.53    0.39
   1  19  -1    4.12    0.31
   1 -19   1    4.11    0.31
   1  19  -1    4.43    0.26
  -1  19   1    4.83    0.26
  -1  19  -1    4.03    0.25
  -1 -19   1    3.86    0.32
  -1  19  -1    4.31    0.33
   1  19   1    4.34    0.26
   1  19  -2    8.57    0.46
   1  19  -2    7.65    0.38
  -1  19   2    7.32    0.37
  -1  19  -2    7.73    0.37
   1  19   2    7.41    0.38
  -1  19  -2    7.51    0.45
   2  19   0   30.58    1.06
   2  19   0   30.40    1.09
  -2  19   0   30.08    1.12
  -2  19   0   31.36    1.04
   2 -19   1   25.63    0.93
   2  19  -1   27.14    0.95
  -2  19   1   27.05    0.93
   2  19  -1   27.82    1.00
  -2 -19   1   25.80    0.94
   2  19   1   26.38    0.95
  -2  19  -1   27.86    0.93
   2  19  -2   24.83    0.94
  -2  19   2   28.97    0.95
   2  19  -2   26.89    1.02
  -2  19  -2   27.59    1.05
  -2  19  -2   26.44    0.93
   2  19   2   24.92    0.95
  -3  19   0   10.44    0.53
  -3  19   0   10.11    0.43
   3  19   0   10.33    0.48
   3  19   0   10.32    0.45
  -3  19   1   43.29    1.43
   3  19  -1   44.82    1.47
   3  19  -1   46.56    1.51
   3  19   1   45.29    1.47
  -3  19  -1   44.31    1.43
  -3  19  -1   41.21    1.73
  -4  19   0    2.42    0.19
   4  19   0    2.51    0.25
   4  19   0    2.38    0.21
   4  19  -1    0.18    0.08
  -4  19   1    0.36    0.10
   4  19  -1    0.33    0.13
   4  19   1    0.49    0.12
  -4  19  -1    0.17    0.12
  -4  19  -1    0.25    0.10
   5  19   0    8.20    0.41
  -5  19   0    7.71    0.35
   5  19   0    7.71    0.39
   5  19  -1    1.09    0.18
  -5  19   1    1.26    0.16
   5  19  -1    1.04    0.15
  -5  19  -1    1.24    0.17
   5  19   1    1.20    0.18
  -5  19  -1    1.25    0.22
   6  19   0    1.35    0.18
   6  19   0    1.42    0.19
  -6  19   0    1.54    0.18
   6  19  -1    0.09    0.12
  -6  19   1    0.12    0.09
  -6  19  -1    0.15    0.14
  -6  19  -1   -0.02    0.10
   0  20   0    0.70    0.16
   0  20   0    0.49    0.12
   0  20  -1   26.84    0.99
   0  20  -1   24.85    0.90
   0  20   1   24.33    0.90
   1  20   0    3.60    0.24
   1  20   0    3.39    0.29
  -1  20   0    3.14    0.34
  -1  20   0    3.56    0.24
   1  20  -1   16.60    0.64
  -1  20   1   15.88    0.62
   1  20  -1   14.72    0.79
   1  20   1   15.43    0.63
  -1  20  -1   16.47    0.62
  -1  20  -1   17.01    0.72
  -2  20   0   10.65    0.46
   2  20   0   11.13    0.48
   2  20   0   10.94    0.52
   2  20  -1   10.47    0.47
  -2  20   1   10.34    0.45
   2  20   1   10.25    0.47
  -2  20  -1   10.23    0.44
  -2  20  -1   10.61    0.55
  -3  20   0    0.37    0.10
   3  20   0    0.25    0.13
   3  20   0    0.47    0.12
   4  20   0    0.38    0.14
   4  20   0    0.08    0.15
  -4  20   0    0.03    0.08
   0   0   0    0.00    0.00
;
_shelx_hkl_checksum              5678
loop_
_space_group_symop_operation_xyz
'x, y, z'
'-x, -y, z'
'-x+1/2, y+1/2, -z'
'x+1/2, -y+1/2, -z'
'-x, -y, -z'
'x, y, -z'
'x-1/2, -y-1/2, z'
'-x-1/2, y-1/2, z'
loop_
_atom_site_label
_atom_site_type_symbol
_atom_site_fract_x
_atom_site_fract_y
_atom_site_fract_z
_atom_site_U_iso_or_equiv
_atom_site_adp_type
_atom_site_occupancy
_atom_site_site_symmetry_order
_atom_site_calc_flag
_atom_site_refinement_flags_posn
_atom_site_refinement_flags_adp
_atom_site_refinement_flags_occupancy
La1 La 0.34040(2) 0.31815(2) 0.0000 0.00719(6) Uani 1 2 d S T P
Co1 Co 0.03474(2) 0.40574(2) 0.0000 0.00600(7) Uani 1 2 d S T P
Co2 Co 0.15151(2) 0.09650(2) 0.0000 0.00477(7) Uani 1 2 d S T P
Al1 Al 0.02667(5) 0.13171(4) 0.5000 0.00662(12) Uani 1 2 d S T P
Al2 Al 0.15892(5) 0.38010(5) 0.5000 0.00701(13) Uani 1 2 d S T P
Al3 Al 0.23637(5) 0.17143(4) 0.5000 0.00758(12) Uani 1 2 d S T P
Al4 Al 0.33117(5) 0.49175(4) 0.5000 0.00738(12) Uani 1 2 d S T P
Al5 Al 0.45306(5) 0.17875(4) 0.5000 0.00697(12) Uani 1 2 d S T P
Al6 Al 0.09566(5) 0.25293(4) 0.0000 0.00706(12) Uani 1 2 d S T P
Al7 Al 0.34010(5) 0.04441(5) 0.0000 0.00936(14) Uani 1 2 d S T P
Al8 Al 0.0000 0.5000 0.5000 0.00676(16) Uani 1 4 d S T P
Al9 Al 0.0000 0.0000 0.0000 0.00711(16) Uani 1 4 d S T P
loop_
_atom_site_aniso_label
_atom_site_aniso_U_11
_atom_site_aniso_U_22
_atom_site_aniso_U_33
_atom_site_aniso_U_23
_atom_site_aniso_U_13
_atom_site_aniso_U_12
La1 0.00653(8) 0.00906(8) 0.00599(8) 0.000 0.000 -0.00096(3)
Co1 0.00717(14) 0.00482(12) 0.00602(12) 0.000 0.000 0.00068(9)
Co2 0.00488(14) 0.00429(13) 0.00514(13) 0.000 0.000 -0.00003(8)
Al1 0.0061(3) 0.0068(3) 0.0070(3) 0.000 0.000 0.0006(2)
Al2 0.0052(3) 0.0080(3) 0.0079(3) 0.000 0.000 0.00010(19)
Al3 0.0068(3) 0.0085(3) 0.0075(3) 0.000 0.000 -0.0021(2)
Al4 0.0087(3) 0.0056(3) 0.0078(3) 0.000 0.000 -0.0018(2)
Al5 0.0065(3) 0.0059(3) 0.0085(3) 0.000 0.000 0.00122(19)
Al6 0.0072(3) 0.0046(3) 0.0093(3) 0.000 0.000 0.0006(2)
Al7 0.0061(3) 0.0109(3) 0.0110(3) 0.000 0.000 0.0022(2)
Al8 0.0098(4) 0.0044(3) 0.0060(4) 0.000 0.000 0.0012(3)
Al9 0.0060(4) 0.0061(3) 0.0092(4) 0.000 0.000 -0.0015(3)
loop_
_atom_type_symbol
_atom_type_description
_atom_type_scat_dispersion_real
_atom_type_scat_dispersion_imag
_atom_type_scat_source
Al Al 0.0645 0.0514 'International Tables Vol C Tables 4.2.6.8 and 6.1.1.4'
Co Co 0.3494 0.9721 'International Tables Vol C Tables 4.2.6.8 and 6.1.1.4'
La La -0.2871 2.4523 'International Tables Vol C Tables 4.2.6.8 and 6.1.1.4'
loop_
_geom_angle_atom_site_label_1
_geom_angle_atom_site_label_2
_geom_angle_atom_site_label_3
_geom_angle
_geom_angle_site_symmetry_1
_geom_angle_site_symmetry_3
Al1 La1 Al1 79.148(15) 7_665 7_664
Al1 La1 Al2 93.328(13) 7_665 .
Al1 La1 Al2 150.440(18) 7_664 .
Al1 La1 Al2 150.440(18) 7_665 1_554
Al1 La1 Al2 93.329(13) 7_664 1_554
Al2 La1 Al2 79.154(14) . 1_554
Al1 La1 Al5 102.821(15) 7_665 1_554
Al1 La1 Al5 54.032(14) 7_664 1_554
Al2 La1 Al5 154.323(17) . 1_554
Al2 La1 Al5 95.277(12) 1_554 1_554
Al1 La1 Al5 54.033(14) 7_665 .
Al1 La1 Al5 102.821(15) 7_664 .
Al2 La1 Al5 95.277(12) . .
Al2 La1 Al5 154.323(17) 1_554 .
Al5 La1 Al5 78.857(14) 1_554 .
Al1 La1 Al3 148.453(17) 7_665 1_554
Al1 La1 Al3 92.787(12) 7_664 1_554
Al2 La1 Al3 107.214(15) . 1_554
Al2 La1 Al3 59.490(16) 1_554 1_554
Al5 La1 Al3 50.398(18) 1_554 1_554
Al5 La1 Al3 99.419(15) . 1_554
Al1 La1 Al3 92.787(12) 7_665 .
Al1 La1 Al3 148.453(17) 7_664 .
Al2 La1 Al3 59.491(16) . .
Al2 La1 Al3 107.214(15) 1_554 .
Al5 La1 Al3 99.419(15) 1_554 .
Al5 La1 Al3 50.398(18) . .
Al3 La1 Al3 78.201(14) 1_554 .
Al1 La1 Al6 140.425(8) 7_665 .
Al1 La1 Al6 140.425(8) 7_664 .
Al2 La1 Al6 52.897(12) . .
Al2 La1 Al6 52.897(12) 1_554 .
Al5 La1 Al6 103.834(14) 1_554 .
Al5 La1 Al6 103.834(14) . .
Al3 La1 Al6 54.344(12) 1_554 .
Al3 La1 Al6 54.344(12) . .
Al1 La1 Al4 56.587(15) 7_665 .
Al1 La1 Al4 104.410(14) 7_664 .
Al2 La1 Al4 49.851(16) . .
Al2 La1 Al4 98.906(15) 1_554 .
Al5 La1 Al4 154.977(17) 1_554 .
Al5 La1 Al4 96.261(11) . .
Al3 La1 Al4 153.507(16) 1_554 .
Al3 La1 Al4 95.940(11) . .
Al6 La1 Al4 101.166(13) . .
Al1 La1 Al4 104.410(14) 7_665 1_554
Al1 La1 Al4 56.586(15) 7_664 1_554
Al2 La1 Al4 98.906(15) . 1_554
Al2 La1 Al4 49.852(16) 1_554 1_554
Al5 La1 Al4 96.261(11) 1_554 1_554
Al5 La1 Al4 154.976(17) . 1_554
Al3 La1 Al4 95.940(11) 1_554 1_554
Al3 La1 Al4 153.508(16) . 1_554
Al6 La1 Al4 101.167(13) . 1_554
Al4 La1 Al4 77.732(15) . 1_554
Al1 La1 Al9 51.109(9) 7_665 3
Al1 La1 Al9 51.109(9) 7_664 3
Al2 La1 Al9 102.179(12) . 3
Al2 La1 Al9 102.179(12) 1_554 3
Al5 La1 Al9 103.497(12) 1_554 3
Al5 La1 Al9 103.498(12) . 3
Al3 La1 Al9 140.553(7) 1_554 3
Al3 La1 Al9 140.554(7) . 3
Al6 La1 Al9 144.380(10) . 3
Al4 La1 Al9 53.370(10) . 3
Al4 La1 Al9 53.369(10) 1_554 3
Al6 Co1 Al8 125.238(5) . .
Al6 Co1 Al8 125.238(5) . 1_554
Al8 Co1 Al8 109.502(10) . 1_554
Al6 Co1 Al7 122.78(2) . 3
Al8 Co1 Al7 71.105(9) . 3
Al8 Co1 Al7 71.105(9) 1_554 3
Al6 Co1 Al7 125.53(2) . 7_565
Al8 Co1 Al7 71.080(10) . 7_565
Al8 Co1 Al7 71.080(10) 1_554 7_565
Al7 Co1 Al7 111.685(18) 3 7_565
Al6 Co1 Al5 71.493(16) . 7_564
Al8 Co1 Al5 146.288(19) . 7_564
Al8 Co1 Al5 63.186(11) 1_554 7_564
Al7 Co1 Al5 128.209(12) 3 7_564
Al7 Co1 Al5 75.648(18) 7_565 7_564
Al6 Co1 Al5 71.493(16) . 7_565
Al8 Co1 Al5 63.186(11) . 7_565
Al8 Co1 Al5 146.288(18) 1_554 7_565
Al7 Co1 Al5 128.209(12) 3 7_565
Al7 Co1 Al5 75.648(18) 7_565 7_565
Al5 Co1 Al5 103.53(2) 7_564 7_565
Al6 Co1 Al2 70.531(18) . 1_554
Al8 Co1 Al2 145.629(18) . 1_554
Al8 Co1 Al2 62.933(13) 1_554 1_554
Al7 Co1 Al2 74.938(18) 3 1_554
Al7 Co1 Al2 128.311(11) 7_565 1_554
Al5 Co1 Al2 63.684(18) 7_564 1_554
Al5 Co1 Al2 142.02(2) 7_565 1_554
Al6 Co1 Al2 70.530(18) . .
Al8 Co1 Al2 62.934(13) . .
Al8 Co1 Al2 145.629(18) 1_554 .
Al7 Co1 Al2 74.938(18) 3 .
Al7 Co1 Al2 128.312(11) 7_565 .
Al5 Co1 Al2 142.02(2) 7_564 .
Al5 Co1 Al2 63.684(18) 7_565 .
Al2 Co1 Al2 103.25(2) 1_554 .
Al6 Co1 Co1 178.65(2) . 5_565
Al8 Co1 Co1 54.751(5) . 5_565
Al8 Co1 Co1 54.751(5) 1_554 5_565
Al7 Co1 Co1 55.867(16) 3 5_565
Al7 Co1 Co1 55.818(18) 7_565 5_565
Al5 Co1 Co1 109.259(16) 7_564 5_565
Al5 Co1 Co1 109.259(16) 7_565 5_565
Al2 Co1 Co1 108.716(18) 1_554 5_565
Al2 Co1 Co1 108.717(18) . 5_565
Al9 Co2 Al6 109.003(18) . .
Al9 Co2 Al7 126.13(2) . .
Al6 Co2 Al7 124.87(2) . .
Al9 Co2 Al3 126.338(13) . .
Al6 Co2 Al3 73.510(17) . .
Al7 Co2 Al3 74.234(18) . .
Al9 Co2 Al3 126.338(13) . 1_554
Al6 Co2 Al3 73.509(17) . 1_554
Al7 Co2 Al3 74.235(18) . 1_554
Al3 Co2 Al3 106.22(2) . 1_554
Al9 Co2 Al4 73.525(15) . 3_545
Al6 Co2 Al4 126.535(13) . 3_545
Al7 Co2 Al4 74.784(18) . 3_545
Al3 Co2 Al4 149.02(2) . 3_545
Al3 Co2 Al4 65.235(17) 1_554 3_545
Al9 Co2 Al4 73.525(15) . 3_546
Al6 Co2 Al4 126.535(13) . 3_546
Al7 Co2 Al4 74.784(18) . 3_546
Al3 Co2 Al4 65.234(17) . 3_546
Al3 Co2 Al4 149.02(2) 1_554 3_546
Al4 Co2 Al4 105.85(3) 3_545 3_546
Al9 Co2 Al1 68.336(14) . 1_554
Al6 Co2 Al1 68.644(16) . 1_554
Al7 Co2 Al1 129.156(12) . 1_554
Al3 Co2 Al1 142.15(2) . 1_554
Al3 Co2 Al1 63.213(19) 1_554 1_554
Al4 Co2 Al1 63.201(18) 3_545 1_554
Al4 Co2 Al1 141.86(2) 3_546 1_554
Al9 Co2 Al1 68.335(14) . .
Al6 Co2 Al1 68.645(16) . .
Al7 Co2 Al1 129.156(12) . .
Al3 Co2 Al1 63.214(19) . .
Al3 Co2 Al1 142.15(2) 1_554 .
Al4 Co2 Al1 141.86(2) 3_545 .
Al4 Co2 Al1 63.201(18) 3_546 .
Al1 Co2 Al1 101.69(2) 1_554 .
Co2 Al1 Co2 101.69(2) 1_556 .
Co2 Al1 Al3 56.954(14) 1_556 .
Co2 Al1 Al3 56.954(14) . .
Co2 Al1 Al4 57.072(14) 1_556 3_546
Co2 Al1 Al4 57.071(14) . 3_546
Al3 Al1 Al4 60.86(2) . 3_546
Co2 Al1 Al9 120.01(2) 1_556 .
Co2 Al1 Al9 51.573(9) . .
Al3 Al1 Al9 105.176(19) . .
Al4 Al1 Al9 64.487(14) 3_546 .
Co2 Al1 Al9 51.573(9) 1_556 1_556
Co2 Al1 Al9 120.01(2) . 1_556
Al3 Al1 Al9 105.176(19) . 1_556
Al4 Al1 Al9 64.487(14) 3_546 1_556
Al9 Al1 Al9 92.647(18) . 1_556
Co2 Al1 Al6 51.580(14) 1_556 1_556
Co2 Al1 Al6 119.62(3) . 1_556
Al3 Al1 Al6 64.312(19) . 1_556
Al4 Al1 Al6 105.25(2) 3_546 1_556
Al9 Al1 Al6 168.70(3) . 1_556
Al9 Al1 Al6 86.561(9) 1_556 1_556
Co2 Al1 Al6 119.62(3) 1_556 .
Co2 Al1 Al6 51.581(14) . .
Al3 Al1 Al6 64.313(19) . .
Al4 Al1 Al6 105.25(2) 3_546 .
Al9 Al1 Al6 86.562(9) . .
Al9 Al1 Al6 168.70(3) 1_556 .
Al6 Al1 Al6 92.01(2) 1_556 .
Co2 Al1 Al5 112.134(18) 1_556 7_565
Co2 Al1 Al5 112.134(18) . 7_565
Al3 Al1 Al5 96.36(3) . 7_565
Al4 Al1 Al5 157.22(3) 3_546 7_565
Al9 Al1 Al5 127.311(14) . 7_565
Al9 Al1 Al5 127.311(14) 1_556 7_565
Al6 Al1 Al5 60.565(17) 1_556 7_565
Al6 Al1 Al5 60.564(17) . 7_565
Co2 Al1 La1 168.717(19) 1_556 7_565
Co2 Al1 La1 89.581(6) . 7_565
Al3 Al1 La1 132.131(16) . 7_565
Al4 Al1 La1 131.165(15) 3_546 7_565
Al9 Al1 La1 66.811(8) . 7_565
Al9 Al1 La1 121.85(2) 1_556 7_565
Al6 Al1 La1 122.89(2) 1_556 7_565
Al6 Al1 La1 68.063(14) . 7_565
Al5 Al1 La1 63.156(15) 7_565 7_565
Co2 Al1 La1 89.580(6) 1_556 7_566
Co2 Al1 La1 168.718(19) . 7_566
Al3 Al1 La1 132.131(16) . 7_566
Al4 Al1 La1 131.165(15) 3_546 7_566
Al9 Al1 La1 121.85(2) . 7_566
Al9 Al1 La1 66.811(9) 1_556 7_566
Al6 Al1 La1 68.064(14) 1_556 7_566
Al6 Al1 La1 122.89(2) . 7_566
Al5 Al1 La1 63.156(15) 7_565 7_566
La1 Al1 La1 79.148(15) 7_565 7_566
Co1 Al2 Co1 103.25(2) 1_556 .
Co1 Al2 Al8 56.621(12) 1_556 .
Co1 Al2 Al8 56.621(13) . .
Co1 Al2 Al4 113.48(2) 1_556 .
Co1 Al2 Al4 113.48(2) . .
Al8 Al2 Al4 102.32(3) . .
Co1 Al2 Al5 58.068(13) 1_556 7_565
Co1 Al2 Al5 58.067(13) . 7_565
Al8 Al2 Al5 59.175(17) . 7_565
Al4 Al2 Al5 161.49(3) . 7_565
Co1 Al2 Al6 118.78(2) 1_556 .
Co1 Al2 Al6 50.709(13) . .
Al8 Al2 Al6 102.268(19) . .
Al4 Al2 Al6 127.562(17) . .
Al5 Al2 Al6 62.173(18) 7_565 .
Co1 Al2 Al6 50.710(13) 1_556 1_556
Co1 Al2 Al6 118.78(2) . 1_556
Al8 Al2 Al6 102.269(19) . 1_556
Al4 Al2 Al6 127.562(17) . 1_556
Al5 Al2 Al6 62.174(18) 7_565 1_556
Al6 Al2 Al6 90.62(2) . 1_556
Co1 Al2 La1 88.526(6) 1_556 1_556
Co1 Al2 La1 166.71(2) . 1_556
Al8 Al2 La1 136.592(13) . 1_556
Al4 Al2 La1 66.012(15) . 1_556
Al5 Al2 La1 126.398(19) 7_565 1_556
Al6 Al2 La1 118.11(2) . 1_556
Al6 Al2 La1 64.233(14) 1_556 1_556
Co1 Al2 La1 166.71(2) 1_556 .
Co1 Al2 La1 88.527(7) . .
Al8 Al2 La1 136.592(13) . .
Al4 Al2 La1 66.011(15) . .
Al5 Al2 La1 126.398(19) 7_565 .
Al6 Al2 La1 64.235(13) . .
Al6 Al2 La1 118.11(2) 1_556 .
La1 Al2 La1 79.154(14) 1_556 .
Co2 Al3 Co2 106.22(2) . 1_556
Co2 Al3 Al1 59.832(15) . .
Co2 Al3 Al1 59.831(15) 1_556 .
Co2 Al3 Al5 115.938(18) . .
Co2 Al3 Al5 115.939(18) 1_556 .
Al1 Al3 Al5 169.93(3) . .
Co2 Al3 Al4 57.490(14) . 3_546
Co2 Al3 Al4 57.490(14) 1_556 3_546
Al1 Al3 Al4 59.61(2) . 3_546
Al5 Al3 Al4 110.32(3) . 3_546
Co2 Al3 Al6 118.03(3) . 1_556
Co2 Al3 Al6 50.679(13) 1_556 1_556
Al1 Al3 Al6 59.801(18) . 1_556
Al5 Al3 Al6 125.891(18) . 1_556
Al4 Al3 Al6 101.22(2) 3_546 1_556
Co2 Al3 Al6 50.680(13) . .
Co2 Al3 Al6 118.03(3) 1_556 .
Al1 Al3 Al6 59.800(18) . .
Al5 Al3 Al6 125.892(18) . .
Al4 Al3 Al6 101.22(2) 3_546 .
Al6 Al3 Al6 87.25(2) 1_556 .
Co2 Al3 La1 163.44(2) . 1_556
Co2 Al3 La1 87.116(7) 1_556 1_556
Al1 Al3 La1 122.578(19) . 1_556
Al5 Al3 La1 64.375(14) . 1_556
Al4 Al3 La1 138.976(10) 3_546 1_556
Al6 Al3 La1 62.923(13) 1_556 1_556
Al6 Al3 La1 114.52(2) . 1_556
Co2 Al3 La1 87.117(7) . .
Co2 Al3 La1 163.43(2) 1_556 .
Al1 Al3 La1 122.579(19) . .
Al5 Al3 La1 64.375(14) . .
Al4 Al3 La1 138.977(10) 3_546 .
Al6 Al3 La1 114.52(2) 1_556 .
Al6 Al3 La1 62.923(13) . .
La1 Al3 La1 78.201(14) 1_556 .
Co2 Al4 Co2 105.85(3) 3_556 3
Co2 Al4 Al1 59.726(14) 3_556 3_556
Co2 Al4 Al1 59.726(14) 3 3_556
Co2 Al4 Al2 115.183(18) 3_556 .
Co2 Al4 Al2 115.183(18) 3 .
Al1 Al4 Al2 168.15(3) 3_556 .
Co2 Al4 Al3 57.276(14) 3_556 3_556
Co2 Al4 Al3 57.276(14) 3 3_556
Al1 Al4 Al3 59.52(2) 3_556 3_556
Al2 Al4 Al3 108.63(3) . 3_556
Co2 Al4 Al9 50.453(9) 3_556 3_556
Co2 Al4 Al9 117.66(2) 3 3_556
Al1 Al4 Al9 59.422(14) 3_556 3_556
Al2 Al4 Al9 127.129(16) . 3_556
Al3 Al4 Al9 100.706(19) 3_556 3_556
Co2 Al4 Al9 117.66(2) 3_556 3
Co2 Al4 Al9 50.453(9) 3 3
Al1 Al4 Al9 59.422(14) 3_556 3
Al2 Al4 Al9 127.129(16) . 3
Al3 Al4 Al9 100.706(19) 3_556 3
Al9 Al4 Al9 87.251(17) 3_556 3
Co2 Al4 La1 164.09(2) 3_556 .
Co2 Al4 La1 87.729(7) 3 .
Al1 Al4 La1 124.011(18) 3_556 .
Al2 Al4 La1 64.138(16) . .
Al3 Al4 La1 138.634(11) 3_556 .
Al9 Al4 La1 116.01(2) 3_556 .
Al9 Al4 La1 64.703(8) 3 .
Co2 Al4 La1 87.729(7) 3_556 1_556
Co2 Al4 La1 164.09(2) 3 1_556
Al1 Al4 La1 124.011(18) 3_556 1_556
Al2 Al4 La1 64.137(16) . 1_556
Al3 Al4 La1 138.634(11) 3_556 1_556
Al9 Al4 La1 64.703(8) 3_556 1_556
Al9 Al4 La1 116.01(2) 3 1_556
La1 Al4 La1 77.732(15) . 1_556
Co1 Al5 Co1 103.53(2) 7_665 7_666
Co1 Al5 Al8 56.597(12) 7_665 3_546
Co1 Al5 Al8 56.597(12) 7_666 3_546
Co1 Al5 Al2 58.248(15) 7_665 7_665
Co1 Al5 Al2 58.248(15) 7_666 7_665
Al8 Al5 Al2 58.93(2) 3_546 7_665
Co1 Al5 Al3 112.295(18) 7_665 .
Co1 Al5 Al3 112.295(18) 7_666 .
Al8 Al5 Al3 100.63(2) 3_546 .
Al2 Al5 Al3 159.56(3) 7_665 .
Co1 Al5 Al6 117.86(3) 7_665 7_666
Co1 Al5 Al6 50.376(13) 7_666 7_666
Al8 Al5 Al6 101.31(2) 3_546 7_666
Al2 Al5 Al6 61.053(19) 7_665 7_666
Al3 Al5 Al6 129.442(17) . 7_666
Co1 Al5 Al6 50.376(13) 7_665 7_665
Co1 Al5 Al6 117.86(3) 7_666 7_665
Al8 Al5 Al6 101.31(2) 3_546 7_665
Al2 Al5 Al6 61.053(19) 7_665 7_665
Al3 Al5 Al6 129.442(17) . 7_665
Al6 Al5 Al6 89.41(2) 7_666 7_665
Co1 Al5 Al1 108.762(19) 7_665 7_665
Co1 Al5 Al1 108.762(19) 7_666 7_665
Al8 Al5 Al1 148.49(3) 3_546 7_665
Al2 Al5 Al1 89.56(3) 7_665 7_665
Al3 Al5 Al1 110.88(3) . 7_665
Al6 Al5 Al1 58.387(16) 7_666 7_665
Al6 Al5 Al1 58.387(16) 7_665 7_665
Co1 Al5 La1 167.192(18) 7_665 1_556
Co1 Al5 La1 88.703(6) 7_666 1_556
Al8 Al5 La1 135.645(12) 3_546 1_556
Al2 Al5 La1 128.261(17) 7_665 1_556
Al3 Al5 La1 65.227(15) . 1_556
Al6 Al5 La1 67.210(13) 7_666 1_556
Al6 Al5 La1 120.41(2) 7_665 1_556
Al1 Al5 La1 62.811(13) 7_665 1_556
Co1 Al5 La1 88.703(6) 7_665 .
Co1 Al5 La1 167.192(18) 7_666 .
Al8 Al5 La1 135.646(12) 3_546 .
Al2 Al5 La1 128.261(17) 7_665 .
Al3 Al5 La1 65.228(15) . .
Al6 Al5 La1 120.41(2) 7_666 .
Al6 Al5 La1 67.210(13) 7_665 .
Al1 Al5 La1 62.810(13) 7_665 .
La1 Al5 La1 78.857(14) 1_556 .
Co1 Al6 Co2 178.13(3) . .
Co1 Al6 Al1 119.176(19) . 1_554
Co2 Al6 Al1 59.774(16) . 1_554
Co1 Al6 Al1 119.177(19) . .
Co2 Al6 Al1 59.774(16) . .
Al1 Al6 Al1 92.01(2) 1_554 .
Co1 Al6 Al2 58.761(16) . .
Co2 Al6 Al2 122.266(18) . .
Al1 Al6 Al2 177.83(3) 1_554 .
Al1 Al6 Al2 88.648(14) . .
Co1 Al6 Al2 58.760(16) . 1_554
Co2 Al6 Al2 122.267(18) . 1_554
Al1 Al6 Al2 88.647(14) 1_554 1_554
Al1 Al6 Al2 177.83(3) . 1_554
Al2 Al6 Al2 90.62(2) . 1_554
Co1 Al6 Al5 58.132(15) . 7_564
Co2 Al6 Al5 120.807(18) . 7_564
Al1 Al6 Al5 61.046(17) 1_554 7_564
Al1 Al6 Al5 121.87(3) . 7_564
Al2 Al6 Al5 116.89(2) . 7_564
Al2 Al6 Al5 56.774(17) 1_554 7_564
Co1 Al6 Al5 58.132(15) . 7_565
Co2 Al6 Al5 120.807(18) . 7_565
Al1 Al6 Al5 121.87(3) 1_554 7_565
Al1 Al6 Al5 61.047(17) . 7_565
Al2 Al6 Al5 56.775(17) . 7_565
Al2 Al6 Al5 116.89(2) 1_554 7_565
Al5 Al6 Al5 89.41(2) 7_564 7_565
Co1 Al6 Al3 125.207(17) . 1_554
Co2 Al6 Al3 55.811(14) . 1_554
Al1 Al6 Al3 55.886(18) 1_554 1_554
Al1 Al6 Al3 115.58(2) . 1_554
Al2 Al6 Al3 125.56(3) . 1_554
Al2 Al6 Al3 66.459(17) 1_554 1_554
Al5 Al6 Al3 91.565(14) 7_564 1_554
Al5 Al6 Al3 176.38(3) 7_565 1_554
Co1 Al6 Al3 125.208(17) . .
Co2 Al6 Al3 55.810(14) . .
Al1 Al6 Al3 115.58(2) 1_554 .
Al1 Al6 Al3 55.886(18) . .
Al2 Al6 Al3 66.459(17) . .
Al2 Al6 Al3 125.56(3) 1_554 .
Al5 Al6 Al3 176.38(3) 7_564 .
Al5 Al6 Al3 91.565(14) 7_565 .
Al3 Al6 Al3 87.25(2) 1_554 .
Co1 Al6 La1 92.060(18) . .
Co2 Al6 La1 89.812(18) . .
Al1 Al6 La1 118.485(18) 1_554 .
Al1 Al6 La1 118.486(18) . .
Al2 Al6 La1 62.868(15) . .
Al2 Al6 La1 62.869(15) 1_554 .
Al5 Al6 La1 119.635(18) 7_564 .
Al5 Al6 La1 119.635(18) 7_565 .
Al3 Al6 La1 62.732(16) 1_554 .
Al3 Al6 La1 62.732(16) . .
Co1 Al6 La1 88.658(18) . 7_565
Co2 Al6 La1 89.470(18) . 7_565
Al1 Al6 La1 61.104(16) 1_554 7_565
Al1 Al6 La1 61.103(16) . 7_565
Al2 Al6 La1 117.562(17) . 7_565
Al2 Al6 La1 117.562(17) 1_554 7_565
Al5 Al6 La1 60.788(16) 7_564 7_565
Al5 Al6 La1 60.788(16) 7_565 7_565
Al3 Al6 La1 116.814(17) 1_554 7_565
Al3 Al6 La1 116.813(17) . 7_565
La1 Al6 La1 179.282(18) . 7_565
Co2 Al7 Co1 145.74(3) . 3_545
Co2 Al7 Co1 145.95(3) . 7_665
Co1 Al7 Co1 68.314(18) 3_545 7_665
Co2 Al7 Al8 136.166(8) . 3_546
Co1 Al7 Al8 53.356(11) 3_545 3_546
Co1 Al7 Al8 53.344(10) 7_665 3_546
Co2 Al7 Al8 136.166(8) . 3_545
Co1 Al7 Al8 53.356(11) 3_545 3_545
Co1 Al7 Al8 53.344(10) 7_665 3_545
Al8 Al7 Al8 87.667(16) 3_546 3_545
Co1 Al8 Co1 180.0 . 5_566
Co1 Al8 Co1 70.498(10) . 5_565
Co1 Al8 Co1 109.501(10) 5_566 5_565
Co1 Al8 Co1 109.502(10) . 1_556
Co1 Al8 Co1 70.499(10) 5_566 1_556
Co1 Al8 Co1 180.0 5_565 1_556
Co1 Al8 Al2 119.555(7) . 5_566
Co1 Al8 Al2 60.445(7) 5_566 5_566
Co1 Al8 Al2 60.445(7) 5_565 5_566
Co1 Al8 Al2 119.555(7) 1_556 5_566
Co1 Al8 Al2 60.445(7) . .
Co1 Al8 Al2 119.555(7) 5_566 .
Co1 Al8 Al2 119.555(7) 5_565 .
Co1 Al8 Al2 60.445(7) 1_556 .
Al2 Al8 Al2 180.0 5_566 .
Co1 Al8 Al5 60.219(7) . 7_565
Co1 Al8 Al5 119.781(7) 5_566 7_565
Co1 Al8 Al5 119.781(7) 5_565 7_565
Co1 Al8 Al5 60.219(7) 1_556 7_565
Al2 Al8 Al5 118.11(2) 5_566 7_565
Al2 Al8 Al5 61.89(2) . 7_565
Co1 Al8 Al5 119.781(7) . 3_556
Co1 Al8 Al5 60.219(7) 5_566 3_556
Co1 Al8 Al5 60.219(7) 5_565 3_556
Co1 Al8 Al5 119.781(7) 1_556 3_556
Al2 Al8 Al5 61.89(2) 5_566 3_556
Al2 Al8 Al5 118.11(2) . 3_556
Al5 Al8 Al5 180.0 7_565 3_556
Co1 Al8 Al7 55.575(12) . 7_565
Co1 Al8 Al7 124.425(12) 5_566 7_565
Co1 Al8 Al7 55.539(13) 5_565 7_565
Co1 Al8 Al7 124.461(13) 1_556 7_565
Al2 Al8 Al7 67.982(16) 5_566 7_565
Al2 Al8 Al7 112.017(16) . 7_565
Al5 Al8 Al7 68.471(16) 7_565 7_565
Al5 Al8 Al7 111.529(16) 3_556 7_565
Co1 Al8 Al7 124.425(12) . 3_556
Co1 Al8 Al7 55.575(12) 5_566 3_556
Co1 Al8 Al7 124.461(13) 5_565 3_556
Co1 Al8 Al7 55.539(13) 1_556 3_556
Al2 Al8 Al7 112.018(16) 5_566 3_556
Al2 Al8 Al7 67.983(16) . 3_556
Al5 Al8 Al7 111.529(16) 7_565 3_556
Al5 Al8 Al7 68.471(16) 3_556 3_556
Al7 Al8 Al7 180.0 7_565 3_556
Co1 Al8 Al7 124.461(13) . 7_566
Co1 Al8 Al7 55.539(13) 5_566 7_566
Co1 Al8 Al7 124.425(12) 5_565 7_566
Co1 Al8 Al7 55.575(12) 1_556 7_566
Al2 Al8 Al7 67.982(16) 5_566 7_566
Al2 Al8 Al7 112.017(16) . 7_566
Al5 Al8 Al7 68.471(16) 7_565 7_566
Al5 Al8 Al7 111.529(16) 3_556 7_566
Al7 Al8 Al7 87.668(16) 7_565 7_566
Al7 Al8 Al7 92.332(16) 3_556 7_566
Co1 Al8 Al7 55.539(13) . 3
Co1 Al8 Al7 124.461(13) 5_566 3
Co1 Al8 Al7 55.575(12) 5_565 3
Co1 Al8 Al7 124.425(12) 1_556 3
Al2 Al8 Al7 112.018(16) 5_566 3
Al2 Al8 Al7 67.983(16) . 3
Al5 Al8 Al7 111.529(16) 7_565 3
Al5 Al8 Al7 68.471(16) 3_556 3
Al7 Al8 Al7 92.332(16) 7_565 3
Al7 Al8 Al7 87.668(16) 3_556 3
Al7 Al8 Al7 180.0 7_566 3
Co2 Al9 Co2 180.0 5 .
Co2 Al9 Al1 119.908(12) 5 .
Co2 Al9 Al1 60.092(12) . .
Co2 Al9 Al1 60.091(12) 5 5
Co2 Al9 Al1 119.909(12) . 5
Al1 Al9 Al1 180.0 . 5
Co2 Al9 Al1 60.091(12) 5 5_556
Co2 Al9 Al1 119.909(12) . 5_556
Al1 Al9 Al1 87.354(18) . 5_556
Al1 Al9 Al1 92.645(18) 5 5_556
Co2 Al9 Al1 119.909(12) 5 1_554
Co2 Al9 Al1 60.091(12) . 1_554
Al1 Al9 Al1 92.646(18) . 1_554
Al1 Al9 Al1 87.355(18) 5 1_554
Al1 Al9 Al1 180.000(18) 5_556 1_554
Co2 Al9 Al4 56.021(12) 5 7_564
Co2 Al9 Al4 123.980(12) . 7_564
Al1 Al9 Al4 123.909(17) . 7_564
Al1 Al9 Al4 56.091(17) 5 7_564
Al1 Al9 Al4 116.111(16) 5_556 7_564
Al1 Al9 Al4 63.889(16) 1_554 7_564
Co2 Al9 Al4 123.979(12) 5 3_546
Co2 Al9 Al4 56.020(12) . 3_546
Al1 Al9 Al4 56.091(17) . 3_546
Al1 Al9 Al4 123.909(17) 5 3_546
Al1 Al9 Al4 63.889(16) 5_556 3_546
Al1 Al9 Al4 116.111(16) 1_554 3_546
Al4 Al9 Al4 180.0 7_564 3_546
Co2 Al9 Al4 56.021(12) 5 7_565
Co2 Al9 Al4 123.980(12) . 7_565
Al1 Al9 Al4 63.888(16) . 7_565
Al1 Al9 Al4 116.111(16) 5 7_565
Al1 Al9 Al4 56.091(17) 5_556 7_565
Al1 Al9 Al4 123.909(17) 1_554 7_565
Al4 Al9 Al4 87.252(17) 7_564 7_565
Al4 Al9 Al4 92.748(17) 3_546 7_565
Co2 Al9 Al4 123.979(12) 5 3_545
Co2 Al9 Al4 56.020(12) . 3_545
Al1 Al9 Al4 116.112(16) . 3_545
Al1 Al9 Al4 63.889(16) 5 3_545
Al1 Al9 Al4 123.909(17) 5_556 3_545
Al1 Al9 Al4 56.091(17) 1_554 3_545
Al4 Al9 Al4 92.748(17) 7_564 3_545
Al4 Al9 Al4 87.252(17) 3_546 3_545
Al4 Al9 Al4 180.0 7_565 3_545
Co2 Al9 La1 91.092(7) 5 3_545
Co2 Al9 La1 88.908(7) . 3_545
Al1 Al9 La1 117.919(12) . 3_545
Al1 Al9 La1 62.081(12) 5 3_545
Al1 Al9 La1 62.081(12) 5_556 3_545
Al1 Al9 La1 117.919(12) 1_554 3_545
Al4 Al9 La1 118.072(12) 7_564 3_545
Al4 Al9 La1 61.928(12) 3_546 3_545
Al4 Al9 La1 118.072(12) 7_565 3_545
Al4 Al9 La1 61.928(12) 3_545 3_545
Co2 Al9 La1 88.908(7) 5 7_565
Co2 Al9 La1 91.092(7) . 7_565
Al1 Al9 La1 62.081(12) . 7_565
Al1 Al9 La1 117.919(12) 5 7_565
Al1 Al9 La1 117.919(12) 5_556 7_565
Al1 Al9 La1 62.081(12) 1_554 7_565
Al4 Al9 La1 61.928(12) 7_564 7_565
Al4 Al9 La1 118.072(12) 3_546 7_565
Al4 Al9 La1 61.928(12) 7_565 7_565
Al4 Al9 La1 118.072(12) 3_545 7_565
La1 Al9 La1 180.0 3_545 7_565
loop_
_geom_bond_atom_site_label_1
_geom_bond_atom_site_label_2
_geom_bond_distance
_geom_bond_site_symmetry_2
La1 Al1 3.1659(5) 7_665
La1 Al1 3.1659(5) 7_664
La1 Al2 3.1658(5) .
La1 Al2 3.1658(5) 1_554
La1 Al5 3.1757(5) 1_554
La1 Al5 3.1757(5) .
La1 Al3 3.1980(5) 1_554
La1 Al3 3.1981(5) .
La1 Al6 3.2035(6) .
La1 Al4 3.2142(5) .
La1 Al4 3.2143(5) 1_554
La1 Al9 3.29347(14) 3
Co1 Al6 2.3288(6) .
Co1 Al8 2.46978(15) .
Co1 Al8 2.46978(15) 1_554
Co1 Al7 2.5380(7) 3
Co1 Al7 2.5394(6) 7_565
Co1 Al5 2.5678(4) 7_564
Co1 Al5 2.5678(4) 7_565
Co1 Al2 2.5728(4) 1_554
Co1 Al2 2.5728(4) .
Co1 Co1 2.8508(5) 5_565
Co2 Al9 2.3508(3) .
Co2 Al6 2.3586(6) .
Co2 Al7 2.4764(7) .
Co2 Al3 2.5219(4) .
Co2 Al3 2.5219(4) 1_554
Co2 Al4 2.5279(4) 3_545
Co2 Al4 2.5279(4) 3_546
Co2 Al1 2.6011(4) 1_554
Co2 Al1 2.6011(4) .
Al1 Co2 2.6011(4) 1_556
Al1 Al3 2.6858(9) .
Al1 Al4 2.6883(9) 3_546
Al1 Al9 2.7887(4) .
Al1 Al9 2.7887(4) 1_556
Al1 Al6 2.8037(6) 1_556
Al1 Al6 2.8037(6) .
Al1 Al5 2.8807(8) 7_565
Al1 La1 3.1660(5) 7_565
Al1 La1 3.1660(5) 7_566
Al2 Co1 2.5728(4) 1_556
Al2 Al8 2.6337(6) .
Al2 Al4 2.6892(9) .
Al2 Al5 2.7121(9) 7_565
Al2 Al6 2.8370(6) .
Al2 Al6 2.8370(6) 1_556
Al2 La1 3.1657(5) 1_556
Al3 Co2 2.5219(4) 1_556
Al3 Al5 2.7138(10) .
Al3 Al4 2.7220(9) 3_546
Al3 Al6 2.9233(6) 1_556
Al3 Al6 2.9234(6) .
Al3 La1 3.1980(5) 1_556
Al4 Co2 2.5280(4) 3_556
Al4 Co2 2.5280(4) 3
Al4 Al1 2.6884(9) 3_556
Al4 Al3 2.7220(9) 3_556
Al4 Al9 2.9234(4) 3_556
Al4 Al9 2.9234(4) 3
Al4 La1 3.2143(5) 1_556
Al5 Co1 2.5678(4) 7_665
Al5 Co1 2.5678(4) 7_666
Al5 Al8 2.6403(6) 3_546
Al5 Al2 2.7120(9) 7_665
Al5 Al6 2.8672(6) 7_666
Al5 Al6 2.8672(6) 7_665
Al5 Al1 2.8807(8) 7_665
Al5 La1 3.1757(5) 1_556
Al6 Al1 2.8037(6) 1_554
Al6 Al2 2.8370(6) 1_554
Al6 Al5 2.8672(6) 7_564
Al6 Al5 2.8672(6) 7_565
Al6 Al3 2.9234(6) 1_554
Al6 La1 3.3544(6) 7_565
Al7 Co1 2.5380(7) 3_545
Al7 Co1 2.5395(6) 7_665
Al7 Al8 2.9123(4) 3_546
Al7 Al8 2.9123(4) 3_545
Al8 Co1 2.46979(16) 5_566
Al8 Co1 2.46979(15) 5_565
Al8 Co1 2.46979(15) 1_556
Al8 Al2 2.6337(6) 5_566
Al8 Al5 2.6404(6) 7_565
Al8 Al5 2.6404(6) 3_556
Al8 Al7 2.9123(4) 7_565
Al8 Al7 2.9123(4) 3_556
Al8 Al7 2.9123(4) 7_566
Al8 Al7 2.9123(4) 3
Al9 Co2 2.3507(3) 5
Al9 Al1 2.7888(4) 5
Al9 Al1 2.7888(4) 5_556
Al9 Al1 2.7888(4) 1_554
Al9 Al4 2.9233(4) 7_564
Al9 Al4 2.9233(4) 3_546
Al9 Al4 2.9233(4) 7_565
Al9 Al4 2.9233(4) 3_545
Al9 La1 3.29352(14) 3_545
Al9 La1 3.29352(14) 7_565
