#------------------------------------------------------------------------------
#$Date: 2015-09-05 23:55:18 +0300 (Sat, 05 Sep 2015) $
#$Revision: 154577 $
#$URL: svn://www.crystallography.net/cod/cif/4/51/34/4513489.cif $
#------------------------------------------------------------------------------
#
# This file is available in the Crystallography Open Database (COD),
# http://www.crystallography.net/
#
# All data on this site have been placed in the public domain by the
# contributors.
#
data_4513489
loop_
_publ_author_name
'Karmakar, Anirban'
'R\'ubio, Guilherme M. D. M.'
'Guedes da Silva, M. F\'atima C.'
'Hazra, Susanta'
'Pombeiro, Armando J. L.'
_publ_section_title
;
 Solvent-Dependent Structural Variation of Zinc(II) Coordination Polymers
 and Their Catalytic Activity in the Knoevenagel Condensation Reaction
;
_journal_issue                   9
_journal_name_full               'Crystal Growth &amp; Design'
_journal_page_first              4185
_journal_paper_doi               10.1021/acs.cgd.5b00948
_journal_volume                  15
_journal_year                    2015
_chemical_formula_moiety         'C10 H11 N O7 Zn, C H3 N O'
_chemical_formula_sum            'C11 H14 N2 O8 Zn'
_chemical_formula_weight         367.61
_chemical_name_systematic
;
 ?
;
_space_group_crystal_system      monoclinic
_space_group_IT_number           11
_space_group_name_Hall           '-P 2yb'
_space_group_name_H-M_alt        'P 1 21/m 1'
_symmetry_space_group_name_Hall  '-P 2yb'
_symmetry_space_group_name_H-M   'P 1 21/m 1'
_atom_sites_solution_hydrogens   mixed
_audit_creation_method           SHELXL-2014
_cell_angle_alpha                90
_cell_angle_beta                 107.138(3)
_cell_angle_gamma                90
_cell_formula_units_Z            2
_cell_length_a                   9.8361(8)
_cell_length_b                   7.3181(7)
_cell_length_c                   10.8209(8)
_cell_measurement_reflns_used    5393
_cell_measurement_temperature    296(2)
_cell_measurement_theta_max      26.25
_cell_measurement_theta_min      2.46
_cell_volume                     744.32(11)
_computing_publication_material  'WinGX publication routines (Farrugia, 1999)'
_computing_structure_refinement  'SHELXL-2014 (Sheldrick, 2014)'
_computing_structure_solution    'SIR97 (Giacovazzo et al, 1997)'
_diffrn_ambient_temperature      296(2)
_diffrn_measured_fraction_theta_full 0.997
_diffrn_measured_fraction_theta_max 0.997
_diffrn_measurement_device_type  'Bruker APEX-II PHOTON 100 detector'
_diffrn_measurement_method       '\f and \w scans'
_diffrn_radiation_source         'fine-focus sealed tube'
_diffrn_radiation_type           MoK\a
_diffrn_radiation_wavelength     0.71073
_diffrn_reflns_av_R_equivalents  0.0350
_diffrn_reflns_av_unetI/netI     0.0175
_diffrn_reflns_laue_measured_fraction_full 0.997
_diffrn_reflns_laue_measured_fraction_max 0.997
_diffrn_reflns_limit_h_max       12
_diffrn_reflns_limit_h_min       -12
_diffrn_reflns_limit_k_max       9
_diffrn_reflns_limit_k_min       -9
_diffrn_reflns_limit_l_max       13
_diffrn_reflns_limit_l_min       -13
_diffrn_reflns_number            13910
_diffrn_reflns_point_group_measured_fraction_full 0.997
_diffrn_reflns_point_group_measured_fraction_max 0.997
_diffrn_reflns_theta_full        25.242
_diffrn_reflns_theta_max         26.409
_diffrn_reflns_theta_min         2.167
_exptl_absorpt_coefficient_mu    1.691
_exptl_absorpt_correction_T_max  0.7
_exptl_absorpt_correction_T_min  0.6
_exptl_absorpt_correction_type   multi-scan
_exptl_absorpt_process_details   SADABS
_exptl_crystal_colour            Colourless
_exptl_crystal_density_diffrn    1.640
_exptl_crystal_description       Block
_exptl_crystal_F_000             376
_exptl_crystal_size_max          0.350
_exptl_crystal_size_mid          0.250
_exptl_crystal_size_min          0.190
_refine_diff_density_max         0.482
_refine_diff_density_min         -0.420
_refine_diff_density_rms         0.101
_refine_ls_extinction_method     none
_refine_ls_goodness_of_fit_ref   1.150
_refine_ls_hydrogen_treatment    mixed
_refine_ls_matrix_type           full
_refine_ls_number_parameters     139
_refine_ls_number_reflns         1646
_refine_ls_number_restraints     2
_refine_ls_restrained_S_all      1.150
_refine_ls_R_factor_all          0.0467
_refine_ls_R_factor_gt           0.0411
_refine_ls_shift/su_max          0.001
_refine_ls_shift/su_mean         0.000
_refine_ls_structure_factor_coef Fsqd
_refine_ls_weighting_details
'w=1/[\s^2^(Fo^2^)+(0.0616P)^2^+0.5429P] where P=(Fo^2^+2Fc^2^)/3'
_refine_ls_weighting_scheme      calc
_refine_ls_wR_factor_gt          0.1076
_refine_ls_wR_factor_ref         0.1108
_reflns_Friedel_coverage         0.000
_reflns_number_gt                1469
_reflns_number_total             1646
_reflns_threshold_expression     'I > 2\s(I)'
_cod_data_source_file            cg5b00948_si_002.cif
_cod_data_source_block           compound2
_cod_depositor_comments
'Adding full bibliography for 4513488--4513492.cif.'
_cod_database_code               4513489
_shelx_space_group_comment
;
The symmetry employed for this shelxl refinement is uniquely defined
by the following loop, which should always be used as a source of
symmetry information in preference to the above space-group names.
They are only intended as comments.
;
_shelx_estimated_absorpt_t_min   0.589
_shelx_estimated_absorpt_t_max   0.739
_shelxl_version_number           2014-3
_shelx_res_file
;
TITL Ak-GR47 in P2(1)/m
CELL  0.71073   9.8361   7.3181  10.8209   90.000  107.138   90.000
ZERR     2.00   0.0008   0.0007   0.0008    0.000    0.003    0.000
LATT   1
SYMM  - X, 1/2 + Y, - Z
SFAC  C    H    N    O    ZN
UNIT  22   28   4    16   2
MERG   2
EQIV $1 x, y, z+1
HTAB N1 O7_$1
HTAB C5 O3
EQIV $2 -x+1, -y, -z+1
HTAB O6 O2_$2
HTAB N2 O5
EQIV $3 x+1, y, z-1
HTAB N2 O3_$3
HTAB O6 O7
DFIX  0.950 0.020 H9A C9
DFIX     0.950   0.020 C9 H9B
FMAP   2
PLAN   40
SIZE     0.19   0.25   0.35
ACTA
BOND   $H
LIST   4
L.S.  10
TEMP     0.00
WGHT    0.061600    0.542900
FVAR       0.22442
ZN1   5    0.424777    0.250000    0.388437    10.50000    0.02160    0.06334 =
         0.02906    0.00000    0.00867    0.00000
O4    4    0.619866    0.250000    0.508348    10.50000    0.02206    0.07996 =
         0.02847    0.00000    0.00860    0.00000
O5    4    0.701295    0.250000    0.338174    10.50000    0.03558    0.11590 =
         0.02460    0.00000    0.00813    0.00000
O2    4    0.371179    0.250000    0.614645    10.50000    0.02238    0.07689 =
         0.13010    0.00000    0.03094    0.00000
O3    4   -0.163240    0.250000    0.925074    10.50000    0.03303    0.15001 =
         0.03350    0.00000    0.01184    0.00000
N1    3    0.057421    0.250000    0.900040    10.50000    0.02747    0.07125 =
         0.03180    0.00000   -0.00113    0.00000
AFIX  43
H1N   2    0.146239    0.250000    0.942915    10.50000   -1.20000
AFIX   0
C10   1    0.719996    0.250000    0.455488    10.50000    0.02742    0.05478 =
         0.02973    0.00000    0.01024    0.00000
C4    1   -0.130535    0.250000    0.546427    10.50000    0.02244    0.04241 =
         0.03186    0.00000    0.00977    0.00000
O1    4    0.232226    0.250000    0.416238    10.50000    0.05807    0.10750 =
         0.08304    0.00000    0.05296    0.00000
C1    1    0.251169    0.250000    0.535934    10.50000    0.03897    0.04651 =
         0.08399    0.00000    0.03902    0.00000
C2    1    0.122111    0.250000    0.583313    10.50000    0.02561    0.04011 =
         0.05083    0.00000    0.01868    0.00000
C7    1    0.142435    0.250000    0.714567    10.50000    0.02049    0.05217 =
         0.04654    0.00000    0.00528    0.00000
AFIX  43
H7    2    0.234388    0.250000    0.770927    10.50000   -1.20000
AFIX   0
C6    1    0.027346    0.250000    0.763773    10.50000    0.02715    0.04752 =
         0.03250    0.00000    0.00614    0.00000
C8    1   -0.033425    0.250000    0.972097    10.50000    0.03747    0.06778 =
         0.03412    0.00000    0.00774    0.00000
C5    1   -0.109688    0.250000    0.678711    10.50000    0.02087    0.05173 =
         0.03192    0.00000    0.01225    0.00000
AFIX  43
H5    2   -0.187643    0.250000    0.710758    10.50000   -1.20000
AFIX   0
C3    1   -0.014877    0.250000    0.497637    10.50000    0.03131    0.04489 =
         0.03445    0.00000    0.01660    0.00000
AFIX  43
H3    2   -0.028712    0.250000    0.408830    10.50000   -1.20000
AFIX   0
O6    4    0.409655    0.023573    0.278675    11.00000    0.05272    0.06676 =
         0.06641    0.00227    0.01342    0.00040
AFIX 147
H6A   2    0.471403   -0.049587    0.315650    11.00000   -1.50000
AFIX   0
O7    4    0.377858    0.250000    0.030012    10.50000    0.04134    0.09168 =
         0.03895    0.00000    0.01084    0.00000
C11   1    0.482326    0.250000   -0.009161    10.50000    0.04696    0.06653 =
         0.03009    0.00000    0.00909    0.00000
AFIX  43
H11   2    0.465683    0.250000   -0.098339    10.50000   -1.20000
AFIX   0
N2    3    0.615333    0.250000    0.062090    10.50000    0.04169    0.10049 =
         0.03301    0.00000    0.01242    0.00000
AFIX  93
H2A   2    0.635703    0.250000    0.145027    10.50000   -1.20000
H2B   2    0.682398    0.250000    0.025990    10.50000   -1.20000
AFIX   0
C9    1    0.034224    0.250000    1.116002    10.50000    0.05526    0.08026 =
         0.03391    0.00000    0.00504    0.00000
H6B   2    0.391534    0.054083    0.181356    11.00000   -1.50000
H9A   2    0.132043    0.250000    1.129808    10.50000   -1.50000
H9B   2    0.010679    0.143197    1.151567    11.00000   -1.50000
HKLF    4  1.0  1.00  0.00  0.00  0.00  1.00  0.00  0.00  0.00  1.00

REM  Ak-GR47 in P2(1)/m
REM R1 =  0.0411 for    1469 Fo > 4sig(Fo)  and  0.0467 for all    1646 data
REM    139 parameters refined using      2 restraints

END

WGHT      0.0645      0.5080

REM Highest difference peak  0.482,  deepest hole -0.420,  1-sigma level  0.101
Q1    1   0.3429  0.2500  0.5409  10.50000  0.05    0.48
Q2    1   0.2224  0.2500  0.4633  10.50000  0.05    0.48
Q3    1   0.5131  0.2500  0.4614  10.50000  0.05    0.46
Q4    1   0.4390  0.1147  0.3656  11.00000  0.05    0.41
Q5    1  -0.1868  0.2500  0.9626  10.50000  0.05    0.41
Q6    1   0.1658  0.2500  0.3675  10.50000  0.05    0.40
Q7    1   0.0854  0.2500  0.9247  10.50000  0.05    0.39
Q8    1   0.0554  0.2500  0.5426  10.50000  0.05    0.39
Q9    1  -0.2132  0.2500  0.8665  10.50000  0.05    0.39
Q10   1  -0.1964  0.2500  0.5038  10.50000  0.05    0.38
Q11   1   0.6215  0.2500  0.5392  10.50000  0.05    0.38
Q12   1  -0.1261  0.1810  0.9418  11.00000  0.05    0.38
Q13   1   0.4677  0.2500  0.3622  10.50000  0.05    0.38
Q14   1   0.0387  0.2500  0.8241  10.50000  0.05    0.35
Q15   1   0.3189 -0.0494  0.2431  11.00000  0.05    0.35
Q16   1  -0.0785  0.2500  0.5236  10.50000  0.05    0.35
Q17   1   0.3570  0.2500  0.0589  10.50000  0.05    0.32
Q18   1   0.1830  0.2500  0.5636  10.50000  0.05    0.31
Q19   1   0.6563  0.2500  0.0411  10.50000  0.05    0.29
Q20   1   0.5099 -0.0364  0.2788  11.00000  0.05    0.29
Q21   1   0.6603  0.2500  0.3025  10.50000  0.05    0.28
Q22   1   0.3407 -0.0523  0.3108  11.00000  0.05    0.28
Q23   1   0.3939  0.1928  0.0157  11.00000  0.05    0.27
Q24   1   0.5885  0.2500  0.0368  10.50000  0.05    0.26
Q25   1  -0.1166  0.2500  0.6035  10.50000  0.05    0.26
Q26   1  -0.2762  0.2500  0.8745  10.50000  0.05    0.25
Q27   1   0.1206  0.2500  0.6475  10.50000  0.05    0.25
Q28   1  -0.1431  0.2500  0.6880  10.50000  0.05    0.24
Q29   1  -0.0073  0.2500  1.0611  10.50000  0.05    0.22
Q30   1   0.3749  0.1695  0.3999  11.00000  0.05    0.22
Q31   1   0.4679  0.0095  0.1969  11.00000  0.05    0.22
Q32   1   0.4209 -0.0287  0.3815  11.00000  0.05    0.21
Q33   1  -0.0607  0.2500  1.1481  10.50000  0.05    0.19
Q34   1   0.1188 -0.0057  1.2521  11.00000  0.05    0.18
Q35   1  -0.0243  0.2120  0.7383  11.00000  0.05    0.18
Q36   1   0.0780  0.1427  1.1275  11.00000  0.05    0.18
Q37   1   0.0456  0.0065  1.1623  11.00000  0.05    0.17
Q38   1  -0.2294  0.0012  0.6992  11.00000  0.05    0.17
Q39   1   0.7113  0.2039  0.3954  11.00000  0.05    0.16
Q40   1   0.2194  0.0010  0.2187  11.00000  0.05    0.16
;
_shelx_res_checksum              6162
_shelx_hkl_file
;
  -1   0   0  101.33    2.25
  -2   0   0  161.76    3.43
   2   0   0  158.92    3.42
   2   0   0  165.76    3.41
  -2   0   0  165.20    3.64
  -2   0   0  161.15    3.25
   2   0   0  169.92    3.27
   3   0   0   32.34    0.89
  -3   0   0   33.68    0.82
  -3   0   0   31.51    0.82
  -3   0   0   34.19    0.89
   3   0   0   31.82    0.86
   3   0   0   34.88    0.85
  -3   0   0   31.38    0.89
   4   0   0  107.08    2.46
  -4   0   0  107.03    2.49
  -4   0   0  108.21    2.34
   4   0   0  112.22    2.37
  -4   0   0  108.93    2.59
   4   0   0  107.25    2.49
  -4   0   0  116.87    2.35
  -5   0   0  143.54    3.34
  -5   0   0  137.26    3.19
   5   0   0  141.29    3.19
  -5   0   0  140.32    3.00
  -5   0   0  141.54    3.01
   5   0   0  138.41    3.16
   5   0   0  146.28    3.04
   6   0   0   61.88    1.67
  -6   0   0   64.59    1.72
  -6   0   0   63.84    1.73
   6   0   0   66.83    1.62
  -6   0   0   62.76    1.59
  -6   0   0   65.92    1.59
   6   0   0   65.05    1.70
   7   0   0   72.19    1.90
  -7   0   0   68.90    1.90
  -7   0   0   71.75    1.77
   7   0   0   68.72    1.88
   7   0   0   71.96    1.79
  -7   0   0   68.64    1.76
  -7   0   0   72.17    1.94
  -8   0   0    0.52    0.30
  -8   0   0   -0.01    0.27
  -8   0   0    0.23    0.32
   8   0   0    0.12    0.27
   8   0   0    0.19    0.28
   8   0   0    0.18    0.33
  -8   0   0    0.23    0.26
  -9   0   0   -0.04    0.40
  -9   0   0   -0.04    0.34
  -9   0   0    0.40    0.29
   9   0   0    0.46    0.46
   9   0   0    0.06    0.33
  -9   0   0    0.79    0.33
   9   0   0   -0.02    0.34
 -10   0   0    0.41    0.41
 -10   0   0    0.19    0.40
 -10   0   0   -0.49    0.41
 -10   0   0    0.21    0.47
  10   0   0   -0.34    0.43
  10   0   0    0.58    0.49
  10   0   0    0.05    0.39
 -11   0   0    5.97    0.77
 -11   0   0    5.67    0.79
 -11   0   0    5.87    0.68
  11   0   0    7.14    0.78
 -11   0   0    5.94    0.69
  11   0   0    4.35    0.83
  11   0   0    6.35    0.73
   0  -1   0    1.00    0.10
   0  -1   0    0.69    0.08
   0   1   0    0.71    0.08
   0   1   0    0.89    0.09
  -1  -1   0   32.70    0.71
  -1  -1   0   32.05    0.77
  -1   1   0   32.94    0.72
   1   1   0   32.73    0.71
   1   1   0   32.34    0.77
   2  -1   0   65.71    1.41
   2  -1   0   66.12    1.50
  -2  -1   0   68.52    1.39
  -2  -1   0   67.05    1.40
  -2  -1   0   66.01    1.48
  -2  -1   0   63.91    1.49
  -2  -1   0   68.52    1.50
  -2   1   0   64.85    1.40
   2   1   0   66.76    1.49
   2   1   0   64.07    1.50
   2   1   0   66.59    1.39
  -3  -1   0  160.85    3.53
  -3  -1   0  162.31    3.36
   3  -1   0  167.45    3.56
  -3  -1   0  164.74    3.55
   3  -1   0  160.63    3.36
  -3  -1   0  170.57    3.35
  -3  -1   0  166.00    3.70
   3   1   0  170.14    3.55
   3   1   0  165.01    3.55
   3   1   0  168.97    3.70
  -3   1   0  164.67    3.56
  -3   1   0  164.28    3.36
   3   1   0  171.64    3.37
   3   1   0  171.02    3.36
  -4  -1   0  113.51    2.44
  -4  -1   0  111.42    2.56
  -4  -1   0  111.82    2.41
   4  -1   0  111.08    2.42
  -4  -1   0  118.09    2.64
  -4  -1   0  115.11    2.57
   4  -1   0  112.93    2.59
   4   1   0  113.33    2.43
   4   1   0  114.97    2.57
   4   1   0  114.40    2.42
  -4   1   0  111.17    2.58
   4   1   0  112.29    2.56
  -4   1   0  115.45    2.74
  -4   1   0  118.50    2.44
   5  -1   0   98.33    2.38
  -5  -1   0  103.36    2.39
  -5  -1   0   99.11    2.36
  -5  -1   0  103.53    2.24
  -5  -1   0   94.39    2.19
   5  -1   0  100.42    2.22
   5   1   0  100.37    2.35
  -5   1   0  102.58    2.23
  -5   1   0  100.15    2.37
  -5   1   0  100.66    2.49
   5   1   0   97.19    2.22
   5   1   0   96.22    2.35
  -6  -1   0    1.97    0.28
  -6  -1   0    1.55    0.26
  -6  -1   0    1.39    0.24
   6  -1   0    1.62    0.26
  -6  -1   0    1.24    0.26
   6  -1   0    1.72    0.27
   6  -1   0    2.00    0.32
  -6   1   0    1.97    0.29
   6   1   0    1.77    0.28
   6   1   0    1.46    0.28
  -6   1   0    1.28    0.26
   6   1   0    1.69    0.28
  -6   1   0    1.19    0.21
  -7  -1   0    3.41    0.37
  -7  -1   0    2.78    0.37
  -7  -1   0    3.18    0.37
  -7  -1   0    2.87    0.34
   7  -1   0    3.16    0.37
   7  -1   0    3.36    0.43
   7  -1   0    3.45    0.40
   7   1   0    3.24    0.39
  -7   1   0    3.69    0.38
   7   1   0    3.57    0.40
  -7   1   0    2.86    0.40
   7   1   0    3.45    0.42
  -7   1   0    3.61    0.41
  -8  -1   0    2.33    0.36
  -8  -1   0    1.64    0.32
  -8  -1   0    1.43    0.34
  -8  -1   0    1.45    0.36
   8  -1   0    1.55    0.39
   8  -1   0    1.53    0.36
   8  -1   0    1.45    0.34
  -8   1   0    1.51    0.36
  -8   1   0    1.45    0.40
   8   1   0    1.25    0.40
   8   1   0    1.99    0.38
  -8   1   0    1.87    0.31
  -8   1   0    1.60    0.34
   8   1   0    1.68    0.37
   9  -1   0    4.11    0.52
  -9  -1   0    3.25    0.46
  -9  -1   0    4.42    0.51
   9  -1   0    3.61    0.47
  -9  -1   0    3.19    0.44
   9  -1   0    3.59    0.55
  -9  -1   0    3.91    0.49
   9   1   0    5.14    0.56
  -9   1   0    3.53    0.55
   9   1   0    3.89    0.52
  -9   1   0    3.20    0.42
  -9   1   0    3.23    0.47
  -9   1   0    3.34    0.46
   9   1   0    3.94    0.59
  10  -1   0   16.51    1.06
  10  -1   0   16.23    0.99
  10  -1   0   17.99    1.14
 -10  -1   0   17.20    0.98
 -10  -1   0   18.67    1.08
 -10  -1   0   15.68    0.92
 -10  -1   0   17.23    1.04
 -10   1   0   17.03    1.03
  10   1   0   18.25    1.03
  10   1   0   17.85    1.05
 -10   1   0   17.13    0.98
 -10   1   0   17.84    0.99
  10   1   0   17.61    1.17
 -10   1   0   17.22    1.21
  11  -1   0   15.61    1.35
 -11  -1   0   15.72    1.19
 -11  -1   0   16.15    1.24
  11  -1   0   16.07    1.18
 -11  -1   0   15.97    1.10
  11  -1   0   14.04    1.09
 -11  -1   0   18.37    1.09
 -11   1   0   16.95    1.26
  11   1   0   15.15    1.17
 -11   1   0   16.58    1.40
  11   1   0   17.95    1.21
  11   1   0   18.25    1.39
 -11   1   0   16.89    1.13
 -11   1   0   18.32    1.10
   1  -2   0    2.35    0.21
  -1  -2   0    2.41    0.21
  -1  -2   0    2.23    0.22
  -1   2   0    2.11    0.20
   1   2   0    2.58    0.22
   1   2   0    2.57    0.24
  -2  -2   0   23.94    0.62
  -2  -2   0   23.13    0.70
  -2   2   0   22.73    0.63
   2   2   0   23.37    0.61
   2   2   0   23.89    0.57
   3  -2   0    9.02    0.40
  -3  -2   0    9.14    0.37
  -3  -2   0    9.37    0.39
  -3  -2   0    9.97    0.46
  -3  -2   0    9.37    0.30
   3  -2   0    9.34    0.45
  -3  -2   0    9.25    0.42
   3   2   0    9.21    0.31
   3   2   0    9.31    0.36
  -3   2   0    9.19    0.39
   3   2   0    8.69    0.44
   4  -2   0   19.89    0.72
  -4  -2   0   19.70    0.68
   4  -2   0   19.27    0.63
  -4  -2   0   20.07    0.61
  -4  -2   0   19.99    0.64
  -4  -2   0   20.42    0.71
  -4  -2   0   20.31    0.57
  -4   2   0   19.93    0.63
   4   2   0   19.70    0.70
   4   2   0   20.65    0.62
   4   2   0   17.39    0.61
  -4   2   0   21.51    0.74
  -5  -2   0   30.77    0.88
  -5  -2   0   30.68    0.96
   5  -2   0   31.63    1.00
  -5  -2   0   29.69    0.89
  -5  -2   0   31.10    1.00
  -5  -2   0   29.51    0.85
   5  -2   0   31.87    0.92
  -5   2   0   30.67    0.99
   5   2   0   31.30    0.87
  -5   2   0   31.36    1.05
   5   2   0   31.45    0.98
  -5   2   0   31.14    0.90
   6  -2   0   16.32    0.73
  -6  -2   0   16.59    0.65
  -6  -2   0   16.52    0.72
   6  -2   0   15.44    0.65
  -6  -2   0   15.34    0.60
  -6  -2   0   15.59    0.71
  -6  -2   0   15.76    0.68
   6   2   0   16.17    0.67
  -6   2   0   15.87    0.65
  -6   2   0   15.42    0.75
   6   2   0   15.89    0.72
   6   2   0   15.65    0.63
  -6   2   0   16.02    0.72
  -7  -2   0   31.56    1.03
  -7  -2   0   32.26    1.00
   7  -2   0   31.29    1.05
   7  -2   0   32.53    1.15
  -7  -2   0   32.26    1.05
  -7  -2   0   32.14    1.13
   7   2   0   31.18    1.13
  -7   2   0   31.29    1.03
  -7   2   0   29.84    1.11
   7   2   0   29.94    1.05
  -7   2   0   30.95    1.19
  -8  -2   0    0.34    0.35
  -8  -2   0    0.37    0.30
  -8  -2   0    0.61    0.30
   8  -2   0    0.68    0.39
   8  -2   0    0.99    0.33
  -8  -2   0    0.94    0.30
   8  -2   0    0.60    0.31
  -8   2   0    0.78    0.33
   8   2   0    0.13    0.33
  -8   2   0    0.78    0.37
  -8   2   0    0.71    0.26
   8   2   0    0.15    0.36
  -9  -2   0   -0.16    0.42
   9  -2   0    0.53    0.37
  -9  -2   0    0.04    0.36
  -9  -2   0    0.29    0.34
   9  -2   0    0.15    0.39
  -9  -2   0   -0.07    0.35
   9  -2   0    0.41    0.45
  -9   2   0    0.08    0.41
   9   2   0   -0.32    0.42
  -9   2   0   -0.13    0.34
  -9   2   0   -0.12    0.39
   9   2   0   -0.38    0.39
 -10  -2   0    0.69    0.44
 -10  -2   0    1.12    0.51
  10  -2   0    0.91    0.49
 -10  -2   0    0.91    0.43
  10  -2   0    0.29    0.50
  10  -2   0    0.74    0.55
 -10  -2   0    0.23    0.50
 -10   2   0    0.87    0.46
  10   2   0    0.81    0.49
 -10   2   0    0.16    0.44
  10   2   0    1.39    0.57
 -10   2   0    0.43    0.54
 -10   2   0    0.44    0.57
 -11  -2   0    1.32    0.69
  11  -2   0    1.27    0.65
  11  -2   0    0.60    0.72
 -11  -2   0    1.72    0.57
 -11  -2   0    1.43    0.55
  11  -2   0    2.59    0.63
 -11  -2   0   -0.04    0.57
  11   2   0    0.72    0.73
 -11   2   0    0.08    0.71
 -11   2   0    1.54    0.56
 -11   2   0    1.76    0.78
 -11   2   0    0.22    0.53
   0  -3   0   -0.11    0.13
   0  -3   0   -0.33    0.13
   0   3   0   -0.07    0.12
  -1  -3   0   10.76    0.42
   1  -3   0   10.54    0.44
  -1  -3   0   10.25    0.46
   1   3   0    9.96    0.45
   1   3   0   10.80    0.40
  -1   3   0   10.07    0.42
   2  -3   0   19.99    0.62
  -2  -3   0   19.29    0.67
  -2  -3   0   19.30    0.59
  -2   3   0   19.18    0.61
   2   3   0   19.51    0.66
   2   3   0   19.12    0.59
  -3  -3   0   47.06    1.16
  -3  -3   0   48.48    1.29
   3  -3   0   49.08    1.21
   3  -3   0   45.92    1.27
   3   3   0   46.48    1.28
   3   3   0   49.15    1.16
  -3   3   0   48.05    1.19
   3   3   0   47.22    1.11
   4  -3   0   45.23    1.17
   4  -3   0   45.58    1.26
  -4  -3   0   43.81    1.22
  -4  -3   0   43.80    1.14
  -4  -3   0   44.30    1.12
  -4  -3   0   44.32    1.26
   4   3   0   44.69    1.11
  -4   3   0   42.57    1.14
   4   3   0   44.04    1.25
   4   3   0   43.56    1.05
  -5  -3   0   42.11    1.11
  -5  -3   0   42.16    1.14
  -5  -3   0   41.30    1.22
  -5  -3   0   42.19    1.26
   5  -3   0   40.01    1.24
   5  -3   0   41.70    1.16
   5   3   0   40.52    1.23
   5   3   0   42.06    1.11
  -5   3   0   43.13    1.35
  -5   3   0   40.13    1.13
   6  -3   0   -0.32    0.22
   6  -3   0   -0.16    0.22
  -6  -3   0    0.28    0.23
  -6  -3   0   -0.24    0.23
  -6  -3   0    0.19    0.22
  -6  -3   0    0.03    0.16
  -6  -3   0    0.58    0.24
  -6   3   0    0.24    0.25
   6   3   0    0.30    0.26
   6   3   0    0.05    0.19
  -6   3   0    0.54    0.23
  -7  -3   0    0.45    0.28
  -7  -3   0    0.54    0.31
  -7  -3   0    0.28    0.31
  -7  -3   0    0.57    0.21
  -7  -3   0    0.24    0.30
   7  -3   0    0.77    0.33
   7  -3   0    0.13    0.27
   7   3   0    0.84    0.33
   7   3   0    0.40    0.23
  -7   3   0    0.11    0.31
  -7   3   0    0.55    0.25
  -8  -3   0    1.11    0.35
   8  -3   0    0.50    0.39
  -8  -3   0    0.22    0.36
  -8  -3   0    0.24    0.26
   8  -3   0   -0.06    0.30
  -8  -3   0    0.50    0.37
  -8  -3   0    0.03    0.32
   8   3   0    0.11    0.36
  -8   3   0    0.69    0.32
  -8   3   0    0.08    0.38
  -9  -3   0    1.16    0.44
   9  -3   0    1.08    0.48
   9  -3   0    1.29    0.42
   9  -3   0    0.43    0.41
  -9  -3   0    1.29    0.46
  -9  -3   0    0.33    0.51
  -9  -3   0    1.23    0.36
  -9   3   0    2.07    0.47
  -9   3   0    1.59    0.51
   9   3   0    1.66    0.52
 -10  -3   0   10.05    0.95
  10  -3   0    9.41    0.86
 -10  -3   0   10.30    0.96
 -10  -3   0    9.40    0.79
  10  -3   0   10.51    1.11
 -10  -3   0    7.38    0.74
  10  -3   0    9.76    0.88
  10   3   0    7.72    0.87
 -10   3   0    8.06    0.73
 -10   3   0    9.24    0.96
  11  -3   0   11.97    1.07
 -11  -3   0    9.85    1.05
 -11  -3   0   11.92    0.98
  11  -3   0    9.35    0.98
 -11  -3   0    8.59    0.88
 -11  -3   0   11.51    1.12
  11  -3   0    9.52    1.06
  11   3   0   10.34    1.15
 -11   3   0   11.21    0.97
 -11   3   0   13.04    1.25
 -11   3   0   11.00    1.14
   0  -4   0  990.07   19.25
   0  -4   0 1000.00   20.19
   0   4   0  993.72   19.25
  -1  -4   0   21.72    0.69
   1  -4   0   21.69    0.76
   1  -4   0   20.15    0.70
  -1  -4   0   21.08    0.78
  -1   4   0   21.46    0.70
   1   4   0   23.05    0.69
   1   4   0   23.03    0.77
   2  -4   0   28.17    0.84
  -2  -4   0   27.47    0.81
  -2  -4   0   28.17    0.90
   2   4   0   26.62    0.79
  -2   4   0   26.71    0.82
   2   4   0   26.96    0.89
  -3  -4   0    2.47    0.26
   3  -4   0    2.91    0.32
  -3  -4   0    3.04    0.34
   3   4   0    2.59    0.21
   3   4   0    3.11    0.29
   3   4   0    2.55    0.30
  -3   4   0    2.81    0.30
   4  -4   0   16.89    0.68
  -4  -4   0   19.12    0.76
   4  -4   0   18.50    0.77
  -4  -4   0   17.87    0.66
   4   4   0   17.17    0.75
  -4   4   0   17.41    0.66
   4   4   0   17.50    0.64
   5  -4   0   29.34    0.96
  -5  -4   0   28.88    1.03
   5  -4   0   28.08    1.04
  -5  -4   0   28.54    0.92
  -5  -4   0   29.76    1.02
  -5  -4   0   28.39    0.92
   5   4   0   29.16    0.90
  -5   4   0   29.38    1.11
  -5   4   0   27.98    0.92
   5   4   0   28.51    1.04
  -6  -4   0   21.89    0.87
   6  -4   0   21.95    0.95
   6  -4   0   22.20    0.86
  -6  -4   0   22.56    0.94
  -6  -4   0   21.73    0.92
  -6  -4   0   21.66    0.84
  -6   4   0   21.47    0.82
   6   4   0   21.89    0.93
   6   4   0   21.81    0.80
  -6   4   0   21.35    1.02
   7  -4   0   24.06    1.06
  -7  -4   0   25.24    1.08
  -7  -4   0   25.64    0.98
   7  -4   0   25.68    1.01
  -7  -4   0   27.78    1.10
  -7  -4   0   25.52    1.00
  -7   4   0   26.00    0.96
   7   4   0   24.70    1.06
   7   4   0   26.05    0.95
  -7   4   0   26.16    1.18
  -8  -4   0    0.24    0.36
   8  -4   0    0.38    0.37
  -8  -4   0    0.75    0.48
  -8  -4   0    0.17    0.39
  -8  -4   0   -0.21    0.43
   8  -4   0   -0.15    0.38
  -8   4   0   -0.61    0.34
   8   4   0    0.39    0.42
   8   4   0    0.28    0.34
  -8   4   0    0.21    0.39
  -9  -4   0    0.68    0.50
  -9  -4   0   -0.03    0.51
  -9  -4   0   -0.35    0.53
   9  -4   0    0.68    0.48
   9  -4   0    0.71    0.52
  -9  -4   0    0.02    0.46
   9   4   0    0.12    0.53
  -9   4   0    0.10    0.45
  -9   4   0   -0.19    0.54
  10  -4   0    0.82    0.67
 -10  -4   0    0.72    0.77
  10  -4   0    1.06    0.61
 -10  -4   0    0.24    0.55
 -10  -4   0   -0.04    0.55
  10  -4   0   -1.05    0.61
  10   4   0    1.58    0.74
 -10   4   0   -0.38    0.66
 -10   4   0    0.11    0.61
   0  -5   0   -0.05    0.21
   0  -5   0   -0.03    0.17
   0   5   0    0.11    0.17
  -1  -5   0    9.69    0.57
   1  -5   0    8.43    0.54
  -1  -5   0    9.32    0.52
   1  -5   0    9.54    0.50
  -1   5   0    9.29    0.49
   1   5   0    8.59    0.48
  -2  -5   0   16.88    0.68
   2  -5   0   16.37    0.71
   2  -5   0   16.20    0.68
  -2  -5   0   17.51    0.75
  -2   5   0   16.16    0.64
   2   5   0   16.83    0.76
   2   5   0   16.46    0.65
  -3  -5   0   29.24    0.93
   3  -5   0   29.96    0.96
  -3  -5   0   30.64    1.04
   3   5   0   28.21    0.80
  -3   5   0   28.54    0.93
   3   5   0   29.20    0.91
   3   5   0   29.81    1.02
   4  -5   0   23.43    0.87
  -4  -5   0   23.26    0.84
   4  -5   0   24.05    0.98
  -4  -5   0   22.74    0.92
   4   5   0   23.14    0.82
   4   5   0   23.26    0.93
  -4   5   0   23.36    0.83
  -5  -5   0   12.20    0.74
   5  -5   0   12.95    0.70
  -5  -5   0   14.09    0.71
  -5  -5   0   13.99    0.69
   5  -5   0   14.05    0.80
  -5   5   0   11.54    0.86
   5   5   0   13.32    0.74
   5   5   0   14.63    0.66
  -5   5   0   14.00    0.67
  -6  -5   0    0.05    0.32
  -6  -5   0   -0.05    0.33
   6  -5   0    0.02    0.34
  -6  -5   0    0.13    0.35
   6  -5   0    0.32    0.31
  -6  -5   0   -0.45    0.31
   6   5   0    0.07    0.33
  -6   5   0   -0.17    0.26
   6   5   0    0.21    0.28
  -6   5   0   -0.03    0.36
   7  -5   0    1.21    0.45
   7  -5   0    1.90    0.38
  -7  -5   0    0.71    0.43
  -7  -5   0    1.49    0.42
  -7  -5   0    0.42    0.38
  -7  -5   0    0.71    0.41
   7   5   0    1.20    0.43
  -7   5   0    1.23    0.36
   7   5   0    1.28    0.35
  -7   5   0    1.52    0.42
  -8  -5   0    1.51    0.49
  -8  -5   0    3.04    0.61
  -8  -5   0    2.37    0.56
   8  -5   0    1.55    0.55
   8  -5   0    1.52    0.44
  -8  -5   0    2.31    0.51
   8   5   0    2.43    0.53
   8   5   0    1.64    0.43
  -8   5   0    2.15    0.46
  -8   5   0    1.08    0.53
  -9  -5   0    1.17    0.70
  -9  -5   0    1.61    0.56
  -9  -5   0    1.90    0.57
   9  -5   0    0.69    0.56
  -9  -5   0    2.48    0.72
   9  -5   0    1.83    0.64
   9   5   0    1.72    0.56
  -9   5   0    2.81    0.66
   9   5   0    1.53    0.64
  -9   5   0    1.42    0.55
   0  -6   0  103.45    2.48
   0  -6   0  108.07    2.63
   0   6   0  105.60    2.47
  -1  -6   0    0.32    0.34
  -1  -6   0    0.60    0.29
   1  -6   0    0.80    0.34
   1  -6   0    0.27    0.30
   1   6   0    1.43    0.28
  -1   6   0    0.03    0.24
  -2  -6   0    4.82    0.46
   2  -6   0    5.38    0.54
  -2  -6   0    4.79    0.49
   2  -6   0    5.00    0.50
   2   6   0    5.07    0.55
  -2   6   0    5.68    0.49
   2   6   0    5.40    0.51
  -3  -6   0    0.15    0.30
   3  -6   0    0.32    0.28
   3  -6   0   -0.37    0.32
  -3  -6   0    0.39    0.31
   3   6   0   -0.02    0.25
   3   6   0   -0.09    0.31
  -3   6   0    0.34    0.24
   4  -6   0    1.95    0.43
   4  -6   0    1.49    0.29
  -4  -6   0    1.52    0.35
  -4  -6   0    1.35    0.35
   4   6   0    1.04    0.37
   4   6   0    1.45    0.32
  -4   6   0    1.55    0.28
  -5  -6   0    2.52    0.42
  -5  -6   0    2.87    0.46
   5  -6   0    2.13    0.38
   5  -6   0    2.33    0.44
  -5  -6   0    2.55    0.46
  -5   6   0    3.30    0.38
  -5   6   0    2.08    0.48
   5   6   0    2.63    0.39
   5   6   0    2.68    0.43
  -6  -6   0    3.72    0.52
  -6  -6   0    2.72    0.44
   6  -6   0    2.96    0.43
  -6  -6   0    2.85    0.48
  -6  -6   0    2.54    0.54
   6  -6   0    3.27    0.56
  -6   6   0    2.07    0.47
  -6   6   0    2.68    0.43
   6   6   0    3.04    0.50
   6   6   0    3.23    0.46
   7  -6   0    5.04    0.64
  -7  -6   0    6.88    0.70
   7  -6   0    6.02    0.60
  -7  -6   0    4.92    0.61
  -7  -6   0    6.08    0.70
  -7  -6   0    5.66    0.59
   7   6   0    6.19    0.66
  -7   6   0    4.56    0.50
   7   6   0    5.84    0.59
  -7   6   0    4.62    0.61
  -8  -6   0    0.70    0.51
  -8  -6   0    0.71    0.68
  -8  -6   0   -0.97    0.53
   8  -6   0    0.48    0.63
  -8  -6   0    0.46    0.65
   8  -6   0   -0.56    0.52
  -8   6   0   -0.45    0.58
   8   6   0   -0.41    0.49
   8   6   0    0.62    0.61
  -8   6   0   -0.79    0.54
   0  -7   0    0.08    0.34
   0  -7   0   -0.22    0.39
   0   7   0   -0.05    0.34
  -1  -7   0    1.45    0.40
   1  -7   0    0.95    0.44
  -1  -7   0    0.32    0.41
   1  -7   0    0.68    0.39
  -1   7   0    0.16    0.30
   1   7   0    1.19    0.35
   2  -7   0    0.66    0.39
  -2  -7   0    0.60    0.42
   2  -7   0    1.18    0.42
  -2  -7   0    0.86    0.43
  -2   7   0    0.23    0.30
   2   7   0    0.91    0.32
  -3  -7   0    2.42    0.47
   3  -7   0    2.04    0.40
  -3  -7   0    2.53    0.46
   3  -7   0    2.58    0.53
   3   7   0    2.45    0.49
   3   7   0    3.07    0.43
   3   7   0    2.46    0.37
  -3   7   0    2.55    0.34
  -3   7   0    2.34    0.57
  -4  -7   0    3.01    0.50
  -4  -7   0    1.74    0.50
   4  -7   0    2.31    0.52
   4  -7   0    3.11    0.52
   4  -7   0    2.98    0.45
   4   7   0    2.84    0.53
   4   7   0    2.40    0.43
  -4   7   0    2.85    0.41
  -4   7   0    2.46    0.51
  -5  -7   0    1.44    0.48
   5  -7   0    2.00    0.52
   5  -7   0    2.27    0.46
  -5  -7   0    2.13    0.53
   5  -7   0    2.44    0.52
   5   7   0    2.20    0.45
  -5   7   0    0.92    0.54
   5   7   0    1.83    0.54
  -5   7   0    1.86    0.43
   6  -7   0   -0.57    0.53
   6  -7   0   -0.43    0.49
  -6  -7   0   -0.60    0.49
  -6  -7   0   -0.78    0.44
  -6  -7   0    0.33    0.60
  -6  -7   0   -0.12    0.57
   6   7   0   -0.67    0.53
  -6   7   0    0.55    0.45
   6   7   0    0.04    0.46
  -6   7   0    0.67    0.58
  -7  -7   0    0.12    0.54
   7  -7   0   -0.45    0.57
  -7  -7   0    1.09    0.71
  -7  -7   0   -0.06    0.59
   7  -7   0   -0.91    0.66
  -7  -7   0   -1.04    0.69
  -7   7   0   -0.60    0.55
  -7   7   0   -1.20    0.69
   7   7   0   -0.01    0.63
   7   7   0    0.17    0.55
   0  -8   0   21.29    1.19
   0  -8   0   20.29    1.10
   0   8   0   18.88    1.22
   0   8   0   22.03    1.08
  -1  -8   0    0.26    0.48
  -1  -8   0    1.05    0.59
   1  -8   0    0.15    0.55
   1  -8   0    0.17    0.50
   1   8   0    0.44    0.44
   1   8   0   -0.14    0.52
  -1   8   0    0.01    0.54
  -1   8   0   -0.50    0.44
   2  -8   0    1.77    0.48
  -2  -8   0    2.10    0.55
  -2  -8   0    1.59    0.61
   2  -8   0    2.71    0.59
  -2   8   0    2.06    0.65
  -2   8   0    0.97    0.44
   2   8   0    1.23    0.45
   2   8   0    1.35    0.54
  -3  -8   0    0.40    0.59
  -3  -8   0   -0.63    0.52
   3  -8   0   -0.22    0.55
   3  -8   0    1.72    0.46
  -3   8   0   -0.54    0.43
  -3   8   0   -0.39    0.59
   3   8   0   -0.46    0.46
   3   8   0   -0.40    0.39
  -4  -8   0    0.52    0.62
   4  -8   0    0.46    0.55
   4  -8   0   -0.08    0.57
   4  -8   0    1.47    0.65
  -4  -8   0    0.21    0.55
   4   8   0    0.81    0.50
  -4   8   0    0.60    0.67
  -4   8   0   -0.04    0.48
  -5  -8   0   -0.45    0.71
   5  -8   0    1.01    0.69
  -5  -8   0    1.17    0.67
   5  -8   0    0.93    0.62
   5  -8   0    1.24    0.63
   5   8   0    1.81    0.57
   5   8   0    0.43    0.66
  -5   8   0    1.66    0.82
  -5   8   0    0.39    0.57
   0  -9   0   -0.29    0.70
   0  -9   0   -0.21    0.72
   0   9   0    1.11    0.65
   0   9   0   -0.32    0.71
   1  -9   0    0.54    0.71
  -1  -9   0    0.89    0.78
  -1  -9   0    0.83    0.68
   1  -9   0    1.41    0.76
   1   9   0    0.44    0.64
  -1   9   0    0.51    0.78
   1   9   0   -0.43    0.67
  -1   9   0    0.84    0.65
   2  -9   0    0.43    0.76
  -2  -9   0    1.22    0.74
   2  -9   0   -0.84    0.68
  -2  -9   0    0.97    0.83
   2   9   0    0.29    0.65
  -2   9   0   -0.07    0.81
   2   9   0    0.74    0.68
  -2   9   0    0.11    0.66
  12   0  -1   -0.26    0.80
  11   0  -1    3.36    0.63
 -11   0   1    1.62    0.60
  11   0  -1    2.75    0.69
 -11   0   1    1.40    0.48
 -11   0   1    1.28    0.53
 -11   0   1    1.99    0.58
  11   0  -1    1.79    0.51
  10   0  -1    5.62    0.56
 -10   0   1    7.68    0.74
 -10   0   1    7.00    0.69
 -10   0   1    5.31    0.67
 -10   0   1    6.96    0.63
  10   0  -1    5.42    0.66
  10   0  -1    5.53    0.63
  -9   0   1   67.08    1.82
  -9   0   1   66.46    1.81
   9   0  -1   65.36    1.96
   9   0  -1   66.96    1.96
  -9   0   1   65.08    2.01
   9   0  -1   66.36    1.83
  -9   0   1   66.29    1.95
  -8   0   1    3.35    0.35
   8   0  -1    3.96    0.39
  -8   0   1    3.02    0.43
   8   0  -1    3.33    0.42
  -8   0   1    4.42    0.44
  -8   0   1    4.35    0.50
   8   0  -1    4.19    0.47
  -7   0   1   94.36    2.42
  -7   0   1   95.65    2.30
   7   0  -1   98.39    2.44
  -7   0   1  101.76    2.30
   7   0  -1   98.49    2.43
  -7   0   1   98.78    2.53
   7   0  -1   97.92    2.31
  -6   0   1   64.25    1.54
  -6   0   1   59.12    1.53
   6   0  -1   61.45    1.63
   6   0  -1   61.82    1.55
   6   0  -1   62.39    1.64
  -6   0   1   59.99    1.63
  -6   0   1   61.29    1.68
  -4   0   1  153.93    3.33
  -4   0   1  160.52    3.71
   4   0  -1  156.12    3.34
   4   0  -1  163.07    3.49
   4   0  -1  172.44    3.52
  -4   0   1  169.40    3.51
   4   0  -1  154.22    3.70
   3   0  -1  203.48    3.97
  -3   0   1  178.16    3.79
  -3   0   1  197.96    4.25
   3   0  -1  189.54    3.81
  -3   0   1  198.07    3.97
  -3   0   1  166.34    3.77
   3   0  -1  185.86    4.24
   2   0  -1    4.30    0.26
   2   0  -1    4.38    0.27
  -2   0   1    4.79    0.25
  -2   0   1    4.20    0.26
  -2   0   1    3.85    0.26
   2   0  -1    4.51    0.24
   1   0  -1  211.97    4.78
   1   0  -1  223.52    4.24
  -1   0   1  214.12    4.24
  -1   0   1  224.07    4.78
  -1   0  -1   34.28    0.80
   1   0   1   33.96    0.79
   1   0   1   33.13    0.74
   1   0   1   34.10    0.70
  -1   0  -1   32.78    0.74
  -1   0  -1   32.65    0.70
   2   0   1  173.78    3.63
  -2   0  -1  173.06    3.63
   2   0   1  181.89    3.47
  -2   0  -1  174.33    3.70
   2   0   1  165.59    3.68
  -2   0  -1  183.80    3.47
   3   0   1  107.72    2.17
  -3   0  -1  106.17    2.15
  -3   0  -1  103.15    2.33
   3   0   1   95.15    2.30
   3   0   1  102.50    2.25
  -4   0  -1  219.54    4.90
  -4   0  -1  230.32    4.59
   4   0   1  236.66    4.62
   4   0   1  229.33    4.81
   4   0   1  224.24    4.89
  -5   0  -1   50.67    1.43
   5   0   1   52.13    1.36
   5   0   1   52.94    1.32
   5   0   1   52.93    1.43
  -5   0  -1   52.23    1.29
  -5   0  -1   52.34    1.42
  -5   0  -1   50.92    1.28
  -6   0  -1   74.46    1.78
  -6   0  -1   77.22    1.98
   6   0   1   73.82    1.94
   6   0   1   76.13    1.82
  -6   0  -1   73.64    1.79
   6   0   1   73.37    1.88
  -6   0  -1   75.75    1.96
  -7   0  -1   18.71    0.83
   7   0   1   19.06    0.84
  -7   0  -1   18.31    0.75
  -7   0  -1   18.22    0.83
   7   0   1   20.03    0.79
  -7   0  -1   18.63    0.74
   7   0   1   18.59    0.82
  -8   0  -1    1.15    0.31
  -8   0  -1    1.79    0.32
   8   0   1    1.65    0.36
   8   0   1    1.65    0.41
  -8   0  -1    1.93    0.40
   8   0   1    1.72    0.32
  -8   0  -1    1.75    0.35
   9   0   1    0.55    0.36
   9   0   1    0.60    0.38
  -9   0  -1    0.80    0.40
  -9   0  -1    1.07    0.37
  -9   0  -1    0.32    0.34
   9   0   1   -0.14    0.47
  -9   0  -1    0.99    0.43
 -10   0  -1   14.69    0.97
 -10   0  -1   14.94    0.94
  10   0   1   16.59    1.02
  10   0   1   14.58    1.15
 -10   0  -1   14.87    1.07
  10   0   1   14.03    0.97
 -10   0  -1   15.49    1.05
  11   0   1    8.52    0.98
 -11   0  -1    7.43    0.79
 -11   0  -1    7.69    0.87
  11   0   1    8.05    0.76
  11   0   1    8.77    0.82
 -11   0  -1    8.18    0.85
 -11   0  -1    7.93    0.76
  11  -1  -1   19.58    1.14
 -11  -1   1   21.35    1.10
  11  -1  -1   19.93    1.21
  11  -1  -1   22.01    1.37
 -11  -1   1   23.28    1.23
 -11  -1   1   18.82    1.30
 -11  -1   1   20.69    1.16
  11   1  -1   19.53    1.41
  11   1  -1   21.84    1.28
 -11   1   1   20.73    1.27
  11   1  -1   20.67    1.20
 -11   1   1   19.85    1.14
 -11   1   1   20.59    1.16
 -11   1   1   17.95    1.37
 -10  -1   1   25.84    1.19
  10  -1  -1   22.38    1.08
 -10  -1   1   26.02    1.21
 -10  -1   1   24.78    1.08
  10  -1  -1   23.80    1.16
  10  -1  -1   23.65    1.24
 -10  -1   1   24.00    1.09
 -10   1   1   23.94    1.07
  10   1  -1   22.90    1.26
 -10   1   1   22.40    1.18
 -10   1   1   24.19    1.08
  10   1  -1   23.05    1.19
 -10   1   1   25.83    1.33
  10   1  -1   25.03    1.13
  -9  -1   1    2.94    0.43
  -9  -1   1    3.05    0.50
   9  -1  -1    2.91    0.52
   9  -1  -1    2.25    0.45
   9  -1  -1    3.26    0.43
  -9  -1   1    3.16    0.46
  -9  -1   1    3.05    0.45
  -9   1   1    3.02    0.52
  -9   1   1    2.98    0.46
   9   1  -1    3.95    0.48
  -9   1   1    3.35    0.47
   9   1  -1    3.89    0.53
  -9   1   1    3.01    0.43
   9   1  -1    3.51    0.51
   8  -1  -1    8.62    0.70
   8  -1  -1    7.51    0.62
  -8  -1   1    8.47    0.60
  -8  -1   1    8.36    0.60
  -8  -1   1    9.16    0.66
  -8  -1   1    7.85    0.64
   8  -1  -1    7.70    0.62
  -8   1   1    8.98    0.68
  -8   1   1    8.36    0.58
  -8   1   1    9.05    0.57
   8   1  -1    9.12    0.67
   8   1  -1    8.94    0.64
  -8   1   1    8.45    0.71
   8   1  -1    8.53    0.71
  -7  -1   1    5.73    0.51
  -7  -1   1    4.96    0.47
  -7  -1   1    4.56    0.47
   7  -1  -1    6.12    0.55
   7  -1  -1    5.29    0.47
   7  -1  -1    4.94    0.53
  -7  -1   1    5.69    0.49
   7   1  -1    4.99    0.53
  -7   1   1    5.53    0.51
   7   1  -1    4.82    0.46
  -7   1   1    5.87    0.43
  -7   1   1    5.38    0.55
   7   1  -1    6.39    0.54
  -7   1   1    5.28    0.45
  -6  -1   1   46.66    1.32
   6  -1  -1   46.96    1.35
  -6  -1   1   47.53    1.28
  -6  -1   1   46.49    1.24
  -6  -1   1   47.46    1.35
   6  -1  -1   46.69    1.28
   6   1  -1   47.04    1.34
  -6   1   1   48.01    1.41
  -6   1   1   45.70    1.25
   6   1  -1   46.97    1.35
  -6   1   1   48.55    1.36
   6   1  -1   46.78    1.28
  -5  -1   1   56.00    1.42
   5  -1  -1   59.70    1.45
  -5  -1   1   59.82    1.54
   5  -1  -1   61.06    1.55
  -5  -1   1   60.80    1.53
  -5  -1   1   59.83    1.46
   5   1  -1   57.73    1.51
  -5   1   1   59.15    1.53
   5   1  -1   57.26    1.44
   5   1  -1   58.29    1.53
  -5   1   1   60.46    1.45
  -5   1   1   58.96    1.62
   5   1  -1   60.09    1.54
   5   1  -1   58.75    1.42
   4  -1  -1   92.86    2.13
  -4  -1   1   92.42    2.03
  -4  -1   1   90.37    2.19
  -4  -1   1   92.94    2.01
  -4  -1   1   91.84    2.10
   4  -1  -1   90.78    2.02
   4   1  -1   92.74    2.19
   4   1  -1   96.68    2.12
   4   1  -1   94.62    2.01
  -4   1   1   88.36    2.02
   4   1  -1   93.62    2.15
  -4   1   1   90.62    2.12
   4   1  -1   92.30    2.03
  -4   1   1   93.55    2.28
  -3  -1   1   42.77    1.03
  -3  -1   1   44.01    1.10
   3  -1  -1   44.56    1.04
  -3  -1   1   43.48    1.06
   3  -1  -1   45.09    1.09
  -3  -1   1   43.93    1.02
  -3  -1   1   42.69    1.10
  -3   1   1   43.82    1.09
   3   1  -1   43.04    1.01
  -3   1   1   43.15    1.03
  -3   1   1   42.97    1.18
   3   1  -1   44.05    1.10
   3   1  -1   43.71    1.11
   3   1  -1   44.16    1.06
   3   1  -1   44.91    1.04
   2  -1  -1   11.33    0.40
   2  -1  -1   12.15    0.46
  -2  -1   1   11.25    0.37
   2  -1  -1   11.39    0.38
  -2  -1   1   11.88    0.43
  -2  -1   1   11.49    0.38
  -2  -1   1   11.45    0.37
  -2   1   1   11.76    0.46
   2   1  -1   11.45    0.37
   2   1  -1   11.86    0.43
   2   1  -1   11.61    0.37
  -2   1   1   10.99    0.37
   1  -1  -1  107.11    2.51
  -1  -1   1  113.10    2.33
   1  -1  -1  110.93    2.21
  -1  -1   1  110.22    2.22
  -1   1   1  112.02    2.52
  -1   1   1  114.07    2.21
   1   1  -1  111.92    2.33
   0  -1  -1    4.42    0.24
   0  -1   1    5.08    0.19
   0  -1  -1    4.62    0.18
   0  -1  -1    4.87    0.19
   0   1  -1    4.43    0.21
   0   1   1    4.76    0.20
   0   1   1    4.72    0.18
   0   1  -1    5.07    0.18
  -1  -1  -1  469.78    9.70
   1  -1   1  494.86    9.69
   1   1   1  473.33    9.70
  -2  -1  -1   21.92    0.55
   2  -1   1   22.52    0.65
   2  -1   1   21.45    0.57
  -2  -1  -1   20.54    0.62
  -2  -1  -1   21.24    0.62
  -2  -1  -1   22.37    0.53
   2   1   1   22.52    0.54
   2   1   1   22.55    0.55
  -2   1  -1   22.00    0.65
  -2   1  -1   20.46    0.56
   2   1   1   20.76    0.62
  -3  -1  -1    0.57    0.19
   3  -1   1    0.78    0.15
  -3  -1  -1    0.60    0.14
  -3  -1  -1    0.53    0.12
   3  -1   1    0.72    0.19
  -3  -1  -1    1.04    0.16
  -3  -1  -1    0.54    0.17
   3   1   1    0.79    0.15
   3   1   1    0.66    0.18
   3   1   1    0.73    0.15
   3   1   1    0.59    0.15
  -3   1  -1    0.61    0.15
  -3   1  -1    0.51    0.17
  -4  -1  -1  190.44    3.88
  -4  -1  -1  189.12    4.09
   4  -1   1  187.70    3.87
  -4  -1  -1  193.82    3.86
  -4  -1  -1  189.41    4.12
   4  -1   1  192.83    4.16
  -4  -1  -1  193.53    4.25
   4  -1   1  183.64    4.03
   4   1   1  193.71    4.13
   4   1   1  186.33    3.87
  -4   1  -1  195.25    3.88
   4   1   1  192.75    4.09
  -4   1  -1  178.90    4.13
  -5  -1  -1    1.46    0.24
   5  -1   1    1.16    0.24
  -5  -1  -1    0.98    0.22
   5  -1   1    1.29    0.27
  -5  -1  -1    1.43    0.23
  -5  -1  -1    1.03    0.25
  -5  -1  -1    1.29    0.23
   5  -1   1    1.08    0.24
   5   1   1    1.03    0.21
   5   1   1    0.75    0.22
  -5   1  -1    0.94    0.21
  -5   1  -1    0.96    0.22
   5   1   1    1.26    0.23
  -6  -1  -1   18.99    0.70
  -6  -1  -1   18.73    0.71
   6  -1   1   19.25    0.73
  -6  -1  -1   18.90    0.71
   6  -1   1   19.71    0.77
   6  -1   1   19.22    0.80
  -6  -1  -1   18.07    0.78
   6   1   1   18.88    0.78
   6   1   1   18.92    0.78
   6   1   1   19.16    0.72
  -6   1  -1   21.15    0.83
  -6   1  -1   18.93    0.79
  -6   1  -1   19.14    0.70
  -7  -1  -1   26.62    0.94
  -7  -1  -1   26.51    0.91
  -7  -1  -1   28.24    1.04
  -7  -1  -1   27.52    0.93
   7  -1   1   26.88    0.97
   7  -1   1   27.79    1.00
   7  -1   1   26.60    1.00
   7   1   1   27.25    1.03
  -7   1  -1   27.74    1.07
  -7   1  -1   26.20    0.92
   7   1   1   28.67    0.97
  -7   1  -1   27.38    1.03
   7   1   1   26.64    1.05
  -8  -1  -1   32.08    1.13
  -8  -1  -1   31.67    1.20
  -8  -1  -1   32.86    1.11
  -8  -1  -1   32.95    1.11
   8  -1   1   32.25    1.16
   8  -1   1   33.10    1.20
   8  -1   1   31.98    1.20
   8   1   1   33.08    1.14
  -8   1  -1   31.68    1.09
   8   1   1   32.74    1.24
   8   1   1   33.22    1.20
  -8   1  -1   33.74    1.28
  -8   1  -1   33.45    1.14
  -8   1  -1   32.13    1.19
   9  -1   1   10.63    0.91
   9  -1   1   12.01    0.81
  -9  -1  -1   12.18    0.76
  -9  -1  -1   11.05    0.83
   9  -1   1   12.63    0.84
  -9  -1  -1   12.58    0.81
  -9  -1  -1   11.50    0.84
  -9   1  -1   12.50    0.82
   9   1   1   13.48    0.84
  -9   1  -1   12.14    0.77
  -9   1  -1   10.25    0.93
   9   1   1   12.15    0.96
   9   1   1   11.53    0.83
  -9   1  -1   12.77    0.80
  10  -1   1    4.85    0.63
  10  -1   1    6.75    0.75
 -10  -1  -1    5.18    0.64
 -10  -1  -1    4.80    0.56
 -10  -1  -1    4.75    0.59
  10  -1   1    4.29    0.55
 -10  -1  -1    4.27    0.60
 -10   1  -1    4.83    0.62
  10   1   1    4.16    0.68
  10   1   1    8.07    0.87
  10   1   1    4.74    0.61
 -10   1  -1    4.45    0.54
 -10   1  -1    4.80    0.72
 -10   1  -1    3.60    0.55
  11  -1   1    6.16    0.74
  11  -1   1    6.43    0.71
 -11  -1  -1    6.28    0.81
 -11  -1  -1    8.30    0.80
 -11  -1  -1    7.42    0.81
 -11  -1  -1    8.73    0.82
  11  -1   1    7.71    0.92
 -11   1  -1    7.55    0.79
 -11   1  -1    7.51    0.80
  11   1   1    9.62    0.91
  11   1   1    8.85    0.97
 -11   1  -1    7.25    0.81
 -11   1  -1    8.01    0.99
  11   1   1    7.49    0.83
  11  -2  -1    2.30    0.67
  11  -2  -1    1.67    0.69
 -11  -2   1    2.59    0.62
  11  -2  -1    2.25    0.64
 -11  -2   1    2.15    0.56
 -11  -2   1    0.96    0.56
 -11  -2   1    1.83    0.67
 -11   2   1    2.01    0.70
 -11   2   1    2.42    0.68
 -11   2   1    2.33    0.59
 -11   2   1    2.09    0.60
  11   2  -1    2.17    0.76
 -10  -2   1    3.37    0.50
  10  -2  -1    2.33    0.51
 -10  -2   1    2.17    0.55
 -10  -2   1    3.79    0.54
  10  -2  -1    2.11    0.46
 -10  -2   1    3.35    0.56
  10  -2  -1    3.25    0.62
 -10   2   1    2.38    0.63
  10   2  -1    3.58    0.57
 -10   2   1    2.52    0.46
  10   2  -1    2.63    0.58
 -10   2   1    2.87    0.55
 -10   2   1    3.05    0.58
  -9  -2   1   31.66    1.30
   9  -2  -1   30.72    1.20
  -9  -2   1   32.89    1.19
   9  -2  -1   30.00    1.29
   9  -2  -1   32.54    1.31
  -9  -2   1   31.58    1.19
  -9  -2   1   33.16    1.20
  -9   2   1   32.27    1.16
  -9   2   1   33.88    1.38
   9   2  -1   33.62    1.35
  -9   2   1   33.97    1.32
   9   2  -1   31.63    1.22
  -8  -2   1   -0.02    0.28
  -8  -2   1    0.19    0.25
   8  -2  -1    0.44    0.27
  -8  -2   1   -0.14    0.36
   8  -2  -1    0.46    0.30
  -8  -2   1    0.43    0.28
  -8   2   1    0.26    0.24
   8   2  -1   -0.18    0.32
  -8   2   1    0.42    0.31
  -8   2   1   -0.33    0.37
   8   2  -1    0.74    0.36
  -7  -2   1   43.07    1.34
   7  -2  -1   41.64    1.35
  -7  -2   1   41.06    1.23
  -7  -2   1   41.58    1.25
   7  -2  -1   41.31    1.24
  -7  -2   1   40.50    1.24
  -7   2   1   42.66    1.21
  -7   2   1   41.54    1.34
  -7   2   1   44.53    1.44
   7   2  -1   42.31    1.34
   7   2  -1   41.64    1.25
   6  -2  -1   24.48    0.90
  -6  -2   1   24.60    0.89
   6  -2  -1   25.44    0.83
  -6  -2   1   24.36    0.82
  -6  -2   1   23.96    0.84
  -6  -2   1   24.63    0.82
  -6  -2   1   23.66    0.89
   6   2  -1   25.02    0.91
   6   2  -1   26.02    0.82
  -6   2   1   26.31    0.97
  -6   2   1   25.02    0.92
   6   2  -1   24.23    0.82
  -6   2   1   25.84    0.83
  -5  -2   1    0.66    0.19
  -5  -2   1    0.27    0.19
  -5  -2   1    0.62    0.17
   5  -2  -1    0.59    0.19
   5  -2  -1    0.52    0.22
  -5  -2   1    0.77    0.21
  -5  -2   1    0.60    0.16
   5   2  -1    0.68    0.22
   5   2  -1    0.51    0.19
   5   2  -1    0.28    0.14
  -5   2   1    0.66    0.21
  -5   2   1    0.36    0.21
  -5   2   1    0.26    0.14
  -4  -2   1   16.98    0.61
  -4  -2   1   17.78    0.59
  -4  -2   1   17.03    0.65
  -4  -2   1   17.69    0.55
   4  -2  -1   18.42    0.61
  -4  -2   1   17.46    0.57
   4  -2  -1   16.41    0.63
   4   2  -1   17.04    0.66
  -4   2   1   17.80    0.58
  -4   2   1   15.16    0.75
   4   2  -1   17.51    0.56
  -3  -2   1    3.06    0.25
  -3  -2   1    3.26    0.32
   3  -2  -1    3.06    0.27
  -3  -2   1    2.93    0.27
   3  -2  -1    3.34    0.31
  -3   2   1    3.34    0.34
   3   2  -1    2.63    0.22
   3   2  -1    2.77    0.27
   3   2  -1    3.06    0.24
  -3   2   1    2.93    0.26
   2  -2  -1   47.24    1.09
  -2  -2   1   48.10    1.08
  -2  -2   1   47.05    1.16
   2   2  -1   46.57    1.15
   2   2  -1   45.40    1.07
  -2   2   1   48.41    1.25
   2   2  -1   47.11    1.13
  -2   2   1   45.12    1.07
   1  -2  -1    6.86    0.30
  -1  -2   1    6.93    0.34
  -1  -2   1    7.65    0.32
  -1   2   1    7.23    0.30
   1   2  -1    7.00    0.31
  -1   2   1    7.28    0.35
   1   2  -1    7.25    0.34
   0  -2  -1  142.04    3.03
   0  -2   1  144.02    2.98
   0  -2   1  139.15    2.87
   0  -2  -1  142.76    2.84
   0   2  -1  145.70    2.98
   0   2   1  140.03    2.84
   0   2  -1  139.19    2.87
   0   2   1  144.68    3.17
  -1  -2  -1   75.83    1.78
   1  -2   1   81.23    1.69
  -1  -2  -1   80.44    1.64
   1   2   1   80.11    1.75
  -1   2  -1   79.95    1.68
   1   2   1   77.72    1.63
   1   2   1   76.76    1.78
  -2  -2  -1    4.57    0.33
   2  -2   1    4.68    0.29
  -2  -2  -1    4.35    0.25
   2  -2   1    4.28    0.31
   2   2   1    4.86    0.34
  -2   2  -1    4.62    0.28
   2   2   1    4.69    0.24
   3  -2   1    0.91    0.20
  -3  -2  -1    1.17    0.17
  -3  -2  -1    1.21    0.20
  -3  -2  -1    1.12    0.16
  -3  -2  -1    0.92    0.17
   3  -2   1    1.00    0.17
  -3   2  -1    1.09    0.21
   3   2   1    1.24    0.16
   3   2   1    1.01    0.20
  -3   2  -1    1.10    0.18
  -4  -2  -1   59.85    1.40
  -4  -2  -1   61.57    1.38
  -4  -2  -1   60.82    1.53
   4  -2   1   60.33    1.43
  -4  -2  -1   61.67    1.41
   4  -2   1   57.24    1.54
  -4  -2  -1   60.14    1.54
   4   2   1   59.07    1.53
  -4   2  -1   59.07    1.42
  -4   2  -1   59.57    1.56
   4   2   1   61.22    1.39
  -5  -2  -1   21.34    0.69
   5  -2   1   21.63    0.82
  -5  -2  -1   22.04    0.74
  -5  -2  -1   21.45    0.78
   5  -2   1   20.49    0.72
  -5  -2  -1   21.25    0.64
  -5  -2  -1   21.85    0.80
  -5   2  -1   20.90    0.81
  -5   2  -1   21.17    0.72
   5   2   1   22.13    0.81
   5   2   1   21.54    0.69
  -6  -2  -1   59.13    1.48
  -6  -2  -1   57.42    1.62
  -6  -2  -1   57.41    1.61
  -6  -2  -1   56.81    1.50
   6  -2   1   57.31    1.66
  -6  -2  -1   58.30    1.47
   6  -2   1   59.71    1.51
   6   2   1   58.04    1.61
   6   2   1   58.62    1.49
  -6   2  -1   58.27    1.49
  -6   2  -1   56.82    1.64
  -7  -2  -1   27.26    1.05
  -7  -2  -1   25.58    0.93
  -7  -2  -1   27.98    0.91
  -7  -2  -1   26.31    1.07
   7  -2   1   28.04    1.00
   7  -2   1   26.50    1.01
   7  -2   1   27.46    1.08
  -7  -2  -1   28.55    0.98
  -7   2  -1   28.13    0.97
   7   2   1   25.96    0.96
  -7   2  -1   30.32    1.16
   7   2   1   28.20    1.07
  -7   2  -1   27.94    1.06
  -8  -2  -1    0.27    0.32
  -8  -2  -1    0.19    0.36
  -8  -2  -1    0.37    0.31
  -8  -2  -1    0.17    0.25
   8  -2   1    0.21    0.38
   8  -2   1    0.28    0.34
   8  -2   1    0.33    0.32
  -8   2  -1   -0.17    0.31
   8   2   1    0.24    0.32
  -8   2  -1    0.24    0.31
   8   2   1    0.29    0.41
  -8   2  -1   -0.03    0.36
   9  -2   1    0.18    0.42
  -9  -2  -1    1.28    0.46
  -9  -2  -1    0.39    0.37
   9  -2   1    0.41    0.40
  -9  -2  -1    0.65    0.38
   9  -2   1   -0.08    0.46
  -9  -2  -1    0.42    0.35
   9   2   1   -0.04    0.47
  -9   2  -1    1.11    0.43
  -9   2  -1   -0.47    0.44
  -9   2  -1    0.76    0.38
   9   2   1    0.78    0.44
  10  -2   1    6.46    0.76
  10  -2   1    6.56    0.66
 -10  -2  -1    6.46    0.64
 -10  -2  -1    6.37    0.73
  10  -2   1    6.70    0.77
 -10  -2  -1    5.85    0.65
 -10  -2  -1    6.78    0.62
 -10   2  -1    5.35    0.79
 -10   2  -1    5.29    0.63
  10   2   1    6.46    0.82
 -10   2  -1    7.00    0.69
 -10   2  -1    5.86    0.71
 -11  -2  -1    3.46    0.64
 -11  -2  -1    4.31    0.84
 -11  -2  -1    4.79    0.71
  11  -2   1    4.87    0.71
 -11  -2  -1    5.94    0.68
  11  -2   1    4.81    0.86
  11  -2   1    3.18    0.73
 -11   2  -1    5.19    0.75
 -11   2  -1    3.66    0.75
 -11   2  -1    4.76    0.74
  11   2   1    4.96    0.93
 -11   2  -1    3.65    0.92
  11  -3  -1   11.49    1.02
  11  -3  -1   11.63    1.02
 -11  -3   1    9.23    0.95
  11  -3  -1   10.28    0.98
 -11  -3   1   11.22    0.99
 -11  -3   1    9.10    0.86
 -11  -3   1   11.51    1.13
  11   3  -1   11.61    1.11
 -11   3   1   11.62    0.92
 -11   3   1    9.23    0.86
 -11   3   1   10.94    1.11
 -10  -3   1   11.48    0.95
  10  -3  -1   11.87    1.07
 -10  -3   1    9.91    0.96
  10  -3  -1   11.68    1.09
  10  -3  -1   10.64    1.00
 -10  -3   1   11.48    1.17
 -10  -3   1   11.92    0.85
 -10   3   1   13.20    1.14
  10   3  -1   11.86    1.09
 -10   3   1   10.89    0.80
   9  -3  -1    1.85    0.44
  -9  -3   1    1.72    0.52
  -9  -3   1    1.03    0.43
  -9  -3   1    1.46    0.43
   9  -3  -1    0.22    0.44
  -9  -3   1    1.76    0.38
  -9   3   1    1.18    0.35
  -9   3   1    1.18    0.49
   9   3  -1    2.31    0.48
  -8  -3   1    5.30    0.52
   8  -3  -1    4.79    0.47
   8  -3  -1    5.04    0.53
  -8  -3   1    5.50    0.54
  -8  -3   1    5.37    0.53
  -8  -3   1    6.24    0.61
  -8   3   1    4.68    0.55
  -8   3   1    5.13    0.47
   8   3  -1    5.34    0.57
   8   3  -1    5.26    0.49
   7  -3  -1    0.98    0.29
  -7  -3   1    1.93    0.39
  -7  -3   1    1.92    0.35
  -7  -3   1    1.11    0.27
  -7  -3   1    1.19    0.26
  -7  -3   1    1.48    0.33
   7  -3  -1    1.35    0.32
   7   3  -1    1.86    0.35
  -7   3   1    1.26    0.35
  -7   3   1    1.19    0.28
   7   3  -1    1.08    0.26
  -6  -3   1   17.95    0.76
   6  -3  -1   16.74    0.76
  -6  -3   1   16.95    0.70
  -6  -3   1   17.64    0.62
  -6  -3   1   17.80    0.72
   6  -3  -1   17.45    0.73
  -6  -3   1   18.13    0.79
  -6   3   1   16.44    0.80
  -6   3   1   17.32    0.70
   6   3  -1   18.19    0.79
   6   3  -1   17.34    0.63
   6   3  -1   17.67    0.67
   5  -3  -1   24.41    0.86
  -5  -3   1   24.16    0.87
  -5  -3   1   24.50    0.78
  -5  -3   1   23.80    0.79
   5  -3  -1   24.00    0.81
  -5  -3   1   24.29    0.84
   5   3  -1   24.54    0.77
  -5   3   1   23.24    0.92
  -5   3   1   23.55    0.78
   5   3  -1   23.38    0.72
   5   3  -1   22.75    0.86
   4  -3  -1   32.50    0.91
  -4  -3   1   32.35    0.90
  -4  -3   1   31.44    0.94
  -4  -3   1   31.43    0.98
   4  -3  -1   30.53    0.97
  -4  -3   1   31.14    0.88
  -4   3   1   31.44    0.90
  -4   3   1   31.10    1.05
   4   3  -1   30.57    0.84
   4   3  -1   31.58    0.87
   4   3  -1   31.59    0.97
   3  -3  -1   16.37    0.57
  -3  -3   1   15.83    0.55
  -3  -3   1   17.24    0.63
  -3   3   1   16.16    0.73
   3   3  -1   16.48    0.55
   3   3  -1   15.76    0.51
  -3   3   1   15.99    0.55
   3   3  -1   16.63    0.63
   2  -3  -1   10.05    0.42
  -2  -3   1   10.13    0.47
  -2  -3   1   10.13    0.41
   2   3  -1   10.07    0.46
  -2   3   1   10.46    0.42
  -2   3   1    8.77    0.51
   2   3  -1   10.34    0.41
   1  -3  -1   25.29    0.70
  -1  -3   1   26.21    0.72
  -1  -3   1   25.01    0.75
   1   3  -1   25.77    0.75
  -1   3   1   25.00    0.70
   1   3  -1   25.55    0.71
   0  -3  -1    0.22    0.17
   0  -3  -1    0.25    0.15
   0  -3   1    0.18    0.16
   0  -3   1    0.00    0.13
   0   3   1    0.08    0.12
   0   3  -1    0.04    0.10
  -1  -3  -1  130.11    2.90
  -1  -3  -1  130.22    2.70
   1  -3   1  133.90    2.82
   1  -3   1  126.95    2.74
   1   3   1  131.42    2.69
   1   3   1  136.12    2.93
  -1   3  -1  127.11    2.74
   1   3   1  131.26    2.90
  -2  -3  -1   11.18    0.42
   2  -3   1   11.08    0.46
  -2  -3  -1   10.75    0.50
   2   3   1   10.53    0.51
   2   3   1   11.40    0.41
  -2   3  -1   11.28    0.45
   3  -3   1    1.52    0.21
  -3  -3  -1    1.88    0.26
   3  -3   1    1.44    0.24
  -3  -3  -1    1.85    0.21
   3   3   1    1.73    0.20
   3   3   1    1.36    0.23
  -3   3  -1    1.24    0.17
   4  -3   1   90.70    2.19
  -4  -3  -1   88.52    2.16
  -4  -3  -1   89.58    1.97
  -4  -3  -1   88.46    1.99
  -4  -3  -1   90.09    2.19
   4  -3   1   89.75    2.05
   4   3   1   90.41    1.97
   4   3   1   88.35    2.18
  -4   3  -1   88.18    2.04
   5  -3   1    0.01    0.25
  -5  -3  -1    0.21    0.20
  -5  -3  -1    0.35    0.23
  -5  -3  -1   -0.01    0.19
   5  -3   1    0.24    0.19
  -5  -3  -1    0.18    0.18
   5   3   1   -0.14    0.21
  -5   3  -1    0.28    0.17
   5   3   1    0.17    0.16
   6  -3   1    6.37    0.57
  -6  -3  -1    5.45    0.54
  -6  -3  -1    5.45    0.30
  -6  -3  -1    5.54    0.50
  -6  -3  -1    5.81    0.45
  -6  -3  -1    6.68    0.53
   6  -3   1    5.56    0.49
  -6   3  -1    5.84    0.49
   6   3   1    5.48    0.45
   6   3   1    5.22    0.56
  -7  -3  -1   12.05    0.67
  -7  -3  -1   11.15    0.70
  -7  -3  -1   11.79    0.79
  -7  -3  -1   11.90    0.73
   7  -3   1   12.31    0.70
  -7  -3  -1   10.97    0.50
   7  -3   1   12.00    0.79
   7   3   1   11.62    0.64
  -7   3  -1   11.76    0.67
   7   3   1   10.87    0.76
  -7   3  -1   10.41    0.81
  -8  -3  -1   19.04    0.98
   8  -3   1   18.84    1.00
  -8  -3  -1   17.45    0.70
  -8  -3  -1   18.72    1.04
   8  -3   1   18.81    0.93
   8  -3   1   17.86    0.94
  -8  -3  -1   18.62    0.89
  -8  -3  -1   17.33    0.88
  -8   3  -1   19.18    1.07
  -8   3  -1   18.57    0.87
  -8   3  -1   17.98    0.95
   8   3   1   19.11    1.02
   9  -3   1    8.06    0.73
  -9  -3  -1    8.91    0.96
  -9  -3  -1    8.38    0.63
  -9  -3  -1    8.28    0.80
   9  -3   1    9.39    0.90
  -9  -3  -1    7.48    0.67
   9  -3   1    7.93    0.86
  -9   3  -1    8.33    0.69
  -9   3  -1    8.62    1.00
   9   3   1    8.41    0.79
  -9   3  -1    9.07    0.82
  10  -3   1    5.57    0.69
 -10  -3  -1    4.18    0.68
  10  -3   1    4.71    0.73
 -10  -3  -1    4.00    0.50
 -10  -3  -1    3.33    0.61
  10  -3   1    3.66    0.71
 -10  -3  -1    5.94    0.66
  10   3   1    5.36    0.81
 -10   3  -1    4.87    0.88
 -10   3  -1    3.99    0.62
 -10  -4   1    3.01    0.59
  10  -4  -1    3.17    0.74
 -10  -4   1    3.12    0.77
 -10  -4   1    2.84    0.60
  10  -4  -1    2.83    0.62
 -10   4   1    2.64    0.57
  10   4  -1    3.81    0.67
 -10   4   1    1.83    0.75
   9  -4  -1   24.20    1.27
   9  -4  -1   23.56    1.13
  -9  -4   1   24.13    1.15
  -9  -4   1   24.91    1.28
  -9  -4   1   24.36    1.21
   9   4  -1   24.14    1.09
  -9   4   1   26.21    1.33
  -9   4   1   25.65    1.10
   9   4  -1   24.98    1.23
  -8  -4   1    0.70    0.38
   8  -4  -1    1.74    0.43
  -8  -4   1    1.49    0.45
  -8  -4   1    0.29    0.45
  -8  -4   1    1.17    0.40
   8  -4  -1   -0.32    0.32
  -8   4   1    0.65    0.32
  -8   4   1    0.68    0.43
   8   4  -1    0.16    0.33
   8   4  -1    1.16    0.41
  -7  -4   1   37.58    1.31
   7  -4  -1   36.48    1.32
  -7  -4   1   37.00    1.21
  -7  -4   1   36.41    1.30
   7  -4  -1   38.89    1.24
  -7  -4   1   37.25    1.19
  -7   4   1   36.01    1.18
   7   4  -1   36.29    1.16
   7   4  -1   36.01    1.29
  -7   4   1   36.75    1.42
  -6  -4   1   14.09    0.70
  -6  -4   1   13.52    0.74
   6  -4  -1   13.78    0.76
   6  -4  -1   14.47    0.73
  -6  -4   1   14.41    0.74
  -6  -4   1   13.91    0.70
   6   4  -1   13.61    0.55
  -6   4   1   15.11    0.83
   6   4  -1   14.21    0.79
  -6   4   1   13.00    0.63
   6   4  -1   14.84    0.65
   5  -4  -1    0.41    0.20
   5  -4  -1    0.64    0.28
  -5  -4   1    0.41    0.23
  -5  -4   1    0.50    0.23
  -5  -4   1    0.67    0.26
  -5  -4   1    0.55    0.24
  -5   4   1    0.38    0.18
   5   4  -1    0.16    0.19
   5   4  -1    0.36    0.17
  -5   4   1    0.54    0.26
   5   4  -1    0.66    0.25
   4  -4  -1   14.68    0.61
   4  -4  -1   15.00    0.70
  -4  -4   1   15.69    0.68
  -4  -4   1   14.22    0.59
   4   4  -1   13.39    0.49
   4   4  -1   14.63    0.67
  -4   4   1   14.13    0.58
  -4   4   1   13.99    0.70
   4   4  -1   13.90    0.58
  -3  -4   1   28.79    0.85
   3  -4  -1   27.46    0.86
  -3  -4   1   28.94    0.95
   3   4  -1   27.98    0.80
  -3   4   1   27.95    0.84
  -3   4   1   29.50    1.01
   3   4  -1   27.07    0.83
   3   4  -1   29.30    0.94
  -2  -4   1    8.17    0.48
   2  -4  -1    7.76    0.43
  -2  -4   1    8.34    0.43
  -2   4   1    7.84    0.51
   2   4  -1    8.16    0.48
  -2   4   1    7.53    0.41
   2   4  -1    7.96    0.41
   1  -4  -1   27.07    0.90
  -1  -4   1   26.61    0.89
   1  -4  -1   28.30    0.83
  -1  -4   1   28.37    0.83
   1   4  -1   30.17    0.83
  -1   4   1   27.09    0.82
   1   4  -1   29.36    0.89
   0  -4   1   73.16    1.72
   0  -4  -1   73.03    1.77
   0  -4   1   68.39    1.65
   0  -4  -1   69.88    1.63
   0   4   1   69.75    1.62
   0   4  -1   70.00    1.65
   1  -4   1    7.27    0.41
   1  -4   1    5.92    0.39
  -1  -4  -1    6.40    0.44
  -1  -4  -1    7.34    0.40
   1   4   1    6.56    0.43
  -1   4  -1    7.07    0.39
   1   4   1    7.37    0.38
  -2  -4  -1   20.78    0.75
  -2  -4  -1   20.54    0.67
   2  -4   1   20.35    0.70
   2  -4   1   20.64    0.70
   2   4   1   20.92    0.58
   2   4   1   20.88    0.76
  -2   4  -1   21.11    0.71
   2   4   1   20.89    0.66
  -3  -4  -1   16.15    0.60
   3  -4   1   15.97    0.70
   3  -4   1   16.01    0.62
  -3  -4  -1   15.52    0.68
   3   4   1   15.92    0.58
   3   4   1   15.19    0.68
  -3   4  -1   16.06    0.61
  -4  -4  -1   52.05    1.34
   4  -4   1   55.66    1.53
   4  -4   1   54.73    1.42
  -4  -4  -1   51.51    1.52
  -4  -4  -1   53.85    1.37
   4   4   1   53.39    1.33
   4   4   1   53.43    1.52
  -4   4  -1   52.45    1.39
  -5  -4  -1   18.52    0.81
   5  -4   1   18.43    0.82
  -5  -4  -1   18.18    0.74
   5  -4   1   18.14    0.75
  -5  -4  -1   17.82    0.80
  -5  -4  -1   18.68    0.72
   5   4   1   18.28    0.69
  -5   4  -1   19.59    0.75
   5   4   1   17.81    0.82
  -6  -4  -1   23.55    0.99
   6  -4   1   23.01    0.99
  -6  -4  -1   23.36    0.86
   6  -4   1   23.73    0.92
  -6  -4  -1   24.52    0.97
  -6  -4  -1   23.40    0.90
   6   4   1   20.90    0.97
  -6   4  -1   24.07    0.88
   6   4   1   23.88    0.84
  -7  -4  -1    8.54    0.76
   7  -4   1    8.86    0.69
  -7  -4  -1    8.38    0.69
  -7  -4  -1    8.84    0.73
  -7  -4  -1   10.73    0.68
   7  -4   1    9.58    0.80
   7   4   1    9.48    0.79
  -7   4  -1    9.10    0.66
  -7   4  -1    9.11    0.82
   7   4   1    8.53    0.63
   8  -4   1    0.98    0.44
  -8  -4  -1    0.65    0.43
  -8  -4  -1    0.23    0.50
  -8  -4  -1    1.01    0.42
  -8  -4  -1    0.88    0.46
   8  -4   1    0.40    0.44
   8   4   1    0.70    0.37
  -8   4  -1    0.47    0.45
   8   4   1    0.48    0.46
  -8   4  -1    1.30    0.41
   9  -4   1    0.15    0.55
   9  -4   1    0.52    0.53
  -9  -4  -1    0.54    0.47
  -9  -4  -1    0.51    0.47
  -9  -4  -1    0.67    0.58
  -9  -4  -1    0.16    0.62
   9  -4   1   -0.45    0.57
  -9   4  -1    0.38    0.58
  -9   4  -1    0.82    0.48
   9   4   1   -0.49    0.60
 -10  -4  -1    4.10    0.89
 -10  -4  -1    5.38    0.76
 -10  -4  -1    4.30    0.71
  10  -4   1    5.13    0.70
  10  -4   1    4.67    0.85
  10  -4   1    5.12    0.82
  10   4   1    5.55    0.97
 -10   4  -1    5.36    0.88
 -10   4  -1    5.12    0.75
 -10  -5   1    6.29    0.88
 -10  -5   1    6.58    0.81
 -10  -5   1    5.81    0.98
  10  -5  -1    5.31    0.76
  10  -5  -1    4.92    0.87
  10   5  -1    6.21    0.89
 -10   5   1    6.15    0.71
 -10   5   1    6.05    0.85
  10   5  -1    5.55    0.76
   9  -5  -1    0.88    0.58
  -9  -5   1    1.84    0.60
  -9  -5   1    1.62    0.57
   9  -5  -1    0.46    0.56
  -9  -5   1    2.04    0.64
  -9  -5   1    1.90    0.70
  -9   5   1    2.35    0.60
   9   5  -1    1.69    0.61
  -9   5   1    0.40    0.50
   9   5  -1    0.78    0.49
  -8  -5   1    1.84    0.48
   8  -5  -1    2.14    0.46
  -8  -5   1    2.17    0.53
  -8  -5   1    1.33    0.47
   8  -5  -1    2.07    0.53
  -8  -5   1    1.97    0.55
   8   5  -1    2.57    0.53
   8   5  -1    2.36    0.45
  -8   5   1    2.66    0.43
  -8   5   1    2.81    0.53
  -7  -5   1    0.81    0.42
  -7  -5   1    0.84    0.44
  -7  -5   1    1.03    0.37
  -7  -5   1    0.93    0.42
   7  -5  -1    1.50    0.40
   7  -5  -1    1.48    0.37
  -7   5   1    0.28    0.34
   7   5  -1    0.56    0.32
   7   5  -1    1.03    0.40
  -7   5   1    0.85    0.39
   6  -5  -1   11.35    0.78
  -6  -5   1    9.96    0.68
   6  -5  -1   13.05    0.70
  -6  -5   1   11.76    0.78
  -6  -5   1   10.50    0.80
  -6  -5   1   10.36    0.69
  -6   5   1   11.44    0.83
  -6   5   1   11.99    0.65
   6   5  -1   12.30    0.78
   6   5  -1   13.19    0.53
   6   5  -1   11.65    0.67
  -5  -5   1   20.96    0.84
   5  -5  -1   20.41    0.92
   5  -5  -1   20.33    0.84
  -5  -5   1   20.45    0.90
  -5  -5   1   20.03    0.83
  -5   5   1   20.14    0.80
  -5   5   1   18.64    0.99
   5   5  -1   20.02    0.90
   5   5  -1   20.99    0.81
   5   5  -1   21.46    0.66
  -4  -5   1   15.60    0.71
   4  -5  -1   17.14    0.74
  -4  -5   1   17.23    0.79
   4   5  -1   17.95    0.83
   4   5  -1   16.76    0.58
  -4   5   1   16.76    0.69
   4   5  -1   15.59    0.67
  -4   5   1   17.09    0.88
  -3  -5   1    7.63    0.56
  -3  -5   1    7.16    0.50
   3  -5  -1    7.45    0.49
  -3   5   1    6.71    0.47
  -3   5   1    6.79    0.58
   3   5  -1    7.38    0.54
   3   5  -1    7.06    0.45
   2  -5  -1    2.34    0.34
  -2  -5   1    1.62    0.26
   2  -5  -1    2.24    0.31
  -2  -5   1    2.28    0.35
  -2   5   1    2.57    0.32
  -2   5   1    1.96    0.36
   2   5  -1    1.88    0.24
   2   5  -1    1.51    0.34
   1  -5  -1   15.73    0.65
  -1  -5   1   15.31    0.64
   1  -5  -1   15.64    0.70
  -1  -5   1   15.35    0.69
  -1   5   1   14.96    0.73
   1   5  -1   15.70    0.69
  -1   5   1   15.21    0.63
   1   5  -1   15.25    0.61
   0  -5  -1    3.34    0.34
   0  -5   1    3.19    0.36
   0  -5   1    3.68    0.38
   0  -5  -1    3.31    0.39
   0   5  -1    2.91    0.32
   0   5   1    2.70    0.34
   0   5   1    3.60    0.34
  -1  -5  -1   51.51    1.46
   1  -5   1   49.68    1.35
   1  -5   1   50.78    1.40
  -1  -5  -1   51.99    1.34
  -1   5  -1   51.77    1.35
   1   5   1   51.49    1.38
   1   5   1   50.89    1.31
  -2  -5  -1   12.36    0.59
   2  -5   1   12.35    0.60
  -2  -5  -1   11.70    0.62
   2  -5   1   11.75    0.59
   2   5   1   11.10    0.54
   2   5   1   11.85    0.47
   2   5   1   11.42    0.63
  -2   5  -1   11.69    0.54
   3  -5   1    2.12    0.32
  -3  -5  -1    1.97    0.31
  -3  -5  -1    1.82    0.34
   3  -5   1    2.02    0.32
   3  -5   1    1.67    0.27
  -3   5  -1    1.31    0.24
   3   5   1    2.42    0.31
   3   5   1    1.97    0.34
   4  -5   1   15.84    0.81
  -4  -5  -1   16.63    0.79
  -4  -5  -1   15.63    0.69
   4  -5   1   16.24    0.73
  -4   5  -1   16.60    0.70
   4   5   1   15.80    0.81
   4   5   1   15.72    0.67
  -5  -5  -1    0.69    0.30
  -5  -5  -1    0.71    0.34
   5  -5   1    0.32    0.29
  -5  -5  -1    0.42    0.30
   5  -5   1    0.40    0.29
  -5  -5  -1    1.01    0.34
   5   5   1    0.66    0.27
   5   5   1    0.42    0.32
  -5   5  -1    0.33    0.27
  -6  -5  -1    7.20    0.67
   6  -5   1    5.97    0.59
  -6  -5  -1    5.37    0.57
  -6  -5  -1    6.21    0.63
   6  -5   1    5.04    0.49
  -6  -5  -1    4.80    0.47
  -6   5  -1    6.82    0.58
   6   5   1    5.62    0.58
   6   5   1    5.04    0.52
   7  -5   1    7.69    0.73
  -7  -5  -1    8.34    0.80
   7  -5   1    7.29    0.73
  -7  -5  -1    6.71    0.61
  -7  -5  -1    6.60    0.58
  -7  -5  -1    8.74    0.81
   7   5   1    6.75    0.67
   7   5   1    6.58    0.66
  -7   5  -1    5.84    0.64
  -7   5  -1    6.26    0.57
   8  -5   1    7.32    0.72
  -8  -5  -1    7.48    0.76
  -8  -5  -1    6.99    0.67
   8  -5   1    7.70    0.70
  -8  -5  -1   10.56    1.02
  -8  -5  -1    7.44    0.71
  -8   5  -1    9.37    0.87
   8   5   1    8.20    0.69
  -8   5  -1    7.17    0.77
   8   5   1    8.79    0.83
  -9  -5  -1    3.68    0.74
  -9  -5  -1    3.04    0.67
   9  -5   1    1.81    0.63
   9  -5   1    2.10    0.72
  -9  -5  -1    4.37    0.77
  -9  -5  -1    3.31    0.67
   9   5   1    1.98    0.74
  -9   5  -1    3.24    0.69
  -9   5  -1    2.98    0.71
  -9  -6   1    7.11    0.83
   9  -6  -1    6.06    0.74
   9  -6  -1    4.60    0.84
  -9  -6   1    5.97    0.84
  -9  -6   1    5.27    0.93
  -9  -6   1    5.67    0.77
  -9   6   1    4.49    0.70
  -9   6   1    5.41    0.84
   9   6  -1    4.79    0.71
   9   6  -1    4.92    0.86
  -8  -6   1    0.94    0.65
  -8  -6   1   -0.50    0.52
  -8  -6   1   -0.31    0.49
  -8  -6   1    1.42    0.63
   8  -6  -1    0.78    0.65
   8  -6  -1    0.00    0.55
   8   6  -1    0.35    0.57
  -8   6   1   -0.50    0.61
   8   6  -1   -0.19    0.46
  -8   6   1    0.29    0.52
  -7  -6   1    8.02    0.71
   7  -6  -1    8.56    0.91
   7  -6  -1    7.59    0.67
  -7  -6   1   11.83    0.97
  -7  -6   1   10.38    0.88
  -7  -6   1    8.93    0.83
  -7   6   1    8.20    0.73
   7   6  -1    8.52    0.75
  -7   6   1    7.65    0.76
   7   6  -1    9.60    0.81
  -6  -6   1    2.39    0.46
   6  -6  -1    2.32    0.47
  -6  -6   1    2.25    0.52
  -6  -6   1    1.87    0.49
   6  -6  -1    2.42    0.43
  -6  -6   1    1.69    0.42
  -6   6   1    1.55    0.38
  -6   6   1    0.82    0.42
   6   6  -1    1.97    0.48
   6   6  -1    1.78    0.44
  -5  -6   1    0.67    0.42
  -5  -6   1    0.20    0.31
   5  -6  -1   -0.04    0.33
   5  -6  -1    0.39    0.35
   5   6  -1    0.41    0.37
  -5   6   1   -0.25    0.42
   5   6  -1    0.41    0.30
  -5   6   1   -0.11    0.31
   5   6  -1    0.18    0.19
  -4  -6   1    0.64    0.30
   4  -6  -1    0.46    0.30
  -4  -6   1    1.13    0.40
  -4   6   1   -0.06    0.36
   4   6  -1    0.77    0.36
  -4   6   1    0.44    0.31
   4   6  -1    0.32    0.21
   4   6  -1    0.90    0.30
  -3  -6   1    3.43    0.46
   3  -6  -1    2.71    0.41
  -3  -6   1    3.51    0.43
   3  -6  -1    3.39    0.41
  -3   6   1    2.83    0.48
   3   6  -1    2.41    0.31
   3   6  -1    1.90    0.39
  -3   6   1    3.11    0.36
   2  -6  -1    0.52    0.29
  -2  -6   1   -0.09    0.29
  -2  -6   1    0.47    0.29
   2  -6  -1    0.62    0.31
   2   6  -1    0.86    0.26
  -2   6   1    0.11    0.35
  -2   6   1    0.16    0.23
   2   6  -1    0.25    0.33
  -1  -6   1    1.83    0.40
   1  -6  -1    2.29    0.39
  -1  -6   1    2.23    0.35
   1  -6  -1    2.03    0.35
   1   6  -1    2.88    0.36
  -1   6   1    2.59    0.36
  -1   6   1    2.87    0.42
   0  -6   1   17.27    0.83
   0  -6  -1   16.66    0.82
   0  -6  -1   15.84    0.76
   0  -6   1   16.30    0.73
   0   6   1   17.18    0.80
   0   6   1   16.02    0.72
   0   6  -1   17.22    0.72
   1  -6   1    2.24    0.29
  -1  -6  -1    2.89    0.38
  -1  -6  -1    2.31    0.39
   1  -6   1    2.96    0.40
   1   6   1    2.44    0.34
  -1   6  -1    2.20    0.33
   1   6   1    2.68    0.34
   2  -6   1    0.93    0.29
  -2  -6  -1    1.02    0.34
   2  -6   1    0.98    0.33
  -2  -6  -1    0.86    0.33
   2   6   1    0.42    0.33
   2   6   1    1.13    0.30
  -2   6  -1    1.72    0.31
  -3  -6  -1    0.60    0.31
  -3  -6  -1    0.52    0.33
   3  -6   1    1.20    0.32
   3  -6   1   -0.14    0.27
   3   6   1    0.17    0.32
   3   6   1   -0.03    0.25
  -3   6  -1    0.27    0.23
  -4  -6  -1    8.42    0.70
   4  -6   1    9.81    0.67
   4  -6   1    8.74    0.76
  -4  -6  -1    8.85    0.67
   4  -6   1    8.70    0.69
   4   6   1    8.28    0.61
   4   6   1    7.29    0.70
  -4   6  -1    7.79    0.59
  -5  -6  -1    3.49    0.49
  -5  -6  -1    2.97    0.43
   5  -6   1    3.09    0.41
  -5  -6  -1    4.14    0.49
   5  -6   1    3.14    0.48
  -5   6  -1    4.05    0.40
   5   6   1    3.15    0.48
   5   6   1    3.55    0.42
   6  -6   1    7.08    0.68
  -6  -6  -1    6.74    0.64
   6  -6   1    7.51    0.72
  -6  -6  -1    7.43    0.74
  -6  -6  -1    7.84    0.76
  -6  -6  -1    7.46    0.71
   6   6   1    7.57    0.69
  -6   6  -1    6.98    0.70
  -6   6  -1    9.32    0.70
   6   6   1    6.13    0.65
  -7  -6  -1    5.90    0.68
  -7  -6  -1    4.15    0.60
  -7  -6  -1    4.90    0.58
  -7  -6  -1    3.67    0.62
   7  -6   1    5.43    0.65
   7  -6   1    3.60    0.59
  -7   6  -1    4.32    0.54
   7   6   1    4.71    0.55
  -7   6  -1    5.12    0.63
   7   6   1    3.63    0.57
  -8  -6  -1   -0.18    0.54
  -8  -6  -1    0.88    0.69
  -8  -6  -1    0.40    0.73
  -8  -6  -1    0.65    0.57
   8  -6   1    0.07    0.62
   8  -6   1   -0.80    0.59
  -8   6  -1   -1.02    0.59
   8   6   1    1.08    0.65
  -8   6  -1   -0.51    0.63
   8   6   1   -0.76    0.51
   7  -7  -1   -0.45    0.60
  -7  -7   1    0.41    0.55
   7  -7  -1    0.04    0.53
  -7  -7   1    1.43    0.72
  -7  -7   1   -0.66    0.53
  -7  -7   1    0.14    0.68
   7   7  -1    0.94    0.62
   7   7  -1    0.31    0.54
  -7   7   1   -0.03    0.71
  -6  -7   1    1.04    0.48
   6  -7  -1    0.92    0.56
  -6  -7   1   -0.05    0.58
  -6  -7   1    0.81    0.51
  -6  -7   1    2.00    0.59
   6  -7  -1    1.68    0.50
   6   7  -1    1.20    0.55
  -6   7   1    1.57    0.47
   6   7  -1    1.84    0.49
  -6   7   1   -0.20    0.57
   5  -7  -1    2.49    0.54
   5  -7  -1    1.47    0.44
  -5  -7   1    1.19    0.54
   5  -7  -1    1.64    0.51
  -5  -7   1    1.73    0.48
   5   7  -1    0.94    0.52
  -5   7   1    1.36    0.40
  -5   7   1    1.08    0.54
   5   7  -1    1.60    0.42
  -4  -7   1    1.80    0.45
   4  -7  -1    0.57    0.46
   4  -7  -1    1.37    0.42
  -4  -7   1    1.70    0.54
   4   7  -1    1.45    0.52
  -4   7   1    1.89    0.39
  -4   7   1    1.74    0.55
   4   7  -1    1.06    0.30
   4   7  -1    1.52    0.42
  -3  -7   1    0.34    0.45
   3  -7  -1    1.05    0.43
   3  -7  -1    0.94    0.35
  -3  -7   1    0.99    0.38
   3   7  -1    0.52    0.44
  -3   7   1    0.70    0.37
  -3   7   1    0.75    0.51
   3   7  -1    0.53    0.32
  -2  -7   1    0.83    0.44
   2  -7  -1    0.84    0.39
  -2  -7   1    0.88    0.37
   2  -7  -1    0.71    0.38
  -2   7   1    0.87    0.33
  -2   7   1    0.94    0.48
   2   7  -1    0.44    0.34
   1  -7  -1    1.03    0.38
   1  -7  -1    1.35    0.46
  -1  -7   1    1.67    0.41
  -1  -7   1    1.28    0.37
  -1   7   1    1.07    0.43
  -1   7   1    1.09    0.35
   1   7  -1    0.88    0.34
   0  -7   1    0.51    0.40
   0  -7   1    0.54    0.34
   0  -7  -1    0.25    0.34
   0  -7  -1   -0.32    0.41
   0   7   1    0.01    0.39
   0   7   1    0.96    0.34
   0   7  -1    0.46    0.30
  -1  -7  -1    5.27    0.55
   1  -7   1    5.40    0.60
   1  -7   1    5.33    0.54
  -1  -7  -1    5.76    0.61
   1   7   1    4.90    0.50
  -1   7  -1    4.05    0.42
   1   7   1    5.19    0.50
   2  -7   1    2.48    0.45
   2  -7   1    1.81    0.41
  -2  -7  -1    2.18    0.45
  -2  -7  -1    2.50    0.46
   2   7   1    1.88    0.40
   2   7   1    1.60    0.39
  -2   7  -1    1.39    0.34
  -3  -7  -1    0.30    0.40
   3  -7   1    0.53    0.32
  -3  -7  -1   -0.15    0.42
   3  -7   1    0.47    0.43
  -3   7  -1    1.29    0.34
   3   7   1    0.68    0.36
  -4  -7  -1    4.49    0.56
   4  -7   1    4.14    0.60
   4  -7   1    6.72    0.69
   4  -7   1    4.81    0.56
  -4  -7  -1    3.42    0.52
   4   7   1    4.91    0.62
  -4   7  -1    4.93    0.47
   4   7   1    4.35    0.49
   5  -7   1   -0.49    0.47
  -5  -7  -1    0.63    0.47
  -5  -7  -1    1.37    0.50
   5  -7   1    0.51    0.49
   5  -7   1   -0.01    0.46
  -5  -7  -1    0.04    0.45
   5   7   1    0.44    0.49
  -5   7  -1   -1.09    0.42
   5   7   1    0.25    0.42
  -6  -7  -1   -0.16    0.61
   6  -7   1    0.12    0.53
  -6  -7  -1    0.14    0.50
  -6  -7  -1    0.66    0.52
   6  -7   1    0.16    0.48
   6  -7   1    1.03    0.56
  -6  -7  -1   -0.07    0.58
   6   7   1   -1.66    0.57
  -6   7  -1    1.05    0.62
   6   7   1    0.07    0.48
  -6   7  -1    0.16    0.44
  -7  -7  -1   -0.35    0.76
   7  -7   1    0.66    0.65
   7  -7   1    2.84    0.75
  -7  -7  -1    0.81    0.61
  -7  -7  -1   -0.08    0.60
  -7  -7  -1    0.33    0.74
   7   7   1   -1.55    0.67
  -7   7  -1    1.02    0.75
   7   7   1    1.44    0.57
  -7   7  -1    0.65    0.60
   5  -8  -1    0.24    0.66
  -5  -8   1   -0.10    0.77
   5  -8  -1   -1.38    0.63
   5  -8  -1    0.09    0.63
  -5  -8   1   -0.48    0.57
  -5   8   1   -1.45    0.72
   5   8  -1    0.15    0.66
   5   8  -1   -0.27    0.52
  -5   8   1   -0.03    0.53
  -4  -8   1    0.62    0.65
  -4  -8   1    0.76    0.59
   4  -8  -1   -0.34    0.58
   4  -8  -1    0.70    0.55
  -4   8   1    0.73    0.48
  -4   8   1   -0.85    0.64
   4   8  -1    1.03    0.52
   4   8  -1    0.87    0.63
   4   8  -1    0.36    0.36
  -3  -8   1    1.75    0.55
  -3  -8   1    1.38    0.60
   3  -8  -1    1.54    0.52
   3  -8  -1    0.91    0.56
   3   8  -1    0.93    0.48
  -3   8   1    0.80    0.59
  -3   8   1    0.66    0.45
  -2  -8   1    1.14    0.52
   2  -8  -1   -0.61    0.49
  -2  -8   1    0.22    0.54
   2  -8  -1   -0.18    0.52
  -2   8   1   -0.58    0.58
   2   8  -1    0.40    0.43
  -2   8   1    0.38    0.47
   1  -8  -1    1.10    0.51
  -1  -8   1   -0.21    0.43
  -1  -8   1    0.43    0.57
   1  -8  -1    1.39    0.58
   1   8  -1    1.13    0.43
  -1   8   1    0.29    0.44
  -1   8   1   -0.25    0.52
   0  -8  -1    3.83    0.60
   0  -8  -1    4.19    0.70
   0  -8   1    3.25    0.52
   0  -8   1    2.78    0.59
   0   8   1    2.74    0.61
   0   8   1    3.85    0.56
   0   8  -1    3.16    0.51
  -1  -8  -1   -0.17    0.48
   1  -8   1   -0.17    0.51
  -1  -8  -1   -0.22    0.52
   1  -8   1    0.68    0.49
  -1   8  -1    0.35    0.43
   1   8   1   -0.45    0.52
   1   8   1   -0.32    0.43
  -2  -8  -1    0.54    0.61
   2  -8   1    0.22    0.55
   2  -8   1    0.53    0.45
  -2  -8  -1    0.91    0.52
   2   8   1    0.82    0.45
   2   8   1    0.41    0.42
  -2   8  -1    0.11    0.40
   3  -8   1    0.27    0.55
  -3  -8  -1    0.27    0.58
  -3  -8  -1    0.66    0.52
   3  -8   1    1.21    0.52
  -3   8  -1   -0.10    0.44
   3   8   1    0.03    0.46
   4  -8   1    4.23    0.62
   4  -8   1    3.04    0.64
   4  -8   1    1.77    0.72
  -4  -8  -1    1.76    0.70
  -4  -8  -1    2.05    0.61
  -4   8  -1    2.35    0.52
   4   8   1    2.07    0.54
  -4   8  -1    3.08    0.73
   5  -8   1    1.01    0.59
   5  -8   1   -0.23    0.66
  -5  -8  -1    1.97    0.69
  -5  -8  -1    2.95    0.77
   5  -8   1    2.12    0.72
  -5  -8  -1    1.61    0.68
   5   8   1    2.43    0.71
   5   8   1    1.03    0.61
  -5   8  -1    0.82    0.86
  -5   8  -1    1.35    0.54
   2  -9  -1    0.61    0.81
  -2  -9   1   -0.87    0.81
  -2  -9   1   -0.21    0.72
   2  -9  -1    0.26    0.71
   2   9  -1    0.09    0.59
  -2   9   1    0.74    0.70
   2   9  -1   -0.42    0.66
  -2   9   1   -0.61    0.82
  -1  -9   1   -0.41    0.68
  -1  -9   1    0.62    0.78
   1  -9  -1    0.63    0.82
   1  -9  -1    0.59    0.74
   1   9  -1    0.37    0.72
  -1   9   1    0.76    0.65
   1   9  -1    1.46    0.65
  -1   9   1    0.77    0.80
   0  -9  -1   -0.67    0.76
   0  -9  -1   -0.19    0.72
   0  -9   1   -1.18    0.69
   0  -9   1    0.64    0.75
   0   9   1   -0.56    0.71
   0   9  -1   -0.12    0.62
   0   9   1    0.64    0.65
   1  -9   1    2.28    0.74
  -1  -9  -1    2.80    0.74
  -1  -9  -1    1.97    0.80
   1  -9   1    0.34    0.76
   1   9   1    1.94    0.68
  -1   9  -1    1.93    0.85
  -1   9  -1    2.40    0.68
   1   9   1    2.07    0.65
 -12   0   2    2.63    0.75
  12   0  -2    3.47    0.75
 -12   0   2    2.92    0.63
 -12   0   2    3.45    0.78
  12   0  -2    4.86    0.82
  12   0  -2    1.60    0.86
 -12   0   2    1.98    0.62
  11   0  -2   17.95    1.20
  11   0  -2   16.47    1.07
 -11   0   2   17.63    1.03
  11   0  -2   19.59    1.30
 -11   0   2   16.42    1.20
 -11   0   2   19.05    1.28
 -11   0   2   19.98    1.03
 -10   0   2   35.80    1.46
 -10   0   2   37.04    1.28
 -10   0   2   35.90    1.28
  10   0  -2   35.16    1.42
 -10   0   2   35.00    1.41
  10   0  -2   34.13    1.37
  10   0  -2   36.17    1.29
  -9   0   2   19.21    0.84
   9   0  -2   18.56    0.93
  -9   0   2   18.50    0.95
  -9   0   2   18.03    0.97
   9   0  -2   19.08    0.87
  -9   0   2   17.95    0.84
   9   0  -2   18.04    0.96
  -7   0   2    8.42    0.49
   7   0  -2    7.82    0.49
  -7   0   2    5.42    0.44
   6   0  -2    8.21    0.54
   6   0  -2    7.21    0.43
  -6   0   2    6.58    0.43
  -5   0   2   66.91    1.74
   5   0  -2   67.30    1.77
   5   0  -2   68.84    1.63
  -5   0   2   64.06    1.58
  -5   0   2   57.98    1.53
  -5   0   2   69.03    1.63
   5   0  -2   64.40    1.57
  -4   0   2  165.44    3.82
  -4   0   2  167.85    3.42
   4   0  -2  162.53    3.43
  -4   0   2  163.80    3.44
   4   0  -2  165.96    3.82
  -4   0   2  165.54    3.54
   4   0  -2  167.66    3.54
   3   0  -2  122.43    2.55
   3   0  -2  125.60    2.86
   3   0  -2  123.95    2.62
  -3   0   2  123.04    2.57
  -3   0   2  124.03    2.62
  -3   0   2  119.14    2.54
  -3   0   2  121.88    2.85
   2   0  -2   76.09    1.81
  -2   0   2   76.73    1.82
  -2   0   2   77.67    1.62
  -2   0   2   76.33    1.61
  -2   0   2   78.23    1.60
   2   0  -2   73.81    1.60
   2   0  -2   76.24    1.60
   2   0  -2   78.24    1.62
   1   0  -2    6.03    0.28
  -1   0   2    6.18    0.20
   1   0  -2    6.29    0.21
  -1   0   2    6.34    0.22
  -1   0   2    6.17    0.28
   1   0  -2    6.18    0.21
   0   0  -2  287.89    5.81
  -1   0  -2    0.36    0.07
   1   0   2    0.36    0.07
  -1   0  -2    0.28    0.08
  -1   0  -2    0.36    0.12
   1   0   2    0.42    0.13
   1   0   2    0.23    0.10
   2   0   2   71.06    1.54
   2   0   2   70.04    1.62
  -2   0  -2   69.48    1.45
   2   0   2   73.83    1.47
  -2   0  -2   68.16    1.53
  -2   0  -2   69.88    1.64
  -3   0  -2  204.92    4.40
   3   0   2  213.17    4.10
  -3   0  -2  201.38    4.27
  -3   0  -2  208.11    4.07
   3   0   2  199.47    4.37
   3   0   2  199.79    4.27
  -4   0  -2  114.09    2.68
   4   0   2  110.56    2.63
   4   0   2  113.86    2.54
   4   0   2  116.23    2.45
  -4   0  -2  117.08    2.42
   5   0   2  110.94    2.69
   5   0   2  113.07    2.50
  -5   0  -2  114.72    2.47
  -5   0  -2  116.44    2.48
  -5   0  -2  113.33    2.73
   5   0   2  114.32    2.59
   6   0   2    0.56    0.23
  -6   0  -2    0.55    0.20
   6   0   2    0.33    0.22
  -6   0  -2    0.34    0.23
   6   0   2    0.60    0.28
  -6   0  -2    0.74    0.29
  -6   0  -2    0.45    0.23
   7   0   2    9.68    0.67
   7   0   2   10.11    0.68
   7   0   2   10.05    0.62
  -7   0  -2    9.14    0.63
  -7   0  -2    9.06    0.59
  -7   0  -2    9.73    0.59
  -7   0  -2   10.04    0.65
  -8   0  -2   11.99    0.80
   8   0   2   10.99    0.71
   8   0   2   11.06    0.84
   8   0   2   12.74    0.78
  -8   0  -2   11.73    0.68
  -8   0  -2   11.88    0.76
  -8   0  -2   12.66    0.72
   9   0   2   26.23    1.26
  -9   0  -2   28.10    1.09
  -9   0  -2   29.83    1.29
  -9   0  -2   29.58    1.12
  -9   0  -2   28.32    1.23
   9   0   2   28.11    1.19
   9   0   2   29.96    1.17
 -10   0  -2   10.76    0.88
 -10   0  -2   10.26    1.00
  10   0   2   13.79    1.00
  10   0   2   10.68    0.97
 -10   0  -2   12.87    1.12
  10   0   2   10.48    1.08
 -10   0  -2   10.80    0.93
  11   0   2    3.94    0.69
 -11   0  -2    4.23    0.69
  11   0   2    4.19    0.70
  11   0   2    4.72    0.86
 -11   0  -2    4.76    0.71
 -11   0  -2    3.91    0.72
 -11   0  -2    3.84    0.84
 -12  -1   2   10.66    0.93
 -12  -1   2   11.44    1.27
  12  -1  -2   10.00    1.06
  12  -1  -2   10.24    1.00
  12  -1  -2   12.28    1.16
 -12  -1   2    9.55    0.83
 -12  -1   2   12.69    1.09
 -12   1   2   13.06    1.16
 -12   1   2   13.40    1.14
  12   1  -2   11.19    1.04
 -12   1   2   11.38    1.13
  12   1  -2   10.34    1.14
  12   1  -2   10.31    0.93
 -12   1   2   11.35    1.15
 -11  -1   2   11.72    1.06
 -11  -1   2   12.52    0.91
  11  -1  -2   10.81    0.92
  11  -1  -2    9.37    0.85
  11  -1  -2    8.71    0.86
 -11  -1   2   11.39    1.08
 -11  -1   2   12.10    0.95
 -11   1   2   11.59    1.22
  11   1  -2   12.31    1.14
  11   1  -2   12.57    1.01
  11   1  -2   12.30    1.05
 -11   1   2   11.30    0.90
 -11   1   2   10.65    0.92
 -11   1   2   12.57    1.10
 -10  -1   2   -0.17    0.41
  10  -1  -2    0.42    0.47
 -10  -1   2    0.61    0.39
  10  -1  -2    0.02    0.35
 -10  -1   2    0.25    0.45
  10  -1  -2    0.39    0.47
 -10  -1   2   -0.23    0.36
  10   1  -2    0.30    0.47
 -10   1   2   -0.40    0.43
  10   1  -2    0.11    0.47
 -10   1   2    0.06    0.35
  10   1  -2    0.15    0.40
 -10   1   2    0.07    0.35
 -10   1   2   -0.31    0.43
   9  -1  -2    0.24    0.40
  -9  -1   2    0.93    0.38
  -9  -1   2    1.53    0.35
  -9  -1   2    0.99    0.38
  -9  -1   2    0.78    0.35
   9  -1  -2    1.11    0.40
   9  -1  -2    0.90    0.32
  -9   1   2    0.12    0.25
  -9   1   2    0.17    0.38
   9   1  -2    0.47    0.32
  -9   1   2    0.52    0.38
   9   1  -2    0.69    0.36
  -9   1   2    1.03    0.28
   9   1  -2    0.86    0.37
  -8  -1   2  155.56    3.52
   8  -1  -2  161.65    3.55
   8  -1  -2  153.61    3.67
   8  -1  -2  157.03    3.70
  -8  -1   2  157.97    3.84
  -8  -1   2  159.17    3.50
  -8  -1   2  153.25    3.66
  -8   1   2  155.49    3.93
   8   1  -2  160.75    3.68
  -8   1   2  162.58    3.51
   8   1  -2  156.98    3.72
  -8   1   2  152.84    3.68
  -8   1   2  150.78    3.51
   8   1  -2  160.32    3.53
   7  -1  -2   30.66    1.08
  -7  -1   2   30.96    0.99
  -7  -1   2   31.89    1.07
  -7  -1   2   32.21    1.08
   7  -1  -2   31.59    1.03
  -7  -1   2   30.71    1.01
  -7   1   2   31.02    1.07
  -7   1   2   31.80    1.00
   7   1  -2   31.23    1.08
   7   1  -2   31.06    1.07
   7   1  -2   30.43    1.05
   7   1  -2   33.21    1.02
  -7   1   2   30.46    0.98
  -7   1   2   31.89    1.15
  -6  -1   2   79.65    1.93
  -6  -1   2   82.90    2.11
   6  -1  -2   81.58    2.04
  -6  -1   2   83.18    2.04
   6  -1  -2   82.61    1.97
  -6  -1   2   85.10    1.98
   6   1  -2   79.88    1.95
  -6   1   2   84.06    2.05
  -6   1   2   80.44    1.95
   6   1  -2   81.00    2.06
   6   1  -2   84.79    2.11
  -6   1   2   83.54    2.19
   6   1  -2   80.28    2.01
  -5  -1   2   61.38    1.47
  -5  -1   2   61.25    1.53
   5  -1  -2   61.40    1.49
   5  -1  -2   59.56    1.53
  -5  -1   2   58.54    1.58
   5  -1  -2   59.35    1.66
  -5  -1   2   61.41    1.49
  -5   1   2   61.56    1.67
  -5   1   2   60.96    1.48
   5   1  -2   60.26    1.51
   5   1  -2   60.28    1.58
   5   1  -2   60.35    1.46
   5   1  -2   60.87    1.49
  -5   1   2   61.67    1.54
   5   1  -2   61.31    1.60
  -4  -1   2   30.20    0.84
   4  -1  -2   32.48    0.86
  -4  -1   2   32.85    0.85
   4  -1  -2   29.38    0.83
   4  -1  -2   27.51    0.94
  -4  -1   2   29.07    0.88
   4   1  -2   29.76    0.84
   4   1  -2   32.58    0.93
   4   1  -2   32.88    0.85
  -4   1   2   30.26    0.86
   4   1  -2   27.56    0.87
  -4   1   2   28.71    0.94
   4   1  -2   27.49    0.79
   3  -1  -2   35.79    0.90
  -3  -1   2   35.79    0.96
  -3  -1   2   35.02    0.87
   3  -1  -2   35.53    0.89
  -3  -1   2   35.42    0.88
  -3  -1   2   37.25    0.88
   3  -1  -2   33.68    1.01
   3   1  -2   36.81    0.90
   3   1  -2   37.31    0.97
   3   1  -2   34.94    0.87
  -3   1   2   32.83    1.01
  -3   1   2   37.14    0.89
   3   1  -2   34.18    0.95
  -2  -1   2    1.16    0.12
  -2  -1   2    1.07    0.16
  -2  -1   2    1.33    0.16
   2  -1  -2    1.06    0.14
  -2  -1   2    0.92    0.13
   2  -1  -2    1.36    0.21
   2   1  -2    1.03    0.15
  -2   1   2    1.42    0.15
   2   1  -2    1.59    0.20
  -2   1   2    1.32    0.20
   2   1  -2    1.22    0.14
   1  -1  -2   95.17    2.26
   1  -1  -2  100.10    1.97
  -1  -1   2   97.59    2.00
   1   1  -2  101.90    2.08
   1   1  -2   99.00    2.00
  -1   1   2   98.86    2.26
  -1   1   2   98.61    1.96
   0  -1   2   95.29    2.01
   0  -1  -2   95.31    2.16
   0  -1   2   93.06    1.93
   0  -1  -2  100.10    1.87
   0   1  -2   97.19    1.95
   0   1   2   94.48    2.16
   0   1  -2   93.86    1.93
   0   1   2   97.86    1.87
  -1  -1  -2   57.17    1.33
  -1  -1  -2   60.40    1.17
   1  -1   2   59.92    1.34
  -1  -1  -2   56.21    1.32
   1  -1   2   58.12    1.24
  -1  -1  -2   60.47    1.18
  -1   1  -2   57.86    1.24
  -1   1  -2   56.06    1.32
   1   1   2   60.68    1.17
   1   1   2   56.79    1.32
  -2  -1  -2   24.51    0.71
   2  -1   2   26.70    0.63
  -2  -1  -2   26.22    0.74
   2  -1   2   25.99    0.76
  -2  -1  -2   25.32    0.63
   2  -1   2   26.47    0.66
  -2  -1  -2   26.19    0.60
  -2   1  -2   25.42    0.65
   2   1   2   26.42    0.72
   2   1   2   26.76    0.61
   2   1   2   25.45    0.61
  -2   1  -2   26.69    0.76
  -3  -1  -2    0.10    0.15
   3  -1   2   -0.01    0.12
  -3  -1  -2    0.04    0.12
  -3  -1  -2   -0.04    0.14
  -3  -1  -2    0.27    0.12
   3  -1   2   -0.03    0.13
   3  -1   2    0.11    0.16
  -3   1  -2   -0.05    0.11
   3   1   2    0.23    0.14
   3   1   2    0.25    0.13
  -3   1  -2    0.03    0.16
   3   1   2    0.06    0.15
  -4  -1  -2   32.07    0.85
  -4  -1  -2   31.23    0.84
   4  -1   2   32.95    0.88
  -4  -1  -2   32.28    0.99
  -4  -1  -2   32.18    0.93
   4  -1   2   31.44    1.00
   4  -1   2   32.37    0.87
   4   1   2   32.53    0.94
  -4   1  -2   32.22    0.86
   4   1   2   32.26    0.98
  -4   1  -2   31.40    0.99
   4   1   2   32.28    0.86
  -5  -1  -2    2.37    0.26
   5  -1   2    2.94    0.31
   5  -1   2    2.32    0.30
  -5  -1  -2    2.44    0.28
  -5  -1  -2    2.68    0.26
   5  -1   2    2.46    0.33
  -5  -1  -2    2.52    0.34
  -5  -1  -2    2.96    0.34
   5   1   2    2.96    0.30
  -5   1  -2    3.08    0.30
   5   1   2    2.73    0.31
  -5   1  -2    2.39    0.31
   5   1   2    2.94    0.35
  -6  -1  -2   15.32    0.63
   6  -1   2   15.69    0.69
  -6  -1  -2   15.79    0.64
   6  -1   2   15.26    0.67
  -6  -1  -2   14.18    0.73
   6  -1   2   14.82    0.73
  -6  -1  -2   15.20    0.72
  -6  -1  -2   15.60    0.64
   6   1   2   16.05    0.73
   6   1   2   15.04    0.72
  -6   1  -2   15.66    0.64
   6   1   2   15.22    0.66
  -6   1  -2   16.23    0.76
  -7  -1  -2   49.90    1.38
   7  -1   2   49.23    1.45
  -7  -1  -2   49.68    1.36
  -7  -1  -2   50.37    1.47
   7  -1   2   49.14    1.43
   7  -1   2   51.14    1.57
  -7  -1  -2   49.51    1.56
   7   1   2   49.46    1.56
   7   1   2   52.16    1.41
   7   1   2   52.44    1.52
  -7   1  -2   51.88    1.40
  -7   1  -2   50.16    1.56
  -7   1  -2   51.78    1.60
   8  -1   2   18.24    0.91
   8  -1   2   15.43    0.87
  -8  -1  -2   16.99    0.88
  -8  -1  -2   17.34    0.82
   8  -1   2   17.54    0.90
  -8  -1  -2   16.53    0.78
  -8  -1  -2   16.23    0.84
   8   1   2   18.43    0.96
  -8   1  -2   16.96    0.97
   8   1   2   17.20    0.90
  -8   1  -2   16.88    0.84
   8   1   2   16.65    0.84
  -8   1  -2   17.92    0.83
  -8   1  -2   17.90    0.90
   9  -1   2    5.05    0.65
  -9  -1  -2    5.45    0.57
  -9  -1  -2    5.96    0.56
  -9  -1  -2    5.22    0.56
   9  -1   2    5.68    0.61
   9  -1   2    4.23    0.51
  -9  -1  -2    5.13    0.52
   9   1   2    6.99    0.63
   9   1   2    5.81    0.67
  -9   1  -2    5.46    0.59
  -9   1  -2    5.34    0.59
   9   1   2    5.64    0.53
  -9   1  -2    5.86    0.60
  -9   1  -2    5.88    0.69
  10  -1   2   -0.60    0.48
 -10  -1  -2    0.18    0.45
 -10  -1  -2    0.17    0.51
 -10  -1  -2    0.38    0.50
 -10  -1  -2   -0.21    0.48
  10  -1   2   -0.03    0.63
  10  -1   2    0.19    0.49
 -10   1  -2    0.46    0.59
  10   1   2    0.79    0.49
 -10   1  -2    0.01    0.51
 -10   1  -2   -0.47    0.45
  10   1   2   -0.67    0.60
 -10   1  -2    0.28    0.45
  10   1   2    1.00    0.51
 -11  -1  -2    0.11    0.59
  11  -1   2   -0.10    0.76
 -11  -1  -2    1.18    0.72
  11  -1   2   -0.92    0.65
 -11  -1  -2    0.28    0.58
  11  -1   2    0.72    0.65
  11   1   2    0.03    0.66
 -11   1  -2    0.48    0.65
 -11   1  -2    0.28    0.60
 -11   1  -2   -0.40    0.61
  11   1   2    1.02    0.84
  11   1   2    0.60    0.65
 -11  -2   2    6.64    0.70
 -11  -2   2    7.11    0.84
  11  -2  -2    8.30    0.91
 -11  -2   2    8.04    0.76
  11  -2  -2    7.05    0.73
 -11  -2   2    9.63    0.95
  11  -2  -2    6.53    0.79
 -11   2   2    6.37    0.64
 -11   2   2    7.73    0.90
 -11   2   2    7.33    0.69
 -11   2   2    6.51    0.87
  11   2  -2    5.42    0.84
  10  -2  -2   13.49    1.10
 -10  -2   2   16.21    0.97
  10  -2  -2   13.42    0.91
  10  -2  -2   12.92    1.01
 -10  -2   2   14.30    0.90
 -10  -2   2   15.19    1.04
 -10  -2   2   14.90    0.92
 -10   2   2   15.16    0.86
 -10   2   2   15.60    0.89
  10   2  -2   17.98    1.10
 -10   2   2   15.94    1.13
 -10   2   2   15.43    1.09
  -9  -2   2    7.96    0.70
  -9  -2   2    7.99    0.70
   9  -2  -2    7.58    0.80
   9  -2  -2    6.97    0.67
  -9  -2   2    8.77    0.71
  -9  -2   2    7.12    0.68
   9   2  -2    7.74    0.79
  -9   2   2    9.37    0.82
  -9   2   2    7.14    0.60
   9   2  -2    8.53    0.71
  -9   2   2    7.10    0.62
  -9   2   2    7.09    0.83
  -8  -2   2    1.78    0.36
  -8  -2   2    2.24    0.38
   8  -2  -2    2.34    0.43
  -8  -2   2    2.30    0.40
  -8  -2   2    2.33    0.38
   8  -2  -2    1.69    0.33
  -8   2   2    1.14    0.44
  -8   2   2    2.52    0.39
  -8   2   2    1.82    0.27
   8   2  -2    1.76    0.38
   8   2  -2    1.40    0.32
   7  -2  -2    5.23    0.48
  -7  -2   2    5.45    0.49
  -7  -2   2    6.25    0.49
  -7  -2   2    5.46    0.45
   7  -2  -2    5.99    0.55
  -7  -2   2    4.86    0.52
   7   2  -2    5.80    0.52
   7   2  -2    4.98    0.53
  -7   2   2    5.15    0.43
  -7   2   2    5.10    0.57
  -7   2   2    5.83    0.57
   7   2  -2    5.61    0.44
  -6  -2   2    4.19    0.40
  -6  -2   2    4.47    0.38
  -6  -2   2    4.67    0.38
   6  -2  -2    4.70    0.46
  -6  -2   2    4.30    0.43
   6  -2  -2    4.44    0.42
   6   2  -2    4.10    0.45
   6   2  -2    4.10    0.41
  -6   2   2    4.20    0.46
  -6   2   2    4.25    0.38
   6   2  -2    3.78    0.34
  -5  -2   2    3.82    0.36
  -5  -2   2    3.07    0.31
   5  -2  -2    2.63    0.27
   5  -2  -2    4.20    0.40
  -5  -2   2    3.77    0.34
  -5  -2   2    3.48    0.31
  -5  -2   2    3.61    0.38
  -5   2   2    3.45    0.32
   5   2  -2    3.78    0.37
  -5   2   2    2.84    0.33
   5   2  -2    3.64    0.38
   5   2  -2    3.29    0.27
   4  -2  -2   30.01    0.89
   4  -2  -2   29.64    0.84
  -4  -2   2   30.43    0.85
  -4  -2   2   29.63    0.91
  -4  -2   2   28.95    0.83
  -4  -2   2   31.16    0.87
  -4  -2   2   29.47    0.83
  -4   2   2   28.37    1.08
   4   2  -2   31.61    0.89
   4   2  -2   29.88    0.82
  -4   2   2   30.02    0.83
   4   2  -2   30.23    0.92
  -3  -2   2   33.96    0.88
  -3  -2   2   33.75    0.94
  -3  -2   2   33.51    0.86
   3  -2  -2   33.54    0.86
   3  -2  -2   33.45    0.92
   3  -2  -2   33.67    1.01
  -3   2   2   32.08    0.85
  -3   2   2   34.68    1.02
   3   2  -2   33.06    0.86
   3   2  -2   33.42    0.91
   3   2  -2   33.36    0.93
  -2  -2   2   64.71    1.44
   2  -2  -2   63.97    1.64
  -2  -2   2   66.57    1.52
   2  -2  -2   67.15    1.43
  -2   2   2   63.98    1.41
  -2   2   2   65.06    1.64
   2   2  -2   65.38    1.44
   2   2  -2   65.56    1.51
   1  -2  -2   83.84    2.02
  -1  -2   2   87.31    1.82
  -1  -2   2   84.89    1.86
   1  -2  -2   87.44    1.78
   1   2  -2   85.02    1.81
  -1   2   2   82.86    2.02
   1   2  -2   87.12    1.86
  -1   2   2   87.00    1.78
   0  -2   2  535.18   10.61
   0  -2  -2  544.24   11.89
   0  -2  -2  525.80   11.15
   0  -2  -2  563.53   10.56
   0  -2   2  554.46   11.05
   0   2   2  550.55   11.89
   0   2  -2  550.43   10.62
   0   2  -2  555.66   11.05
   0   2   2  552.12   10.56
   1  -2   2   64.90    1.48
  -1  -2  -2   62.01    1.43
  -1  -2  -2   65.29    1.33
   1  -2   2   63.73    1.40
   1  -2   2   62.10    1.36
  -1  -2  -2   62.50    1.50
   1   2   2   65.08    1.43
   1   2   2   64.36    1.50
  -1   2  -2   62.68    1.40
   1   2   2   62.89    1.32
  -2  -2  -2    1.99    0.25
  -2  -2  -2    2.02    0.20
   2  -2   2    1.77    0.19
   2  -2   2    1.69    0.22
  -2  -2  -2    1.74    0.16
   2   2   2    1.94    0.25
  -2   2  -2    1.46    0.18
   2   2   2    2.04    0.18
  -3  -2  -2  114.47    2.30
   3  -2   2  112.99    2.39
   3  -2   2  111.17    2.56
  -3  -2  -2  111.42    2.55
  -3  -2  -2  110.51    2.32
  -3  -2  -2  109.68    2.54
   3   2   2  112.46    2.31
   3   2   2  108.88    2.53
  -3   2  -2  111.94    2.38
  -3   2  -2  112.92    2.56
  -4  -2  -2  103.99    2.23
  -4  -2  -2  101.03    2.43
   4  -2   2  104.63    2.46
   4  -2   2  104.91    2.28
  -4  -2  -2  101.03    2.41
  -4  -2  -2  104.66    2.19
  -4  -2  -2  103.93    2.33
   4   2   2  104.72    2.21
   4   2   2  100.31    2.40
  -4   2  -2  102.11    2.26
  -4   2  -2  103.15    2.46
   5  -2   2  125.07    2.84
  -5  -2  -2  128.74    3.00
   5  -2   2  127.34    2.79
  -5  -2  -2  128.76    2.98
  -5  -2  -2  128.08    2.91
  -5  -2  -2  128.17    2.77
   5  -2   2  126.05    3.03
  -5  -2  -2  131.25    2.73
   5   2   2  127.64    2.96
  -5   2  -2  127.79    2.78
  -5   2  -2  127.03    3.03
  -6  -2  -2   11.30    0.54
   6  -2   2   11.11    0.67
   6  -2   2   10.38    0.59
   6  -2   2   10.60    0.60
  -6  -2  -2   10.79    0.61
  -6  -2  -2   10.89    0.57
  -6  -2  -2    9.92    0.66
  -6  -2  -2   10.07    0.49
  -6   2  -2    9.94    0.64
   6   2   2   10.97    0.67
  -6   2  -2   11.74    0.57
   7  -2   2    0.68    0.32
  -7  -2  -2    0.75    0.27
  -7  -2  -2    0.31    0.28
   7  -2   2    0.26    0.31
  -7  -2  -2    0.56    0.32
  -7  -2  -2    1.01    0.28
   7  -2   2    0.96    0.30
  -7  -2  -2    0.60    0.27
   7   2   2    0.38    0.29
   7   2   2    0.62    0.36
  -7   2  -2    0.82    0.26
  -7   2  -2    0.39    0.32
   8  -2   2    4.58    0.55
  -8  -2  -2    4.92    0.55
   8  -2   2    4.13    0.49
   8  -2   2    5.68    0.55
  -8  -2  -2    4.31    0.43
  -8  -2  -2    5.18    0.52
  -8  -2  -2    4.54    0.47
   8   2   2    4.17    0.59
   8   2   2    4.90    0.52
  -8   2  -2    5.18    0.53
  -8   2  -2    5.74    0.58
  -8   2  -2    5.23    0.60
  -9  -2  -2   22.24    1.00
  -9  -2  -2   21.06    1.13
   9  -2   2   20.98    1.12
   9  -2   2   21.61    1.13
  -9  -2  -2   22.04    0.97
  -9  -2  -2   21.79    1.02
   9  -2   2   20.94    1.12
   9   2   2   23.55    1.22
  -9   2  -2   23.52    1.08
  -9   2  -2   24.89    1.32
  -9   2  -2   22.26    1.12
 -10  -2  -2   13.22    0.92
 -10  -2  -2   11.14    1.09
  10  -2   2   11.48    1.14
 -10  -2  -2   10.22    0.94
  10  -2   2   12.67    1.04
 -10  -2  -2   12.18    0.98
  10  -2   2   14.90    1.15
 -10   2  -2   12.31    1.08
 -10   2  -2   12.14    1.03
  10   2   2   14.35    1.28
 -10   2  -2   14.08    1.09
 -10   2  -2   12.66    1.33
 -11  -3   2    6.91    0.72
  11  -3  -2    6.78    0.90
 -11  -3   2    5.57    0.71
  11  -3  -2    5.54    0.90
 -11  -3   2    4.65    0.76
  11  -3  -2    6.53    0.75
 -11  -3   2    6.09    0.77
 -11   3   2    5.85    0.83
 -11   3   2    6.51    0.70
 -11   3   2    6.81    0.66
  11   3  -2   12.20    1.28
 -10  -3   2   -0.75    0.44
 -10  -3   2   -0.28    0.55
  10  -3  -2   -0.43    0.47
 -10  -3   2   -0.36    0.42
  10  -3  -2    0.32    0.54
 -10  -3   2    0.13    0.42
  10   3  -2   -0.36    0.52
 -10   3   2   -0.56    0.46
 -10   3   2    0.15    0.44
  -9  -3   2    1.94    0.41
   9  -3  -2    1.50    0.48
  -9  -3   2    0.71    0.36
  -9  -3   2    1.48    0.39
   9  -3  -2    0.66    0.35
  -9  -3   2    0.40    0.47
  -9   3   2    1.19    0.37
   9   3  -2    0.18    0.42
  -9   3   2    0.72    0.46
  -8  -3   2   79.19    2.03
   8  -3  -2   76.22    2.16
  -8  -3   2   75.72    2.12
  -8  -3   2   74.68    2.03
  -8  -3   2   75.30    2.04
   8  -3  -2   78.12    2.04
   8   3  -2   77.05    2.05
   8   3  -2   78.53    2.19
   8   3  -2   75.20    1.97
  -8   3   2   76.99    2.30
  -8   3   2   77.53    2.01
   7  -3  -2   10.27    0.70
  -7  -3   2   10.44    0.62
   7  -3  -2    9.53    0.62
  -7  -3   2   10.66    0.59
  -7  -3   2    9.59    0.68
  -7  -3   2    9.78    0.61
  -7   3   2   10.30    0.57
  -7   3   2   10.26    0.76
   7   3  -2   10.21    0.56
   7   3  -2   10.05    0.72
   7   3  -2    9.81    0.61
  -6  -3   2   40.85    1.26
  -6  -3   2   39.23    1.16
  -6  -3   2   42.85    1.17
  -6  -3   2   39.70    1.20
   6  -3  -2   40.06    1.25
   6  -3  -2   40.17    1.17
  -6   3   2   39.84    1.15
   6   3  -2   38.71    1.26
  -6   3   2   39.66    1.35
   6   3  -2   39.51    1.15
   6   3  -2   39.77    1.13
   5  -3  -2   33.34    0.98
  -5  -3   2   33.99    0.97
  -5  -3   2   33.50    0.97
   5  -3  -2   32.89    1.05
  -5  -3   2   33.23    1.06
  -5  -3   2   33.05    1.01
  -5   3   2   32.80    0.96
   5   3  -2   33.15    0.95
   5   3  -2   32.08    0.95
   5   3  -2   32.22    1.04
  -5   3   2   33.03    1.14
  -4  -3   2    2.80    0.31
   4  -3  -2    2.57    0.27
  -4  -3   2    3.18    0.31
   4  -3  -2    3.00    0.33
  -4  -3   2    3.50    0.32
  -4   3   2    2.98    0.30
  -4   3   2    3.84    0.43
   4   3  -2    3.87    0.39
   4   3  -2    3.17    0.27
   4   3  -2    2.92    0.30
  -3  -3   2    2.16    0.26
   3  -3  -2    2.26    0.25
  -3  -3   2    2.03    0.22
  -3   3   2    1.96    0.21
   3   3  -2    1.78    0.25
   3   3  -2    1.99    0.21
   3   3  -2    1.72    0.19
  -3   3   2    1.70    0.26
  -2  -3   2    0.58    0.17
  -2  -3   2    0.60    0.18
   2  -3  -2    0.51    0.16
   2   3  -2    0.54    0.15
  -2   3   2    1.62    0.38
  -2   3   2    0.43    0.14
   2   3  -2    0.65    0.19
   1  -3  -2   27.65    0.75
  -1  -3   2   28.14    0.78
  -1  -3   2   27.08    0.78
   1   3  -2   28.57    0.79
  -1   3   2   29.29    0.87
  -1   3   2   28.10    0.75
   1   3  -2   28.10    0.77
   0  -3  -2   44.01    1.16
   0  -3  -2   43.61    1.02
   0  -3   2   42.73    1.06
   0  -3   2   44.84    1.09
   0   3   2   43.50    1.02
   0   3   2   43.73    1.13
   0   3  -2   44.23    1.08
  -1  -3  -2   39.65    1.11
  -1  -3  -2   39.40    0.96
   1  -3   2   39.78    1.03
   1  -3   2   40.93    0.98
   1   3   2   44.37    0.99
  -1   3  -2   40.61    1.03
   1   3   2   39.71    0.95
   1   3   2   39.52    1.11
  -2  -3  -2   32.08    0.81
  -2  -3  -2   31.14    0.96
   2  -3   2   33.28    0.96
   2  -3   2   32.75    0.89
  -2   3  -2   33.30    0.89
   2   3   2   31.79    0.96
   2   3   2   31.62    0.80
  -3  -3  -2    1.30    0.24
   3  -3   2    1.19    0.20
   3  -3   2    1.85    0.29
  -3  -3  -2    1.46    0.19
  -3  -3  -2    1.27    0.19
   3   3   2    1.77    0.19
  -3   3  -2    1.49    0.23
   3   3   2    1.68    0.27
  -4  -3  -2   22.43    0.82
  -4  -3  -2   23.58    0.70
   4  -3   2   23.96    0.79
  -4  -3  -2   22.05    0.71
  -4  -3  -2   23.14    0.86
   4  -3   2   24.99    0.88
   4   3   2   23.02    0.84
   4   3   2   23.48    0.69
  -4   3  -2   22.70    0.76
  -5  -3  -2    1.89    0.30
  -5  -3  -2    1.70    0.33
  -5  -3  -2    1.79    0.28
   5  -3   2    1.04    0.28
  -5  -3  -2    1.85    0.26
   5  -3   2    2.05    0.31
  -5   3  -2    1.72    0.27
   5   3   2    2.21    0.35
   5   3   2    1.94    0.24
  -6  -3  -2   10.08    0.54
  -6  -3  -2   10.19    0.60
  -6  -3  -2    9.50    0.70
   6  -3   2    8.99    0.61
  -6  -3  -2    9.76    0.60
   6  -3   2   10.91    0.67
   6   3   2    9.97    0.55
  -6   3  -2    9.27    0.58
   6   3   2    9.10    0.70
   7  -3   2   33.32    1.23
  -7  -3  -2   32.71    1.04
  -7  -3  -2   30.36    0.84
  -7  -3  -2   28.32    1.20
   7  -3   2   29.00    1.10
  -7  -3  -2   32.54    1.19
  -7  -3  -2   30.13    1.05
   7  -3   2   31.11    1.10
  -7   3  -2   29.22    1.20
  -7   3  -2   28.94    1.07
   7   3   2   32.28    1.23
   8  -3   2   13.00    0.87
  -8  -3  -2   11.91    0.57
  -8  -3  -2   12.22    0.78
  -8  -3  -2   13.69    0.96
  -8  -3  -2   12.78    0.87
  -8  -3  -2   13.46    0.79
   8  -3   2   14.03    0.90
   8  -3   2   12.79    0.86
  -8   3  -2   13.27    0.82
   8   3   2   13.24    0.99
  -8   3  -2   12.23    1.01
  -8   3  -2   12.34    0.91
   9  -3   2    4.94    0.66
  -9  -3  -2    6.01    0.60
  -9  -3  -2    5.71    0.55
   9  -3   2    3.97    0.60
   9  -3   2    4.40    0.61
  -9  -3  -2    5.32    0.61
  -9  -3  -2    4.90    0.57
  -9   3  -2    6.04    0.77
  -9   3  -2    5.31    0.58
   9   3   2    4.64    0.68
  -9   3  -2    4.79    0.64
  10  -3   2    1.11    0.66
 -10  -3  -2    1.09    0.40
  10  -3   2   -0.30    0.65
 -10  -3  -2    0.40    0.73
 -10  -3  -2   -0.50    0.53
  10  -3   2    0.00    0.61
 -10  -3  -2   -0.44    0.51
 -10   3  -2   -0.97    0.69
  10   3   2   -0.21    0.73
 -10   3  -2   -0.95    0.70
 -10   3  -2    0.45    0.59
 -10  -4   2   14.82    1.33
  10  -4  -2   12.37    1.00
  10  -4  -2   12.11    1.26
 -10  -4   2   11.08    1.05
 -10  -4   2   11.47    1.11
 -10   4   2   10.45    0.97
 -10   4   2   15.18    0.97
  10   4  -2   11.05    0.90
   9  -4  -2    8.70    0.72
  -9  -4   2    7.13    0.73
  -9  -4   2    8.08    0.82
   9  -4  -2    8.81    0.86
  -9  -4   2    9.27    0.97
   9   4  -2    7.42    0.77
  -9   4   2    9.25    0.92
   9   4  -2    7.01    0.67
  -9   4   2    9.30    0.75
  -8  -4   2    0.92    0.37
  -8  -4   2    0.69    0.41
   8  -4  -2    0.21    0.36
  -8  -4   2    0.40    0.38
  -8  -4   2    0.52    0.38
   8  -4  -2    0.16    0.43
   8   4  -2   -0.02    0.34
   8   4  -2   -0.14    0.37
  -8   4   2    0.09    0.41
   8   4  -2    0.32    0.29
  -8   4   2    0.42    0.31
  -7  -4   2    0.97    0.31
  -7  -4   2    0.93    0.35
   7  -4  -2    1.21    0.31
  -7  -4   2    1.20    0.32
  -7  -4   2    0.98    0.36
   7  -4  -2    0.69    0.38
   7   4  -2    1.34    0.29
  -7   4   2    0.98    0.32
  -7   4   2    1.37    0.36
   7   4  -2    0.51    0.33
   7   4  -2    0.77    0.26
  -6  -4   2    0.38    0.23
  -6  -4   2    0.34    0.31
  -6  -4   2    0.50    0.24
  -6  -4   2    0.23    0.30
   6  -4  -2    0.11    0.27
   6  -4  -2   -0.14    0.25
  -6   4   2    0.54    0.22
  -6   4   2    0.46    0.29
   6   4  -2    0.49    0.23
   6   4  -2    0.01    0.22
   6   4  -2    0.62    0.28
  -5  -4   2   12.65    0.62
  -5  -4   2   13.54    0.63
   5  -4  -2   13.45    0.64
  -5  -4   2   14.12    0.68
  -5  -4   2   14.18    0.71
   5  -4  -2   14.81    0.73
   5   4  -2   14.92    0.70
   5   4  -2   13.68    0.56
  -5   4   2   14.45    0.62
   5   4  -2   13.52    0.59
  -5   4   2   13.39    0.75
  -4  -4   2   44.07    1.29
  -4  -4   2   41.52    1.16
   4  -4  -2   43.10    1.19
   4   4  -2   42.52    1.17
   4   4  -2   44.99    1.17
  -4   4   2   42.72    1.38
   4   4  -2   43.35    1.27
  -4   4   2   42.50    1.16
  -3  -4   2   32.64    0.94
  -3  -4   2   32.71    1.01
   3  -4  -2   32.28    0.95
  -3   4   2   32.32    0.93
  -3   4   2   33.20    1.10
   3   4  -2   31.74    0.92
   3   4  -2   32.36    1.01
  -2  -4   2   20.35    0.68
  -2  -4   2   18.78    0.72
   2  -4  -2   19.12    0.66
   2   4  -2   19.33    0.66
   2   4  -2   20.50    0.73
  -2   4   2   20.16    0.66
  -2   4   2   19.43    0.77
  -1  -4   2    5.72    0.38
   1  -4  -2    5.40    0.41
   1  -4  -2    5.41    0.38
  -1  -4   2    5.32    0.42
   1   4  -2    5.82    0.36
  -1   4   2    7.19    0.47
   1   4  -2    5.72    0.40
  -1   4   2    6.20    0.38
   0  -4  -2   36.03    1.05
   0  -4  -2   34.69    0.93
   0  -4   2   34.61    0.98
   0  -4   2   33.32    0.96
   0   4   2   34.93    0.92
   0   4   2   35.03    1.00
   0   4  -2   34.92    0.96
   1  -4   2    0.52    0.18
  -1  -4  -2    0.60    0.19
  -1  -4  -2    0.51    0.20
   1  -4   2    0.37    0.18
   1   4   2    0.31    0.15
  -1   4  -2    0.65    0.17
   1   4   2    0.51    0.16
   2  -4   2   13.24    0.52
   2  -4   2   14.23    0.65
  -2  -4  -2   13.81    0.63
  -2  -4  -2   13.88    0.54
   2  -4   2   14.82    0.58
   2   4   2   12.97    0.50
  -2   4  -2   13.65    0.56
   2   4   2   13.72    0.64
  -3  -4  -2   53.58    1.30
   3  -4   2   53.22    1.39
   3  -4   2   53.39    1.49
  -3  -4  -2   52.12    1.49
   3   4   2   52.20    1.48
  -3   4  -2   54.33    1.38
   3   4   2   53.42    1.29
  -4  -4  -2   25.48    0.81
  -4  -4  -2   26.06    0.82
  -4  -4  -2   26.00    0.93
  -4  -4  -2   25.43    0.95
   4  -4   2   25.46    0.88
   4  -4   2   26.49    0.97
   4   4   2   26.12    0.79
   4   4   2   26.07    0.96
  -4   4  -2   24.20    0.85
  -5  -4  -2   25.37    0.84
  -5  -4  -2   25.09    0.86
  -5  -4  -2   24.92    0.99
  -5  -4  -2   27.22    0.98
   5  -4   2   26.11    1.02
   5  -4   2   25.63    0.93
  -5   4  -2   25.81    0.91
   5   4   2   26.63    1.02
   5   4   2   24.91    0.82
  -6  -4  -2    1.07    0.31
   6  -4   2    1.06    0.36
   6  -4   2    0.63    0.34
  -6  -4  -2    1.02    0.32
  -6  -4  -2    1.63    0.39
  -6  -4  -2    0.85    0.29
   6   4   2    1.78    0.43
   6   4   2    0.84    0.28
  -6   4  -2    0.45    0.30
  -7  -4  -2    2.66    0.47
  -7  -4  -2    2.52    0.40
   7  -4   2    1.81    0.47
   7  -4   2    1.56    0.40
  -7  -4  -2    2.19    0.41
  -7  -4  -2    2.30    0.41
   7   4   2    1.80    0.50
   7   4   2    2.67    0.35
  -7   4  -2    2.57    0.43
   8  -4   2    4.45    0.56
  -8  -4  -2    5.17    0.59
  -8  -4  -2    5.59    0.74
  -8  -4  -2    4.77    0.56
  -8  -4  -2    5.16    0.56
   8  -4   2    4.93    0.59
   8  -4   2    4.23    0.56
  -8   4  -2    4.78    0.67
  -8   4  -2    4.56    0.55
   8   4   2    5.81    0.72
  -9  -4  -2   10.90    1.03
  -9  -4  -2   11.58    0.98
   9  -4   2   11.02    1.11
  -9  -4  -2   12.37    1.16
  -9  -4  -2   10.80    0.94
   9  -4   2   10.45    1.05
   9  -4   2   13.53    1.08
  -9   4  -2   10.13    1.03
   9   4   2   10.54    0.98
  -9   4  -2   12.84    1.27
 -10  -5   2    0.78    0.69
  10  -5  -2    1.22    0.83
  10  -5  -2   -1.01    0.62
 -10  -5   2   -0.28    0.74
 -10  -5   2   -1.22    0.63
  10   5  -2   -0.08    0.74
 -10   5   2   -0.02    0.63
  10   5  -2    0.29    0.61
 -10   5   2   -0.97    0.69
  -9  -5   2    0.04    0.60
   9  -5  -2    0.44    0.51
  -9  -5   2    0.13    0.53
   9  -5  -2    0.66    0.63
  -9  -5   2   -0.08    0.50
   9   5  -2   -0.04    0.42
   9   5  -2    0.22    0.61
  -9   5   2    0.45    0.57
  -9   5   2    0.57    0.48
   8  -5  -2   36.67    1.36
  -8  -5   2   40.75    1.47
  -8  -5   2   36.61    1.38
  -8  -5   2   36.65    1.47
  -8  -5   2   38.17    1.36
   8  -5  -2   35.92    1.52
  -8   5   2   40.23    1.32
   8   5  -2   35.06    1.13
  -8   5   2   34.64    1.53
   8   5  -2   37.36    1.44
   8   5  -2   36.44    1.29
  -7  -5   2    5.84    0.59
   7  -5  -2    5.48    0.54
  -7  -5   2    5.25    0.53
  -7  -5   2    6.28    0.62
   7  -5  -2    5.70    0.62
  -7  -5   2    6.63    0.61
   7   5  -2    6.38    0.62
  -7   5   2    5.02    0.62
   7   5  -2    6.25    0.57
  -7   5   2    7.28    0.64
   7   5  -2    5.96    0.58
  -6  -5   2   19.54    0.94
  -6  -5   2   21.69    0.98
  -6  -5   2   20.05    0.87
   6  -5  -2   20.43    0.99
  -6  -5   2   18.58    0.86
   6  -5  -2   21.26    0.90
   6   5  -2   19.92    0.75
   6   5  -2   19.51    0.96
  -6   5   2   18.52    0.83
  -6   5   2   19.03    1.06
   6   5  -2   19.95    0.83
   5  -5  -2   13.46    0.70
  -5  -5   2   11.31    0.76
  -5  -5   2   11.47    0.64
  -5  -5   2   11.11    0.64
   5  -5  -2   11.69    0.76
   5   5  -2   12.11    0.55
   5   5  -2   12.40    0.63
   5   5  -2   12.43    0.77
  -5   5   2   10.35    0.87
  -5   5   2   11.89    0.64
  -4  -5   2    1.36    0.33
   4  -5  -2    0.87    0.29
  -4  -5   2    0.93    0.24
  -4   5   2    1.14    0.25
   4   5  -2    1.23    0.33
  -4   5   2    0.85    0.37
   4   5  -2    0.85    0.24
   4   5  -2    1.31    0.23
  -3  -5   2    2.77    0.39
   3  -5  -2    2.69    0.34
  -3  -5   2    2.01    0.29
  -3   5   2    2.18    0.30
   3   5  -2    2.41    0.36
   3   5  -2    2.51    0.30
  -3   5   2    2.09    0.39
  -2  -5   2    3.12    0.37
  -2  -5   2    2.90    0.33
   2  -5  -2    3.26    0.34
   2  -5  -2    4.63    0.45
  -2   5   2    3.54    0.36
   2   5  -2    3.91    0.42
   2   5  -2    4.15    0.38
  -2   5   2    3.52    0.39
  -1  -5   2   18.98    0.73
   1  -5  -2   20.99    0.79
   1  -5  -2   19.45    0.72
  -1  -5   2   18.26    0.76
   1   5  -2   19.25    0.76
  -1   5   2   20.66    0.84
   1   5  -2   19.12    0.69
  -1   5   2   19.17    0.70
   0  -5  -2   13.84    0.61
   0  -5  -2   14.20    0.65
   0  -5   2   13.43    0.61
   0  -5   2   13.13    0.63
   0   5   2   14.65    0.67
   0   5  -2   14.15    0.59
   0   5   2   13.01    0.57
  -1  -5  -2   11.09    0.61
  -1  -5  -2   11.27    0.57
   1  -5   2   11.70    0.59
   1  -5   2   11.78    0.57
  -1   5  -2   11.42    0.54
   1   5   2   12.11    0.55
   1   5   2   12.29    0.53
  -2  -5  -2    6.04    0.48
   2  -5   2    5.07    0.44
  -2  -5  -2    5.99    0.47
   2  -5   2    5.41    0.46
   2   5   2    5.13    0.40
   2   5   2    5.78    0.28
  -2   5  -2    5.22    0.42
   2   5   2    5.38    0.52
  -3  -5  -2    0.84    0.27
   3  -5   2    0.66    0.27
   3  -5   2    0.45    0.24
   3  -5   2    0.49    0.31
  -3  -5  -2    0.78    0.26
  -3   5  -2    0.37    0.20
   3   5   2    0.38    0.27
   3   5   2    0.94    0.23
  -4  -5  -2    2.06    0.32
  -4  -5  -2    2.66    0.36
   4  -5   2    2.08    0.32
   4  -5   2    2.64    0.41
  -4  -5  -2    2.93    0.39
   4   5   2    1.99    0.36
  -4   5  -2    2.30    0.33
   4   5   2    2.23    0.32
   5  -5   2    2.50    0.41
  -5  -5  -2    3.22    0.39
  -5  -5  -2    2.54    0.34
   5  -5   2    2.96    0.43
  -5  -5  -2    3.09    0.37
  -5  -5  -2    2.84    0.39
   5   5   2    2.42    0.39
   5   5   2    3.29    0.37
  -5   5  -2    3.58    0.43
  -6  -5  -2    3.90    0.48
   6  -5   2    3.55    0.53
   6  -5   2    3.14    0.43
  -6  -5  -2    4.58    0.57
  -6  -5  -2    3.89    0.46
  -6  -5  -2    3.91    0.47
   6   5   2    3.55    0.50
   6   5   2    5.41    0.53
  -6   5  -2    3.71    0.47
  -7  -5  -2    7.84    0.73
   7  -5   2    9.56    0.84
  -7  -5  -2   10.73    0.85
  -7  -5  -2    8.52    0.77
   7  -5   2    9.49    0.90
  -7  -5  -2    9.28    0.96
   7   5   2    7.55    0.74
  -7   5  -2    8.99    0.78
   7   5   2    7.41    0.71
  -8  -5  -2    3.16    0.65
   8  -5   2    2.20    0.61
  -8  -5  -2    3.04    0.55
  -8  -5  -2    2.96    0.59
  -8  -5  -2    2.26    0.69
   8  -5   2    3.22    0.63
  -8   5  -2    1.95    0.62
  -8   5  -2    3.20    0.62
   8   5   2    3.15    0.52
   8   5   2    3.19    0.69
   9  -5   2    0.83    0.70
   9  -5   2    0.44    0.72
  -9  -5  -2    1.90    0.78
  -9  -5  -2    0.11    0.60
  -9  -5  -2    0.60    0.81
  -9  -5  -2    0.75    0.62
   9  -5   2    0.73    0.67
   9   5   2    3.01    0.88
  -9   5  -2    0.76    0.73
  -9   5  -2    1.02    0.67
  -9  -6   2    2.41    0.72
  -9  -6   2    0.69    0.77
  -9  -6   2    2.89    0.67
  -9  -6   2    1.82    0.75
   9  -6  -2    2.24    0.63
   9  -6  -2    1.52    0.79
   9   6  -2    1.66    0.60
  -9   6   2    0.92    0.76
   9   6  -2    1.79    0.73
  -9   6   2    2.51    0.63
  -8  -6   2   -0.19    0.57
   8  -6  -2    1.34    0.63
   8  -6  -2    0.32    0.53
  -8  -6   2    0.34    0.60
  -8  -6   2    0.46    0.63
  -8  -6   2   -1.00    0.46
   8   6  -2    0.93    0.59
   8   6  -2    0.46    0.47
  -8   6   2    0.03    0.50
  -8   6   2   -0.27    0.62
  -7  -6   2   -0.28    0.49
  -7  -6   2    0.58    0.55
   7  -6  -2    0.71    0.45
  -7  -6   2    0.37    0.44
   7  -6  -2    0.68    0.51
  -7  -6   2    0.55    0.41
   7   6  -2   -0.06    0.48
  -7   6   2    1.01    0.54
  -7   6   2    0.76    0.42
   7   6  -2    0.83    0.43
   7   6  -2    0.80    0.29
  -6  -6   2   -0.01    0.35
   6  -6  -2    0.20    0.46
  -6  -6   2    0.27    0.43
   6  -6  -2   -0.49    0.36
  -6  -6   2   -0.14    0.37
  -6  -6   2    0.28    0.45
   6   6  -2    0.34    0.43
  -6   6   2    0.01    0.35
   6   6  -2    0.13    0.27
  -6   6   2    0.04    0.45
   6   6  -2    0.15    0.33
  -5  -6   2    0.93    0.37
   5  -6  -2    0.91    0.44
  -5  -6   2    1.45    0.43
   5  -6  -2    0.78    0.37
   5   6  -2    0.98    0.33
  -5   6   2    0.34    0.41
   5   6  -2    0.75    0.26
   5   6  -2    2.00    0.47
  -5   6   2    1.08    0.34
  -4  -6   2    6.50    0.64
   4  -6  -2    6.50    0.65
  -4  -6   2    6.21    0.59
   4   6  -2    6.90    0.55
   4   6  -2    6.45    0.67
   4   6  -2    6.13    0.54
  -4   6   2    6.85    0.60
  -4   6   2    5.54    0.63
   3  -6  -2    6.25    0.59
  -3  -6   2    5.73    0.58
   3  -6  -2    7.00    0.65
  -3  -6   2    5.32    0.55
   3   6  -2    6.91    0.52
  -3   6   2    6.06    0.56
   3   6  -2    6.05    0.57
  -3   6   2    4.83    0.56
  -2  -6   2    6.62    0.63
  -2  -6   2    6.67    0.54
   2  -6  -2    4.94    0.48
   2  -6  -2    6.68    0.62
  -2   6   2    5.53    0.65
   2   6  -2    6.04    0.61
  -2   6   2    6.09    0.51
   2   6  -2    6.25    0.49
  -1  -6   2    4.28    0.42
  -1  -6   2    4.28    0.50
   1  -6  -2    4.70    0.47
   1  -6  -2    4.30    0.43
  -1   6   2    4.68    0.52
   1   6  -2    5.16    0.47
  -1   6   2    4.97    0.47
   0  -6  -2   12.49    0.74
   0  -6   2   13.73    0.73
   0  -6   2   13.89    0.68
   0  -6  -2   13.04    0.71
   0   6  -2   14.35    0.64
   0   6   2   14.20    0.67
   0   6   2   13.50    0.81
  -1  -6  -2    0.15    0.29
  -1  -6  -2    0.68    0.31
   1  -6   2    0.58    0.26
   1  -6   2    0.38    0.32
  -1   6  -2    0.24    0.21
   1   6   2    1.35    0.38
   1   6   2    0.74    0.27
  -2  -6  -2    0.91    0.30
   2  -6   2    1.15    0.31
   2  -6   2    1.06    0.33
  -2  -6  -2    1.18    0.36
   2   6   2    1.22    0.29
  -2   6  -2    1.43    0.30
   2   6   2    0.94    0.22
   3  -6   2   11.52    0.69
  -3  -6  -2   11.31    0.74
   3  -6   2   11.01    0.82
   3  -6   2   11.33    0.68
  -3  -6  -2   11.53    0.71
  -3   6  -2   11.89    0.62
   3   6   2   13.04    0.66
   3   6   2   10.65    0.74
  -4  -6  -2    7.73    0.66
  -4  -6  -2    7.28    0.70
   4  -6   2    6.72    0.65
   4  -6   2    6.93    0.62
   4  -6   2    7.80    0.67
   4   6   2    7.42    0.74
  -4   6  -2    6.70    0.60
   4   6   2    8.08    0.58
  -5  -6  -2    8.03    0.76
   5  -6   2    7.97    0.72
  -5  -6  -2    8.08    0.72
   5  -6   2    8.19    0.70
   5  -6   2    8.51    0.82
  -5  -6  -2    6.15    0.63
  -5  -6  -2    9.12    0.72
   5   6   2    8.18    0.81
   5   6   2    8.53    0.67
  -5   6  -2    8.87    0.68
   6  -6   2    2.20    0.52
  -6  -6  -2    1.44    0.51
  -6  -6  -2    1.49    0.46
  -6  -6  -2    2.22    0.45
  -6  -6  -2    1.16    0.52
   6  -6   2    1.89    0.47
   6   6   2    1.82    0.49
  -6   6  -2    1.97    0.44
   6   6   2    2.85    0.45
  -7  -6  -2   -0.89    0.61
   7  -6   2    0.36    0.61
   7  -6   2   -0.05    0.50
  -7  -6  -2   -0.64    0.58
  -7  -6  -2    0.62    0.48
  -7  -6  -2    0.07    0.46
   7   6   2   -0.07    0.57
  -7   6  -2    0.26    0.60
  -7   6  -2    0.79    0.52
   7   6   2   -0.34    0.43
   8  -6   2   -0.11    0.69
  -8  -6  -2    3.00    0.78
  -8  -6  -2    1.42    0.64
  -8  -6  -2    0.83    0.59
  -8  -6  -2    0.12    0.76
   8  -6   2    2.12    0.75
  -8   6  -2    2.39    0.72
   8   6   2    0.29    0.56
  -8   6  -2    0.51    0.67
   8   6   2    1.83    0.75
  -7  -7   2    0.97    0.55
   7  -7  -2    0.13    0.60
  -7  -7   2   -0.28    0.56
  -7  -7   2    0.25    0.67
   7  -7  -2   -0.01    0.66
  -7  -7   2   -0.10    0.72
  -7   7   2    0.83    0.57
  -7   7   2   -0.99    0.64
   7   7  -2    0.11    0.51
   7   7  -2    0.39    0.67
   6  -7  -2    1.71    0.56
  -6  -7   2    3.88    0.69
   6  -7  -2    2.99    0.58
  -6  -7   2    2.34    0.51
  -6  -7   2    2.81    0.58
   6   7  -2    2.82    0.37
  -6   7   2    2.46    0.50
   6   7  -2    2.94    0.61
   6   7  -2    2.18    0.49
  -6   7   2    2.50    0.69
   5  -7  -2    2.60    0.52
  -5  -7   2    3.55    0.64
  -5  -7   2    2.48    0.46
   5  -7  -2    1.75    0.48
   5   7  -2    2.31    0.58
   5   7  -2    2.83    0.38
  -5   7   2    1.98    0.65
   5   7  -2    3.26    0.50
  -5   7   2    3.28    0.52
  -4  -7   2    0.35    0.37
   4  -7  -2   -0.17    0.44
   4  -7  -2   -0.45    0.40
  -4  -7   2    0.20    0.47
   4   7  -2   -0.02    0.35
  -4   7   2    0.30    0.38
   4   7  -2    0.29    0.48
  -4   7   2   -0.21    0.50
   4   7  -2    0.59    0.33
  -3  -7   2    0.21    0.35
   3  -7  -2    0.45    0.43
  -3  -7   2    0.27    0.45
   3  -7  -2    0.22    0.38
   3   7  -2    0.71    0.44
   3   7  -2    0.34    0.30
  -3   7   2    0.42    0.50
  -3   7   2   -0.02    0.33
  -2  -7   2    0.07    0.41
   2  -7  -2   -0.56    0.36
  -2  -7   2   -0.34    0.33
   2  -7  -2   -0.02    0.40
  -2   7   2   -0.28    0.48
   2   7  -2    0.02    0.32
  -2   7   2   -0.28    0.31
  -1  -7   2    1.24    0.33
  -1  -7   2    2.38    0.46
   1  -7  -2    1.89    0.43
   1  -7  -2    2.14    0.48
   1   7  -2    2.97    0.38
  -1   7   2    2.85    0.54
  -1   7   2    2.21    0.40
   0  -7  -2    1.52    0.42
   0  -7  -2    1.67    0.44
   0  -7   2    1.75    0.44
   0  -7   2    1.82    0.40
   0   7   2    0.90    0.45
   0   7   2    1.16    0.35
   0   7  -2    1.80    0.33
   1  -7   2    4.47    0.46
   1  -7   2    4.43    0.49
  -1  -7  -2    4.17    0.50
  -1  -7  -2    3.22    0.48
  -1   7  -2    3.68    0.38
   1   7   2    4.01    0.48
   1   7   2    3.97    0.47
   2  -7   2    4.07    0.52
  -2  -7  -2    3.41    0.48
  -2  -7  -2    3.88    0.50
   2  -7   2    3.18    0.42
   2   7   2    3.89    0.35
  -2   7  -2    3.23    0.36
   2   7   2    4.07    0.47
  -3  -7  -2   -0.66    0.44
   3  -7   2    0.07    0.41
  -3  -7  -2    0.16    0.41
   3  -7   2   -0.18    0.36
   3  -7   2    0.24    0.45
   3   7   2    0.32    0.35
  -3   7  -2    0.21    0.33
   4  -7   2    2.34    0.55
   4  -7   2    1.94    0.48
  -4  -7  -2    1.86    0.49
   4  -7   2    3.07    0.48
  -4  -7  -2    2.39    0.48
   4   7   2    1.85    0.45
  -4   7  -2    2.95    0.44
   4   7   2    1.99    0.50
   5  -7   2    1.16    0.49
  -5  -7  -2    0.70    0.50
   5  -7   2   -0.44    0.44
  -5  -7  -2    0.64    0.53
  -5  -7  -2    1.18    0.48
   5  -7   2   -0.63    0.52
   5   7   2    1.43    0.45
  -5   7  -2    1.58    0.41
   5   7   2    0.20    0.52
   6  -7   2    1.46    0.58
   6  -7   2    0.49    0.60
   6  -7   2    0.42    0.68
  -6  -7  -2   -0.10    0.54
  -6  -7  -2    0.61    0.68
  -6  -7  -2    0.10    0.56
  -6  -7  -2    1.85    0.67
   6   7   2    0.82    0.49
   6   7   2    1.06    0.63
  -6   7  -2    0.50    0.52
   5  -8  -2    2.11    0.71
  -5  -8   2   -0.11    0.57
   5  -8  -2    1.50    0.66
   5  -8  -2    1.06    0.67
  -5  -8   2    0.71    0.71
  -5   8   2    0.80    0.57
   5   8  -2    1.14    0.74
  -5   8   2   -0.36    0.79
   5   8  -2    0.94    0.39
   5   8  -2   -0.15    0.55
   4  -8  -2    1.10    0.57
  -4  -8   2    2.47    0.72
   4  -8  -2    3.55    0.69
  -4  -8   2    3.03    0.64
   4   8  -2    2.55    0.55
  -4   8   2    1.60    0.72
   4   8  -2    1.49    0.69
  -4   8   2    1.84    0.52
   4   8  -2    2.35    0.49
   3  -8  -2    1.09    0.60
   3  -8  -2    1.77    0.57
  -3  -8   2    2.01    0.63
  -3  -8   2    0.48    0.59
  -3   8   2    1.82    0.68
   3   8  -2    0.92    0.46
  -3   8   2    1.54    0.49
  -2  -8   2    0.17    0.57
   2  -8  -2    0.71    0.60
  -2  -8   2    2.09    0.53
   2  -8  -2    0.77    0.56
  -2   8   2    0.24    0.64
   2   8  -2    0.66    0.46
  -2   8   2    1.06    0.49
  -1  -8   2   -0.30    0.53
   1  -8  -2    1.18    0.53
   1  -8  -2    0.16    0.54
  -1  -8   2   -0.12    0.42
  -1   8   2   -0.16    0.44
   1   8  -2    0.40    0.43
  -1   8   2    0.29    0.60
   0  -8  -2    0.36    0.51
   0  -8  -2    1.32    0.58
   0  -8   2    1.51    0.45
   0  -8   2    1.14    0.55
   0   8   2    0.78    0.45
   0   8   2    1.55    0.60
   0   8  -2    0.71    0.42
  -1  -8  -2    0.21    0.49
  -1  -8  -2    0.48    0.56
   1  -8   2    0.16    0.42
   1  -8   2   -0.45    0.50
   1   8   2   -0.17    0.43
   1   8   2    0.68    0.47
  -1   8  -2   -0.02    0.44
  -2  -8  -2    0.56    0.52
   2  -8   2   -0.28    0.53
  -2  -8  -2    1.50    0.59
   2  -8   2    0.82    0.50
  -2   8  -2    0.41    0.43
   2   8   2    0.75    0.47
   2   8   2    0.37    0.32
   3  -8   2    3.18    0.55
   3  -8   2    2.70    0.59
   3  -8   2    1.63    0.66
  -3  -8  -2    3.31    0.61
  -3  -8  -2    2.62    0.64
  -3   8  -2    1.57    0.46
   3   8   2    2.78    0.55
   4  -8   2    0.62    0.72
   4  -8   2    2.16    0.59
   4  -8   2    1.02    0.59
  -4  -8  -2    1.03    0.74
  -4  -8  -2    0.59    0.60
  -4   8  -2   -0.31    0.51
   4   8   2    0.99    0.56
  -1  -9   2    1.55    0.72
  -1  -9   2    1.09    0.80
   1  -9  -2    1.89    0.83
   1  -9  -2    0.47    0.69
   1   9  -2    1.07    0.66
  -1   9   2    1.72    0.79
  -1   9   2    2.01    0.69
   0  -9   2   -0.35    0.73
   0  -9   2   -0.95    0.69
   0  -9  -2    0.48    0.80
   0  -9  -2   -0.69    0.72
   0   9  -2    0.58    0.65
   0   9   2    0.23    0.67
   0   9   2    0.73    0.66
 -12   0   3    4.57    0.66
 -12   0   3    4.21    0.83
 -12   0   3    4.56    0.82
  12   0  -3    5.25    0.80
  12   0  -3    4.22    0.67
 -12   0   3    4.76    0.68
  12   0  -3    4.19    0.87
  11   0  -3   18.16    1.23
 -11   0   3   18.71    1.01
 -11   0   3   20.67    1.23
  11   0  -3   21.97    1.24
 -11   0   3   20.73    1.31
 -11   0   3   19.45    1.01
  11   0  -3   20.14    1.07
  10   0  -3   39.96    1.44
  10   0  -3   39.62    1.33
  10   0  -3   35.74    1.45
 -10   0   3   38.87    1.52
 -10   0   3   39.45    1.31
 -10   0   3   36.79    1.43
 -10   0   3   39.09    1.29
   9   0  -3    3.08    0.46
  -9   0   3    2.31    0.36
  -9   0   3    1.58    0.32
  -9   0   3    2.58    0.48
   9   0  -3    2.35    0.38
   9   0  -3    2.47    0.43
  -9   0   3    3.39    0.43
   8   0  -3    3.59    0.46
   8   0  -3    5.22    0.53
  -8   0   3    2.95    0.36
  -8   0   3    6.03    0.59
   8   0  -3    4.04    0.42
  -8   0   3    3.46    0.42
   7   0  -3   41.70    1.22
  -7   0   3   41.79    1.35
  -7   0   3   44.14    1.27
   7   0  -3   41.79    1.36
  -7   0   3   42.03    1.22
  -7   0   3   35.28    1.15
   7   0  -3   46.24    1.34
   7   0  -3   43.78    1.26
  -6   0   3   28.94    1.00
   6   0  -3   30.67    0.94
   6   0  -3   30.37    1.02
   6   0  -3   29.95    0.93
  -6   0   3   24.96    0.87
  -6   0   3   32.14    0.95
  -6   0   3   29.22    0.92
   5   0  -3   35.24    0.95
  -5   0   3   32.70    0.96
  -5   0   3   35.09    0.95
  -5   0   3   32.72    1.04
   5   0  -3   33.17    0.96
   5   0  -3   34.39    1.08
  -5   0   3   31.65    0.93
   4   0  -3  297.02    5.88
  -4   0   3  292.17    6.06
  -4   0   3  296.34    5.90
   4   0  -3  302.70    6.07
  -4   0   3  290.56    5.86
  -4   0   3  289.66    6.60
   4   0  -3  287.90    6.60
   3   0  -3    0.78    0.16
  -3   0   3    0.38    0.13
   3   0  -3    0.38    0.15
   3   0  -3    0.38    0.13
  -3   0   3    0.53    0.15
   2   0  -3   41.50    0.93
  -2   0   3   42.39    0.93
  -2   0   3   41.15    0.95
   2   0  -3   39.56    1.09
   2   0  -3   42.07    0.94
  -2   0   3   40.15    1.09
   2   0  -3   42.62    0.89
   1   0  -3   99.53    2.40
   1   0  -3  105.61    2.11
  -1   0   3  103.38    2.07
   1   0  -3  104.73    2.06
  -1   0   3  104.71    2.06
   0   0  -3  152.21    3.20
   0   0   3  152.84    3.19
   0   0   3  158.58    3.00
   0   0  -3  156.38    3.00
  -1   0  -3  243.40    5.07
  -1   0  -3  260.42    4.81
   1   0   3  246.96    5.14
   1   0   3  251.02    4.81
  -1   0  -3  242.69    5.16
   2   0   3    1.69    0.18
  -2   0  -3    1.73    0.16
  -2   0  -3    1.88    0.19
   2   0   3    1.49    0.17
   2   0   3    1.81    0.22
  -2   0  -3    2.16    0.25
   3   0   3   39.46    0.99
   3   0   3   38.73    1.10
  -3   0  -3   39.78    1.00
  -3   0  -3   40.37    1.15
   3   0   3   41.74    0.96
  -3   0  -3   39.89    0.93
  -4   0  -3    9.74    0.39
   4   0   3    9.22    0.50
   4   0   3    9.55    0.44
  -4   0  -3    9.89    0.46
   4   0   3    9.68    0.45
  -4   0  -3    9.02    0.54
  -5   0  -3    3.15    0.29
   5   0   3    3.05    0.37
  -5   0  -3    3.39    0.36
   5   0   3    3.48    0.34
   5   0   3    3.24    0.32
  -5   0  -3    3.38    0.31
   6   0   3    1.62    0.31
   6   0   3    1.29    0.30
  -6   0  -3    0.99    0.26
   6   0   3    0.65    0.29
  -6   0  -3    1.18    0.26
  -6   0  -3    1.73    0.26
   7   0   3    1.86    0.35
  -7   0  -3    1.13    0.37
   7   0   3    1.84    0.34
   7   0   3    2.30    0.39
  -7   0  -3    1.21    0.33
  -7   0  -3    1.87    0.33
  -7   0  -3    2.05    0.33
  -8   0  -3   24.79    1.08
  -8   0  -3   23.14    0.92
   8   0   3   23.50    1.06
  -8   0  -3   22.68    1.07
  -8   0  -3   24.35    0.97
   8   0   3   23.11    1.06
   8   0   3   23.84    0.97
  -9   0  -3    3.85    0.59
   9   0   3    4.40    0.57
  -9   0  -3    3.77    0.50
   9   0   3    4.01    0.54
   9   0   3    3.83    0.60
  -9   0  -3    3.93    0.53
  -9   0  -3    2.76    0.46
 -10   0  -3    7.51    0.71
 -10   0  -3    7.63    0.84
 -10   0  -3    7.02    0.70
  10   0   3    7.58    0.85
  10   0   3    7.92    0.76
 -10   0  -3    7.40    0.72
  10   0   3    8.01    0.74
  12  -1  -3    1.94    0.59
 -12  -1   3    2.06    0.74
  12  -1  -3    2.06    0.73
 -12  -1   3    3.70    0.78
 -12  -1   3    1.56    0.65
  12  -1  -3    0.16    0.70
 -12  -1   3    3.94    0.59
  12   1  -3    2.42    0.68
  12   1  -3    2.68    0.76
 -12   1   3    2.84    0.83
  12   1  -3    3.18    0.80
 -12   1   3    2.97    0.60
 -12   1   3    3.07    0.79
 -12   1   3    3.50    0.67
 -11  -1   3    0.03    0.53
 -11  -1   3    0.72    0.44
  11  -1  -3    0.28    0.51
  11  -1  -3    1.21    0.46
 -11  -1   3    0.74    0.45
  11  -1  -3    0.73    0.60
 -11  -1   3    0.58    0.58
  11   1  -3    0.69    0.45
  11   1  -3    1.02    0.51
 -11   1   3   -0.58    0.56
 -11   1   3   -0.57    0.44
  11   1  -3   -0.02    0.61
 -11   1   3    0.52    0.41
 -11   1   3    0.19    0.59
 -10  -1   3    0.97    0.35
 -10  -1   3   -0.18    0.43
 -10  -1   3   -0.05    0.31
  10  -1  -3    0.20    0.43
  10  -1  -3   -0.29    0.34
  10  -1  -3    0.64    0.48
 -10  -1   3    0.07    0.41
 -10   1   3    0.27    0.46
  10   1  -3    0.06    0.41
 -10   1   3    0.27    0.32
 -10   1   3    0.51    0.31
 -10   1   3    0.21    0.45
  10   1  -3    0.23    0.38
  10   1  -3    0.31    0.42
   9  -1  -3    9.19    0.66
  -9  -1   3    8.16    0.62
   9  -1  -3    7.91    0.74
  -9  -1   3    7.42    0.73
   9  -1  -3    9.16    0.77
  -9  -1   3    8.75    0.61
  -9  -1   3    8.57    0.70
   9   1  -3    8.44    0.74
  -9   1   3    8.70    0.75
   9   1  -3    8.02    0.73
  -9   1   3    7.11    0.58
   9   1  -3    9.26    0.65
  -9   1   3    7.28    0.75
  -9   1   3    8.10    0.62
   8  -1  -3   30.37    1.11
   8  -1  -3   31.63    1.09
  -8  -1   3   30.22    1.04
  -8  -1   3   30.28    1.14
  -8  -1   3   30.60    1.11
  -8  -1   3   31.33    1.05
  -8   1   3   30.17    1.04
   8   1  -3   31.25    1.10
   8   1  -3   30.48    1.13
   8   1  -3   32.12    1.17
  -8   1   3   32.01    1.14
  -8   1   3   30.66    1.05
  -8   1   3   31.36    1.22
   8   1  -3   31.47    1.07
   7  -1  -3   68.47    1.92
  -7  -1   3   63.36    1.67
   7  -1  -3   65.62    1.76
  -7  -1   3   64.54    1.70
  -7  -1   3   66.20    1.84
   7  -1  -3   67.76    1.73
  -7  -1   3   64.25    1.73
   7   1  -3   66.01    1.83
  -7   1   3   65.24    1.90
   7   1  -3   65.48    1.71
  -7   1   3   68.35    1.70
   7   1  -3   64.17    1.81
  -7   1   3   65.91    1.76
   7   1  -3   68.71    1.75
  -7   1   3   63.74    1.68
  -6  -1   3   68.22    1.69
   6  -1  -3   68.62    1.87
  -6  -1   3   66.95    1.81
  -6  -1   3   64.84    1.64
   6  -1  -3   69.52    1.69
   6  -1  -3   65.68    1.71
  -6  -1   3   67.46    1.68
  -6   1   3   68.39    1.65
   6   1  -3   64.02    1.67
   6   1  -3   70.39    1.81
  -6   1   3   68.09    1.87
  -6   1   3   67.08    1.71
   6   1  -3   67.35    1.64
   6   1  -3   65.49    1.80
   6   1  -3   66.35    1.67
  -6   1   3   66.54    1.66
  -5  -1   3   79.11    1.85
   5  -1  -3   77.48    2.07
   5  -1  -3   80.09    1.86
  -5  -1   3   80.03    1.82
   5  -1  -3   78.47    1.87
  -5  -1   3   81.26    2.02
  -5  -1   3   78.81    1.86
  -5   1   3   79.16    1.82
   5   1  -3   80.03    1.82
  -5   1   3   76.69    1.83
   5   1  -3   79.32    2.02
  -5   1   3   80.28    1.88
   5   1  -3   78.54    1.85
  -5   1   3   78.63    2.07
   5   1  -3   78.88    1.96
   5   1  -3   78.30    1.84
   4  -1  -3  142.24    3.00
  -4  -1   3  146.33    2.98
  -4  -1   3  140.84    3.32
   4  -1  -3  143.30    3.06
   4  -1  -3  138.17    3.37
  -4  -1   3  138.25    2.98
  -4  -1   3  145.65    3.04
   4   1  -3  140.41    2.99
  -4   1   3  136.71    3.37
  -4   1   3  142.32    2.99
   4   1  -3  148.80    3.03
   4   1  -3  138.49    3.31
   4   1  -3  140.71    3.16
   4   1  -3  145.15    2.97
   3  -1  -3   36.30    0.89
   3  -1  -3   35.53    0.87
  -3  -1   3   35.18    0.99
  -3  -1   3   35.66    0.89
  -3  -1   3   34.94    0.83
  -3  -1   3   35.14    0.87
   3  -1  -3   34.27    1.02
   3   1  -3   34.31    0.96
  -3   1   3   33.42    1.01
   3   1  -3   35.36    0.87
  -3   1   3   36.01    0.88
   3   1  -3   35.14    0.99
  -2  -1   3  228.79    4.51
  -2  -1   3  219.89    4.51
   2  -1  -3  236.37    4.51
   2  -1  -3  218.26    5.12
  -2   1   3  229.78    5.12
   2   1  -3  232.81    4.51
  -2   1   3  232.68    4.50
   2   1  -3  225.49    4.74
   2   1  -3  228.06    5.11
   1  -1  -3  199.99    3.80
  -1  -1   3  193.99    3.85
  -1  -1   3  196.48    3.95
   1  -1  -3  190.06    4.36
   1   1  -3  197.62    3.85
  -1   1   3  194.13    3.79
   1   1  -3  194.84    4.01
  -1   1   3  191.21    4.36
   0  -1  -3   99.66    2.28
   0  -1   3  101.63    2.11
   0  -1   3   98.60    2.01
   0   1  -3   99.94    2.02
   0   1  -3   96.89    2.09
  -1  -1  -3   43.17    1.05
   1  -1   3   44.10    0.97
   1  -1   3   43.88    1.07
  -1  -1  -3   42.68    1.06
  -1  -1  -3   41.89    1.05
   1   1   3   43.18    1.05
  -1   1  -3   44.19    0.96
  -1   1  -3   43.91    1.06
   2  -1   3   28.27    0.70
  -2  -1  -3   27.22    0.80
  -2  -1  -3   27.98    0.77
  -2  -1  -3   27.29    0.63
  -2  -1  -3   27.98    0.62
   2  -1   3   27.40    0.64
   2  -1   3   27.35    0.83
  -2   1  -3   27.75    0.70
   2   1   3   27.26    0.77
   2   1   3   28.55    0.63
  -2   1  -3   27.10    0.81
   3  -1   3  100.27    2.13
  -3  -1  -3   98.95    2.06
  -3  -1  -3   99.54    2.24
  -3  -1  -3   99.98    2.32
   3  -1   3   99.70    2.34
   3  -1   3   98.30    2.11
  -3  -1  -3  105.79    2.06
   3   1   3   97.17    2.29
   3   1   3  102.50    2.07
   3   1   3   99.03    2.24
  -3   1  -3   91.90    2.31
  -3   1  -3  100.44    2.10
   4  -1   3   33.51    0.89
   4  -1   3   34.29    1.06
   4  -1   3   33.70    0.90
  -4  -1  -3   35.20    1.07
  -4  -1  -3   33.20    0.86
  -4  -1  -3   33.48    0.97
  -4  -1  -3   32.73    0.85
   4   1   3   32.09    0.87
   4   1   3   33.58    0.97
  -4   1  -3   32.45    1.06
  -4   1  -3   33.83    0.88
   4   1   3   33.75    1.03
  -5  -1  -3   24.53    0.93
   5  -1   3   24.17    0.89
  -5  -1  -3   23.04    0.73
   5  -1   3   24.35    0.77
  -5  -1  -3   23.91    0.73
  -5  -1  -3   24.80    0.85
   5  -1   3   23.84    0.78
   5   1   3   23.60    0.89
  -5   1  -3   23.34    0.91
   5   1   3   23.29    0.75
   5   1   3   25.26    0.85
  -5   1  -3   24.31    0.76
  -6  -1  -3   25.39    1.00
  -6  -1  -3   25.29    0.95
  -6  -1  -3   26.30    0.90
  -6  -1  -3   25.01    0.82
   6  -1   3   25.82    0.99
   6  -1   3   25.86    0.88
  -6  -1  -3   25.98    0.84
   6  -1   3   25.54    0.88
   6   1   3   23.88    0.96
   6   1   3   25.32    0.94
   6   1   3   24.69    0.84
  -6   1  -3   25.83    1.01
  -6   1  -3   25.25    0.84
  -7  -1  -3    6.21    0.62
   7  -1   3    7.02    0.64
  -7  -1  -3    7.30    0.52
   7  -1   3    6.58    0.61
   7  -1   3    6.31    0.61
  -7  -1  -3    6.77    0.59
  -7  -1  -3    6.44    0.55
  -7   1  -3    6.52    0.55
  -7   1  -3    7.53    0.64
   7   1   3    7.12    0.60
   7   1   3    7.73    0.57
   7   1   3    6.75    0.60
  -8  -1  -3    2.04    0.43
  -8  -1  -3    1.47    0.37
  -8  -1  -3    1.28    0.40
   8  -1   3    0.47    0.36
  -8  -1  -3    1.83    0.37
   8  -1   3    1.93    0.46
   8  -1   3    1.58    0.43
  -8   1  -3    1.49    0.41
  -8   1  -3    1.57    0.46
  -8   1  -3    1.68    0.39
  -8   1  -3    1.70    0.36
   8   1   3    1.08    0.39
   8   1   3    1.38    0.47
   8   1   3    1.29    0.38
   9  -1   3    1.03    0.50
  -9  -1  -3    0.48    0.47
   9  -1   3   -0.07    0.45
  -9  -1  -3    0.51    0.39
  -9  -1  -3    0.98    0.43
   9  -1   3    1.10    0.45
  -9  -1  -3    1.42    0.47
  -9   1  -3    1.08    0.51
   9   1   3    1.51    0.48
  -9   1  -3    0.48    0.42
  -9   1  -3    1.42    0.52
   9   1   3    0.74    0.56
   9   1   3    1.19    0.42
  -9   1  -3    1.03    0.44
  10  -1   3    0.12    0.62
  10  -1   3    0.92    0.56
 -10  -1  -3    1.71    0.53
  10  -1   3   -0.20    0.52
 -10  -1  -3    1.17    0.55
 -10  -1  -3    1.26    0.58
 -10  -1  -3    1.30    0.57
 -10   1  -3    1.92    0.58
 -10   1  -3   -0.11    0.66
  10   1   3    0.92    0.59
 -10   1  -3    1.12    0.55
  10   1   3    1.32    0.70
 -10   1  -3    0.73    0.59
  10   1   3   -0.21    0.54
  11  -2  -3   11.50    0.94
  11  -2  -3   10.75    1.11
 -11  -2   3   12.42    1.13
  11  -2  -3   12.39    1.04
 -11  -2   3   12.55    1.02
 -11  -2   3   11.52    0.96
 -11  -2   3   12.55    1.11
 -11   2   3   11.23    0.90
 -11   2   3   12.10    1.28
 -11   2   3   14.17    0.95
  11   2  -3   12.09    0.97
 -10  -2   3   32.34    1.32
  10  -2  -3   29.53    1.21
 -10  -2   3   31.15    1.22
 -10  -2   3   30.03    1.21
  10  -2  -3   31.27    1.36
 -10  -2   3   31.58    1.32
 -10   2   3   30.79    1.17
  10   2  -3   30.04    1.32
 -10   2   3   31.71    1.20
 -10   2   3   30.32    1.43
 -10   2   3   30.75    1.38
  -9  -2   3    4.70    0.51
   9  -2  -3    4.49    0.57
   9  -2  -3    4.48    0.51
  -9  -2   3    4.72    0.50
  -9  -2   3    4.58    0.53
  -9  -2   3    4.13    0.55
  -9   2   3    4.81    0.49
  -9   2   3    3.67    0.43
   9   2  -3    4.51    0.49
   9   2  -3    4.05    0.52
  -9   2   3    3.25    0.49
  -8  -2   3    3.19    0.36
   8  -2  -3    3.53    0.41
  -8  -2   3    3.36    0.44
  -8  -2   3    4.41    0.47
   8  -2  -3    3.91    0.50
  -8  -2   3    4.28    0.42
   8   2  -3    4.83    0.52
  -8   2   3    3.40    0.49
   8   2  -3    4.20    0.47
  -8   2   3    3.42    0.34
  -7  -2   3    6.41    0.55
  -7  -2   3    6.00    0.47
  -7  -2   3    6.31    0.55
   7  -2  -3    5.91    0.48
  -7  -2   3    5.29    0.45
   7  -2  -3    5.72    0.57
  -7   2   3    5.63    0.45
  -7   2   3    5.28    0.59
   7   2  -3    5.84    0.41
   7   2  -3    6.10    0.55
   7   2  -3    6.17    0.58
   6  -2  -3    3.73    0.39
   6  -2  -3    4.98    0.46
  -6  -2   3    4.34    0.41
  -6  -2   3    4.72    0.43
  -6  -2   3    4.59    0.39
  -6  -2   3    3.38    0.35
   6   2  -3    3.57    0.32
   6   2  -3    4.24    0.45
   6   2  -3    3.61    0.37
  -6   2   3    3.43    0.38
  -6   2   3    4.40    0.37
  -5  -2   3   18.05    0.64
   5  -2  -3   19.00    0.68
   5  -2  -3   17.64    0.78
  -5  -2   3   18.48    0.65
  -5  -2   3   18.97    0.66
   5  -2  -3   17.25    0.68
  -5  -2   3   17.86    0.69
   5   2  -3   17.87    0.72
  -5   2   3   19.24    0.79
   5   2  -3   17.35    0.67
   5   2  -3   17.37    0.61
  -5   2   3   18.67    0.66
   4  -2  -3  243.25    5.27
  -4  -2   3  254.86    5.07
  -4  -2   3  255.36    5.65
  -4  -2   3  254.90    5.22
  -4  -2   3  240.38    5.07
   4  -2  -3  251.18    5.06
   4  -2  -3  241.04    5.76
  -4   2   3  249.00    5.76
  -4   2   3  253.18    5.06
   4   2  -3  249.34    5.34
   4   2  -3  256.33    5.06
   4   2  -3  257.97    5.66
  -3  -2   3   42.24    1.10
   3  -2  -3   41.13    1.20
   3  -2  -3   41.37    1.01
  -3  -2   3   41.52    1.02
  -3   2   3   40.45    1.00
  -3   2   3   41.25    1.20
   3   2  -3   41.74    1.13
   3   2  -3   40.27    1.01
   3   2  -3   41.20    1.09
   2  -2  -3   11.27    0.50
   2  -2  -3   10.71    0.39
  -2  -2   3   11.78    0.44
  -2  -2   3   11.49    0.42
   2   2  -3   11.05    0.41
   2   2  -3   11.22    0.44
  -2   2   3   10.84    0.37
  -2   2   3   11.29    0.49
  -1  -2   3    0.07    0.12
  -1  -2   3    0.05    0.13
   1  -2  -3    0.09    0.10
   1  -2  -3    0.20    0.15
   1   2  -3    0.08    0.12
  -1   2   3    0.14    0.14
  -1   2   3    0.05    0.09
   1   2  -3    0.01    0.12
   0  -2   3   27.23    0.64
   0  -2   3   28.03    0.74
   0  -2  -3   27.20    0.75
   0  -2  -3   27.30    0.62
   0  -2   3   26.47    0.71
   0  -2  -3   27.22    0.79
   0   2  -3   27.21    0.71
   0   2   3   26.60    0.62
   0   2  -3   27.37    0.63
   0   2   3   27.29    0.74
  -1  -2  -3  136.58    3.14
  -1  -2  -3  151.31    2.86
   1  -2   3  142.47    2.97
   1  -2   3  146.11    3.12
  -1  -2  -3  148.92    3.24
   1   2   3  146.18    2.85
  -1   2  -3  142.51    2.96
  -2  -2  -3   31.70    0.93
  -2  -2  -3   32.89    0.75
  -2  -2  -3   32.73    0.76
  -2  -2  -3   32.58    0.94
  -2  -2  -3   33.35    0.81
   2  -2   3   32.37    0.85
   2  -2   3   33.63    0.95
   2   2   3   32.68    0.93
  -2   2  -3   31.60    0.93
   2   2   3   33.12    0.75
  -2   2  -3   32.74    0.85
  -3  -2  -3  102.20    2.14
  -3  -2  -3  101.90    2.36
   3  -2   3  100.61    2.17
   3  -2   3  100.89    2.21
   3  -2   3  103.37    2.41
  -3  -2  -3  102.06    2.10
  -3  -2  -3  102.51    2.39
  -3   2  -3  101.38    2.39
   3   2   3  101.38    2.36
  -3   2  -3  101.70    2.21
   3   2   3  104.47    2.12
   4  -2   3   38.05    1.03
   4  -2   3   37.58    0.96
  -4  -2  -3   37.03    1.13
   4  -2   3   38.04    1.18
  -4  -2  -3   37.46    0.97
  -4  -2  -3   38.94    0.94
  -4  -2  -3   38.42    1.13
   4   2   3   36.51    1.11
  -4   2  -3   37.28    1.01
  -4   2  -3   39.83    1.18
   5  -2   3   12.76    0.60
  -5  -2  -3   13.82    0.53
  -5  -2  -3   12.48    0.65
   5  -2   3   13.48    0.70
  -5  -2  -3   14.15    0.67
  -5  -2  -3   13.30    0.55
   5  -2   3   12.80    0.56
  -5  -2  -3   13.16    0.49
  -5   2  -3   13.02    0.58
   5   2   3   13.05    0.68
  -5   2  -3   12.75    0.69
  -6  -2  -3    0.07    0.27
   6  -2   3    0.53    0.28
  -6  -2  -3    0.40    0.22
  -6  -2  -3    0.32    0.21
   6  -2   3    0.87    0.28
  -6  -2  -3    0.43    0.30
   6  -2   3    0.22    0.26
  -6  -2  -3    0.12    0.20
  -6   2  -3    0.00    0.21
  -6   2  -3    0.14    0.28
   6   2   3   -0.08    0.32
  -7  -2  -3    2.80    0.36
  -7  -2  -3    2.85    0.47
  -7  -2  -3    1.86    0.34
   7  -2   3    2.51    0.38
  -7  -2  -3    1.96    0.32
   7  -2   3    2.63    0.43
   7  -2   3    2.21    0.39
  -7  -2  -3    2.31    0.46
  -7   2  -3    2.18    0.40
   7   2   3    2.35    0.46
  -7   2  -3    2.21    0.36
   8  -2   3   27.38    1.15
  -8  -2  -3   27.66    1.02
  -8  -2  -3   27.91    1.21
  -8  -2  -3   27.54    1.03
   8  -2   3   27.37    1.09
   8  -2   3   29.09    1.20
  -8  -2  -3   28.93    1.02
   8   2   3   28.04    1.26
  -8   2  -3   29.82    1.24
  -8   2  -3   28.97    1.07
  -9  -2  -3    7.86    0.64
  -9  -2  -3    7.23    0.64
   9  -2   3    7.89    0.73
   9  -2   3    7.66    0.75
  -9  -2  -3    7.81    0.74
   9  -2   3    7.19    0.68
  -9  -2  -3    6.41    0.74
  -9   2  -3    8.41    0.83
  -9   2  -3    7.94    0.77
   9   2   3    8.85    0.85
  -9   2  -3    7.83    0.82
  10  -2   3    8.83    0.80
 -10  -2  -3   11.27    0.96
  10  -2   3   11.19    0.93
  10  -2   3   10.65    0.92
 -10  -2  -3    9.80    0.86
 -10  -2  -3   10.67    0.95
 -10  -2  -3   10.66    1.03
 -10   2  -3   11.76    1.11
  10   2   3   11.21    1.04
 -10   2  -3   12.45    1.09
 -10   2  -3   11.30    0.90
 -10   2  -3   11.75    1.06
 -11  -3   3    1.65    0.68
  11  -3  -3    1.35    0.59
 -11  -3   3   -0.47    0.56
  11  -3  -3    0.53    0.67
 -11  -3   3    1.26    0.59
 -11  -3   3   -0.83    0.54
  11   3  -3    1.10    0.70
 -11   3   3    0.83    0.48
 -11   3   3   -0.66    0.51
 -11   3   3   -0.29    0.70
  10  -3  -3    0.86    0.49
 -10  -3   3    0.61    0.45
 -10  -3   3    0.00    0.44
 -10  -3   3   -0.30    0.41
  10  -3  -3    0.90    0.55
 -10  -3   3    0.37    0.55
  10   3  -3    0.79    0.52
 -10   3   3   -0.51    0.52
 -10   3   3    0.40    0.40
 -10   3   3    0.19    0.39
   9  -3  -3    3.33    0.53
  -9  -3   3    2.31    0.46
  -9  -3   3    2.26    0.45
   9  -3  -3    2.84    0.49
  -9  -3   3    3.03    0.53
  -9  -3   3    3.41    0.44
  -9   3   3    3.51    0.58
   9   3  -3    3.27    0.51
   9   3  -3    2.97    0.51
   9   3  -3    3.52    0.42
  -9   3   3    2.23    0.37
  -8  -3   3   20.49    0.89
   8  -3  -3   18.41    0.87
  -8  -3   3   19.48    0.87
   8  -3  -3   19.23    0.99
  -8  -3   3   19.07    0.85
  -8  -3   3   20.63    0.97
   8   3  -3   19.01    0.81
   8   3  -3   20.32    0.92
  -8   3   3   20.38    0.85
   8   3  -3   19.00    0.98
  -8   3   3   17.89    0.99
  -7  -3   3   37.80    1.18
  -7  -3   3   40.03    1.23
   7  -3  -3   39.20    1.30
  -7  -3   3   38.08    1.23
   7  -3  -3   37.65    1.21
  -7  -3   3   39.77    1.20
   7   3  -3   38.28    1.23
   7   3  -3   39.88    1.32
  -7   3   3   39.60    1.20
  -7   3   3   37.85    1.39
   7   3  -3   39.80    1.16
   6  -3  -3   36.35    1.16
  -6  -3   3   37.63    1.11
  -6  -3   3   36.31    1.08
   6  -3  -3   35.40    1.09
  -6  -3   3   35.16    1.09
  -6   3   3   37.08    1.09
  -6   3   3   36.23    1.28
   6   3  -3   35.69    1.19
   6   3  -3   34.91    1.10
   6   3  -3   36.57    1.05
  -5  -3   3   48.53    1.40
   5  -3  -3   50.33    1.38
  -5  -3   3   47.61    1.30
  -5  -3   3   49.38    1.31
   5  -3  -3   49.39    1.30
  -5  -3   3   48.58    1.28
  -5   3   3   48.35    1.29
   5   3  -3   48.14    1.35
   5   3  -3   50.09    1.28
  -5   3   3   49.65    1.51
   5   3  -3   50.65    1.41
  -4  -3   3   36.16    1.02
  -4  -3   3   36.87    1.09
  -4  -3   3   36.80    1.00
   4  -3  -3   35.64    1.00
   4   3  -3   35.91    0.99
  -4   3   3   35.27    0.98
   4   3  -3   36.21    1.07
  -4   3   3   35.74    1.18
   4   3  -3   35.58    1.05
  -3  -3   3   16.49    0.63
   3  -3  -3   15.76    0.57
  -3  -3   3   15.17    0.56
  -3   3   3   17.18    0.75
   3   3  -3   15.27    0.56
   3   3  -3   16.34    0.62
   3   3  -3   15.92    0.61
  -3   3   3   16.17    0.55
   2  -3  -3   96.97    2.38
  -2  -3   3   94.51    2.10
   2  -3  -3   96.36    2.06
  -2  -3   3   94.78    2.17
  -2   3   3   97.80    2.38
   2   3  -3   96.39    2.10
  -2   3   3   96.21    2.06
   2   3  -3   94.55    2.16
  -1  -3   3  105.72    2.37
   1  -3  -3  110.00    2.27
  -1  -3   3  105.61    2.34
   1  -3  -3  109.51    2.59
   1   3  -3  106.61    2.33
   1   3  -3  110.93    2.38
  -1   3   3  113.42    2.61
  -1   3   3  109.42    2.27
   0  -3  -3   61.02    1.53
   0  -3   3   63.13    1.46
   0  -3  -3   62.34    1.56
   0  -3  -3   62.06    1.36
   0  -3   3   62.29    1.41
   0   3   3   63.08    1.52
   0   3  -3   61.96    1.45
   0   3   3   62.85    1.36
   1  -3   3   30.63    0.85
  -1  -3  -3   29.09    0.91
  -1  -3  -3   29.57    0.78
   1  -3   3   29.29    0.74
   1  -3   3   30.82    0.89
  -1  -3  -3   29.80    0.74
   1   3   3   29.93    0.76
  -1   3  -3   30.71    0.84
   1   3   3   30.05    0.74
   2  -3   3    4.31    0.25
   2  -3   3    4.41    0.36
  -2  -3  -3    4.49    0.27
  -2  -3  -3    4.22    0.39
   2  -3   3    4.18    0.40
   2   3   3    5.01    0.41
  -2   3  -3    4.33    0.34
   2   3   3    4.27    0.26
  -3  -3  -3   35.96    0.92
  -3  -3  -3   37.06    0.91
  -3  -3  -3   35.38    1.11
   3  -3   3   37.01    1.03
  -3  -3  -3   36.31    1.10
   3  -3   3   38.26    1.14
   3   3   3   36.94    0.90
  -3   3  -3   36.97    1.02
   3   3   3   37.57    1.12
  -4  -3  -3   22.29    0.66
   4  -3   3   22.21    0.77
  -4  -3  -3   20.37    0.82
   4  -3   3   20.87    0.85
  -4  -3  -3   22.50    0.86
  -4  -3  -3   22.26    0.69
   4   3   3   22.24    0.66
   4   3   3   21.79    0.84
  -4   3  -3   21.19    0.75
  -5  -3  -3   18.93    0.85
  -5  -3  -3   20.02    0.84
  -5  -3  -3   20.23    0.67
   5  -3   3   20.70    0.82
   5  -3   3   19.83    0.89
  -5  -3  -3   21.04    0.74
  -5   3  -3   20.01    0.77
   5   3   3   20.83    0.70
   5   3   3   21.09    0.89
  -6  -3  -3   19.86    0.91
   6  -3   3   20.31    0.79
   6  -3   3   18.11    0.94
  -6  -3  -3   20.45    0.78
   6  -3   3   20.84    0.86
  -6  -3  -3   20.49    0.74
  -6  -3  -3   20.34    0.96
  -6   3  -3   19.99    0.96
  -6   3  -3   20.69    0.81
   6   3   3   21.29    0.96
   7  -3   3    7.84    0.65
   7  -3   3    7.83    0.73
  -7  -3  -3    7.28    0.62
   7  -3   3    9.35    0.80
  -7  -3  -3    8.42    0.61
  -7  -3  -3    8.67    0.85
  -7  -3  -3    8.80    0.71
  -7   3  -3    7.55    0.78
  -7   3  -3    7.53    0.65
   7   3   3    9.13    0.85
  -8  -3  -3    2.07    0.43
   8  -3   3    1.93    0.46
  -8  -3  -3    1.36    0.51
   8  -3   3    1.14    0.44
   8  -3   3    1.32    0.49
  -8  -3  -3    1.59    0.40
  -8  -3  -3    0.91    0.48
   8   3   3    1.26    0.55
  -8   3  -3    0.79    0.52
  -8   3  -3    1.28    0.41
  -9  -3  -3    0.31    0.30
   9  -3   3   -0.06    0.55
  -9  -3  -3    0.17    0.57
  -9  -3  -3    0.50    0.46
  -9  -3  -3    0.14    0.44
   9  -3   3    0.63    0.57
   9  -3   3    0.80    0.54
   9   3   3    0.67    0.69
  -9   3  -3    0.94    0.51
  -9   3  -3    0.60    0.64
  -9   3  -3    0.94    0.63
  10  -3   3    0.28    0.68
  10   3   3    0.73    0.82
 -11  -4   3    6.76    0.83
  11  -4  -3    7.88    0.85
 -11  -4   3    7.17    0.86
  11  -4  -3    6.95    0.96
 -11  -4   3    7.65    1.01
 -11   4   3    7.28    0.99
  11   4  -3    8.27    0.86
 -11   4   3   11.94    1.18
  10  -4  -3   15.30    1.07
  10  -4  -3   17.72    1.34
 -10  -4   3   13.93    1.32
 -10  -4   3   13.41    1.06
 -10  -4   3   14.21    1.12
 -10   4   3   17.05    1.01
 -10   4   3   14.91    1.19
  10   4  -3   16.28    1.01
  10   4  -3   16.01    1.19
   9  -4  -3    0.64    0.52
  -9  -4   3    0.25    0.37
  -9  -4   3    0.83    0.42
  -9  -4   3    1.27    0.52
   9  -4  -3    0.19    0.43
  -9   4   3    0.18    0.43
   9   4  -3    0.40    0.40
   9   4  -3    0.30    0.40
  -9   4   3    1.39    0.44
   9   4  -3    0.52    0.50
   8  -4  -3    0.23    0.37
  -8  -4   3    0.44    0.40
   8  -4  -3    0.49    0.45
  -8  -4   3    0.73    0.34
  -8  -4   3    0.14    0.32
   8   4  -3    0.74    0.39
  -8   4   3   -0.27    0.41
  -8   4   3    0.66    0.33
   8   4  -3    0.31    0.31
   8   4  -3    0.66    0.42
  -7  -4   3    9.20    0.63
  -7  -4   3    8.50    0.63
  -7  -4   3    8.76    0.73
  -7  -4   3    9.28    0.70
   7  -4  -3    8.14    0.77
   7  -4  -3    8.78    0.66
  -7   4   3    8.48    0.61
   7   4  -3    9.43    0.75
   7   4  -3    8.95    0.57
   7   4  -3    9.60    0.64
  -7   4   3    8.10    0.72
  -6  -4   3    7.19    0.58
  -6  -4   3    8.06    0.65
   6  -4  -3    7.36    0.59
  -6  -4   3    7.01    0.52
  -6  -4   3    6.52    0.50
   6  -4  -3    8.32    0.68
   6   4  -3    6.71    0.48
   6   4  -3    8.17    0.66
   6   4  -3    7.42    0.52
  -6   4   3    7.60    0.54
  -6   4   3    7.09    0.66
   5  -4  -3   12.84    0.71
  -5  -4   3   12.96    0.64
  -5  -4   3   12.23    0.59
  -5  -4   3   12.75    0.59
  -5  -4   3   13.13    0.73
   5  -4  -3   12.06    0.63
  -5   4   3   12.25    0.58
   5   4  -3   12.77    0.56
   5   4  -3   12.31    0.60
   5   4  -3   12.18    0.70
  -5   4   3   11.72    0.73
  -4  -4   3   62.95    1.68
  -4  -4   3   61.99    1.57
   4  -4  -3   64.01    1.59
   4   4  -3   60.90    1.65
   4   4  -3   63.13    1.66
  -4   4   3   63.64    1.84
  -4   4   3   61.99    1.55
   4   4  -3   64.66    1.57
  -3  -4   3    3.08    0.35
   3  -4  -3    2.85    0.29
  -3  -4   3    2.13    0.26
   3   4  -3    2.72    0.31
  -3   4   3    2.78    0.35
   3   4  -3    2.39    0.24
  -3   4   3    2.74    0.28
  -2  -4   3    2.19    0.28
   2  -4  -3    1.83    0.25
  -2  -4   3    1.88    0.27
  -2   4   3    2.14    0.25
   2   4  -3    1.96    0.28
   2   4  -3    1.67    0.22
  -2   4   3    1.53    0.28
   1  -4  -3   11.61    0.56
  -1  -4   3   10.72    0.50
  -1  -4   3   11.64    0.51
   1  -4  -3   11.47    0.49
  -1   4   3   10.99    0.47
  -1   4   3   10.99    0.55
   1   4  -3   11.27    0.50
   1   4  -3   12.44    0.50
   0  -4  -3   21.06    0.67
   0  -4  -3   21.84    0.80
   0  -4   3   22.00    0.69
   0  -4   3   22.89    0.75
   0   4   3   21.91    0.72
   0   4  -3   21.87    0.72
   0   4   3   22.84    0.66
   1  -4   3   38.61    0.98
  -1  -4  -3   36.77    1.14
  -1  -4  -3   37.65    0.97
   1  -4   3   38.85    1.06
   1   4   3   37.60    0.96
   1   4   3   37.68    0.97
  -1   4  -3   38.29    1.05
   2  -4   3    9.10    0.56
   2  -4   3    9.41    0.50
  -2  -4  -3    9.16    0.54
  -2  -4  -3    9.05    0.43
   2  -4   3    8.71    0.40
   2   4   3    9.14    0.56
   2   4   3    9.34    0.41
  -2   4  -3    9.31    0.49
   3  -4   3   20.06    0.74
   3  -4   3   19.52    0.81
  -3  -4  -3   19.41    0.65
  -3  -4  -3   19.16    0.80
   3  -4   3   18.77    0.60
  -3  -4  -3   18.90    0.63
   3   4   3   18.55    0.61
   3   4   3   18.86    0.81
  -3   4  -3   19.14    0.72
   4  -4   3    3.33    0.44
  -4  -4  -3    3.14    0.30
   4  -4   3    3.68    0.41
  -4  -4  -3    3.16    0.36
  -4  -4  -3    3.44    0.33
  -4  -4  -3    3.16    0.40
   4   4   3    2.80    0.39
   4   4   3    3.23    0.29
  -4   4  -3    3.50    0.37
  -5  -4  -3    1.63    0.34
  -5  -4  -3    1.01    0.26
  -5  -4  -3    1.07    0.28
  -5  -4  -3    1.63    0.29
   5  -4   3    1.37    0.35
   5  -4   3    1.17    0.35
   5   4   3    1.14    0.26
  -5   4  -3    1.08    0.29
   5   4   3    1.13    0.33
  -6  -4  -3    1.29    0.32
  -6  -4  -3    1.51    0.42
  -6  -4  -3    1.38    0.32
  -6  -4  -3    0.89    0.32
   6  -4   3    0.95    0.39
   6  -4   3    0.70    0.36
   6   4   3    0.93    0.30
  -6   4  -3    1.34    0.35
   6   4   3    1.04    0.39
  -7  -4  -3   -0.33    0.41
  -7  -4  -3    0.23    0.35
   7  -4   3    0.02    0.44
  -7  -4  -3    0.37    0.37
  -7  -4  -3    0.79    0.47
   7  -4   3    0.38    0.37
   7  -4   3   -0.01    0.40
   7   4   3    0.44    0.48
  -7   4  -3    0.26    0.37
  -8  -4  -3    8.22    0.79
   8  -4   3   10.06    1.02
  -8  -4  -3    9.20    0.88
   8  -4   3    9.22    0.95
   8  -4   3    9.06    0.90
  -8  -4  -3    7.66    0.80
  -8  -4  -3    9.37    0.80
   8   4   3   11.07    1.12
  -8   4  -3    9.76    0.88
  -9  -4  -3    1.33    0.65
   9  -4   3    1.32    0.61
  -9  -4  -3    1.50    0.54
   9  -4   3    0.43    0.61
  -9  -4  -3    1.68    0.79
  -9  -4  -3    1.84    0.59
   9  -4   3    1.54    0.65
  -9   4  -3    1.99    0.73
  -9   4  -3    2.01    0.61
   9   4   3    1.34    0.75
 -10  -5   3   -0.25    0.71
 -10  -5   3    0.88    0.66
  10  -5  -3   -0.55    0.77
  10  -5  -3    0.45    0.66
 -10  -5   3   -1.08    0.60
 -10   5   3    0.31    0.63
  10   5  -3    0.34    0.54
 -10   5   3   -0.06    0.65
  10   5  -3    0.40    0.71
  -9  -5   3    2.07    0.56
   9  -5  -3    1.85    0.53
  -9  -5   3    2.79    0.58
  -9  -5   3    2.77    0.68
   9  -5  -3    1.70    0.66
   9   5  -3    2.61    0.61
  -9   5   3    1.10    0.57
   9   5  -3    2.74    0.49
  -9   5   3    2.58    0.51
   9   5  -3    2.27    0.49
  -8  -5   3   11.56    0.86
  -8  -5   3   11.73    0.96
   8  -5  -3   10.91    1.04
  -8  -5   3   12.18    1.01
  -8  -5   3   10.71    0.86
   8  -5  -3   10.81    0.84
   8   5  -3   10.38    0.75
   8   5  -3   11.44    0.98
  -8   5   3   12.91    0.83
  -8   5   3   10.69    0.96
   8   5  -3   11.08    0.76
  -7  -5   3   11.97    0.84
   7  -5  -3   11.28    0.92
  -7  -5   3   11.49    0.76
  -7  -5   3   12.26    0.77
  -7  -5   3   11.37    0.90
   7  -5  -3   12.14    0.80
   7   5  -3   11.69    0.91
  -7   5   3   11.83    0.94
   7   5  -3   12.62    0.72
  -7   5   3   12.45    0.76
   7   5  -3   13.47    0.75
   6  -5  -3    3.15    0.48
  -6  -5   3    3.68    0.40
   6  -5  -3    5.06    0.53
  -6  -5   3    5.25    0.54
  -6  -5   3    3.91    0.41
  -6  -5   3    4.46    0.52
  -6   5   3    4.13    0.58
   6   5  -3    3.83    0.50
   6   5  -3    4.44    0.43
  -6   5   3    3.89    0.45
   6   5  -3    4.26    0.41
  -5  -5   3    6.60    0.51
  -5  -5   3    7.84    0.69
   5  -5  -3    6.16    0.60
   5  -5  -3    7.51    0.70
  -5   5   3    6.03    0.68
   5   5  -3    5.75    0.51
  -5   5   3    6.91    0.55
   5   5  -3    6.90    0.69
   5   5  -3    6.97    0.49
   4  -5  -3   15.93    0.75
  -4  -5   3   15.67    0.69
  -4  -5   3   16.30    0.81
   4   5  -3   15.99    0.72
   4   5  -3   16.70    0.67
  -4   5   3   15.56    0.68
   4   5  -3   16.43    0.80
  -4   5   3   16.27    0.91
  -3  -5   3    8.55    0.61
   3  -5  -3    8.93    0.57
  -3  -5   3    9.11    0.53
  -3   5   3    9.97    0.56
   3   5  -3    8.42    0.48
   3   5  -3    9.17    0.61
  -3   5   3    9.31    0.67
  -2  -5   3   26.37    0.93
  -2  -5   3   26.37    0.90
   2  -5  -3   27.56    0.97
   2  -5  -3   27.35    0.88
  -2   5   3   26.25    1.00
   2   5  -3   26.49    0.87
  -2   5   3   27.50    0.88
   2   5  -3   28.40    0.95
   1  -5  -3   23.19    0.80
   1  -5  -3   23.68    0.87
  -1  -5   3   22.98    0.82
  -1  -5   3   22.84    0.82
   1   5  -3   22.67    0.79
  -1   5   3   22.34    0.87
   1   5  -3   22.66    0.81
  -1   5   3   23.14    0.77
   0  -5   3    8.84    0.50
   0  -5   3   10.08    0.54
   0  -5  -3    9.45    0.50
   0  -5  -3    8.97    0.55
   0   5   3    8.08    0.52
   0   5   3    8.77    0.47
   0   5  -3    8.96    0.49
  -1  -5  -3    2.18    0.30
   1  -5   3    2.21    0.29
  -1  -5  -3    1.66    0.29
   1  -5   3    1.77    0.27
   1   5   3    2.32    0.23
  -1   5  -3    2.66    0.30
   1   5   3    2.29    0.28
   2  -5   3    2.40    0.30
  -2  -5  -3    3.05    0.34
  -2  -5  -3    2.87    0.40
   2  -5   3    2.62    0.41
   2  -5   3    1.82    0.30
   2   5   3    2.53    0.29
  -2   5  -3    2.40    0.28
  -3  -5  -3   10.81    0.58
   3  -5   3   10.34    0.64
  -3  -5  -3   11.20    0.67
   3  -5   3   10.73    0.73
   3  -5   3   10.08    0.52
   3   5   3   10.03    0.66
   3   5   3   10.43    0.53
  -3   5  -3   12.07    0.61
  -4  -5  -3    7.00    0.60
  -4  -5  -3    5.94    0.51
   4  -5   3    6.72    0.69
  -4  -5  -3    5.82    0.62
   4  -5   3    6.63    0.60
  -4  -5  -3    5.65    0.51
   4  -5   3    5.46    0.48
  -4   5  -3    5.57    0.50
   4   5   3    5.33    0.56
   4   5   3    6.16    0.46
  -5  -5  -3    4.26    0.42
   5  -5   3    4.52    0.53
  -5  -5  -3    4.19    0.55
   5  -5   3    3.59    0.45
  -5  -5  -3    4.48    0.46
  -5  -5  -3    4.09    0.43
  -5   5  -3    4.39    0.47
   5   5   3    4.27    0.41
   5   5   3    3.15    0.45
  -6  -5  -3    3.90    0.46
  -6  -5  -3    4.61    0.54
   6  -5   3    3.98    0.58
  -6  -5  -3    4.61    0.61
   6  -5   3    3.97    0.50
  -6  -5  -3    4.48    0.48
   6   5   3    3.71    0.44
  -6   5  -3    4.05    0.50
   6   5   3    2.93    0.52
   7  -5   3    1.97    0.54
  -7  -5  -3   -0.19    0.56
  -7  -5  -3    2.76    0.51
  -7  -5  -3    2.93    0.53
  -7  -5  -3    1.43    0.44
   7  -5   3    1.46    0.61
   7   5   3    1.37    0.58
  -7   5  -3    1.68    0.51
   7   5   3    2.08    0.44
  -8  -5  -3   -0.07    0.48
   8  -5   3    0.52    0.59
   8  -5   3    0.91    0.66
  -8  -5  -3   -0.04    0.73
  -8  -5  -3   -0.35    0.64
  -8  -5  -3   -0.32    0.51
   8  -5   3    0.16    0.54
   8   5   3    1.11    0.68
  -8   5  -3   -1.02    0.57
   9  -6  -3   -0.77    0.64
  -9  -6   3   -0.08    0.63
  -9  -6   3    0.93    0.74
  -9  -6   3    1.08    0.65
   9  -6  -3    0.04    0.79
  -9   6   3   -0.22    0.71
  -9   6   3    0.15    0.67
   9   6  -3    0.03    0.56
   9   6  -3    0.75    0.74
   9   6  -3    0.48    0.45
  -8  -6   3    1.12    0.67
  -8  -6   3    1.04    0.62
  -8  -6   3    1.31    0.57
  -8  -6   3    0.12    0.45
   8  -6  -3   -0.32    0.63
   8  -6  -3    0.37    0.58
   8   6  -3    0.45    0.41
  -8   6   3    1.20    0.53
   8   6  -3    1.43    0.47
   8   6  -3    1.07    0.63
  -8   6   3   -1.00    0.57
  -7  -6   3    0.28    0.39
   7  -6  -3    1.11    0.57
  -7  -6   3    0.44    0.48
   7  -6  -3    0.41    0.47
  -7  -6   3    0.92    0.57
  -7  -6   3   -0.05    0.40
   7   6  -3    1.26    0.37
  -7   6   3   -0.09    0.51
   7   6  -3    1.17    0.54
  -7   6   3    1.04    0.48
   7   6  -3    0.13    0.40
  -6  -6   3    0.04    0.33
  -6  -6   3    1.34    0.40
   6  -6  -3    0.87    0.45
  -6  -6   3    1.37    0.51
  -6  -6   3    0.75    0.46
   6  -6  -3    0.59    0.40
  -6   6   3    0.86    0.40
   6   6  -3    0.85    0.48
   6   6  -3    1.32    0.33
  -6   6   3    0.24    0.44
   6   6  -3    1.33    0.35
  -5  -6   3    4.09    0.56
  -5  -6   3    2.81    0.41
   5  -6  -3    3.46    0.47
   5  -6  -3    3.33    0.54
  -5   6   3    3.32    0.57
   5   6  -3    3.39    0.41
   5   6  -3    3.71    0.52
   5   6  -3    2.78    0.39
  -5   6   3    3.21    0.42
   4  -6  -3   19.18    0.88
  -4  -6   3   21.25    1.01
  -4  -6   3   19.06    0.82
   4   6  -3   18.59    0.95
  -4   6   3   16.26    0.82
   4   6  -3   18.86    0.78
   4   6  -3   18.71    0.84
  -4   6   3   19.79    1.20
   3  -6  -3    4.18    0.46
  -3  -6   3    3.46    0.38
   3  -6  -3    4.24    0.45
  -3  -6   3    4.12    0.50
  -3   6   3    4.04    0.53
   3   6  -3    3.95    0.38
  -3   6   3    3.90    0.40
   3   6  -3    3.90    0.49
   2  -6  -3    0.92    0.33
  -2  -6   3    0.48    0.35
   2  -6  -3    0.86    0.32
  -2  -6   3    1.01    0.30
   2   6  -3    0.70    0.23
   2   6  -3    1.26    0.36
  -2   6   3    0.91    0.27
  -2   6   3    1.31    0.40
  -1  -6   3    0.33    0.28
  -1  -6   3    0.64    0.32
   1  -6  -3    0.05    0.30
   1  -6  -3   -0.08    0.28
  -1   6   3    0.23    0.26
   1   6  -3    0.69    0.26
  -1   6   3    0.94    0.40
   0  -6   3    1.45    0.34
   0  -6   3    1.23    0.27
   0  -6  -3    1.71    0.33
   0  -6  -3    1.91    0.37
   0   6   3    2.03    0.35
   0   6   3    1.73    0.32
   0   6  -3    1.49    0.26
   1  -6   3    9.45    0.60
  -1  -6  -3    9.33    0.68
   1  -6   3    8.87    0.60
  -1  -6  -3    7.94    0.61
   1   6   3    8.44    0.57
   1   6   3    7.87    0.50
  -1   6  -3    8.74    0.56
  -2  -6  -3    6.90    0.61
   2  -6   3    7.90    0.59
  -2  -6  -3    7.10    0.66
   2  -6   3    7.29    0.74
   2  -6   3    7.26    0.60
  -2   6  -3    7.61    0.55
   2   6   3    6.92    0.56
  -3  -6  -3   13.09    0.78
   3  -6   3   14.18    0.91
   3  -6   3   12.97    0.68
  -3  -6  -3   12.79    0.74
   3  -6   3   11.84    0.74
   3   6   3   13.67    0.67
  -3   6  -3   12.64    0.69
   4  -6   3    2.88    0.39
   4  -6   3    2.65    0.47
  -4  -6  -3    3.44    0.43
  -4  -6  -3    3.34    0.52
   4  -6   3    2.06    0.49
  -4  -6  -3    2.31    0.40
  -4   6  -3    2.17    0.42
   4   6   3    2.11    0.44
   4   6   3    2.80    0.37
  -5  -6  -3    1.55    0.43
  -5  -6  -3    1.13    0.40
   5  -6   3    1.25    0.39
  -5  -6  -3    1.23    0.45
  -5  -6  -3    0.99    0.44
   5  -6   3    1.59    0.51
   5  -6   3    1.03    0.40
  -5   6  -3    1.02    0.38
   5   6   3    2.86    0.49
   5   6   3    1.56    0.36
  -6  -6  -3   -0.02    0.53
   6  -6   3    0.15    0.57
   6  -6   3    0.96    0.50
  -6  -6  -3   -0.15    0.40
   6  -6   3    0.28    0.42
  -6  -6  -3   -0.19    0.54
  -6  -6  -3   -0.14    0.41
  -6   6  -3    0.49    0.46
   6   6   3   -0.66    0.54
   6   6   3    0.14    0.38
  -7  -6  -3    0.01    0.49
   7  -6   3   -0.59    0.58
  -7  -6  -3    0.45    0.70
  -7  -6  -3    0.53    0.62
  -7  -6  -3   -0.04    0.50
   7  -6   3    0.93    0.65
  -7   6  -3   -0.81    0.57
   7   6   3   -1.04    0.68
   7   6   3    0.75    0.48
  -7  -7   3    2.02    0.62
   7  -7  -3    4.19    0.69
  -7  -7   3    3.04    0.74
  -7  -7   3    3.10    0.75
  -7  -7   3    2.14    0.64
   7  -7  -3    2.87    0.72
   7   7  -3    3.11    0.48
  -7   7   3    3.09    0.66
   7   7  -3    2.48    0.74
  -7   7   3    0.52    0.74
   7   7  -3    2.94    0.55
  -6  -7   3    1.75    0.62
  -6  -7   3    0.92    0.51
   6  -7  -3    1.59    0.54
   6  -7  -3    1.44    0.60
  -6  -7   3    1.44    0.51
   6   7  -3    1.47    0.41
  -6   7   3    1.67    0.50
   6   7  -3    1.92    0.63
   6   7  -3    2.33    0.48
  -6   7   3    1.70    0.67
   5  -7  -3    4.06    0.63
  -5  -7   3    3.70    0.54
  -5  -7   3    3.28    0.65
  -5   7   3    4.11    0.57
  -5   7   3    4.29    0.72
   5   7  -3    4.10    0.48
   5   7  -3    3.51    0.48
   5   7  -3    2.89    0.61
  -4  -7   3    1.73    0.54
  -4  -7   3    1.18    0.40
   4  -7  -3    1.29    0.49
   4  -7  -3    0.26    0.45
  -4   7   3    1.31    0.42
   4   7  -3    0.93    0.38
   4   7  -3    0.38    0.47
   4   7  -3    0.60    0.36
  -4   7   3    1.08    0.57
   3  -7  -3    0.99    0.42
  -3  -7   3    0.30    0.33
   3  -7  -3    0.81    0.45
  -3  -7   3    0.23    0.47
   3   7  -3    0.76    0.44
  -3   7   3    0.58    0.35
   3   7  -3    0.18    0.32
  -3   7   3    0.37    0.46
   2  -7  -3    6.42    0.68
  -2  -7   3    5.20    0.50
   2  -7  -3    5.23    0.56
  -2  -7   3    5.81    0.61
   2   7  -3    4.57    0.43
  -2   7   3    5.43    0.63
  -2   7   3    5.11    0.51
   1  -7  -3    7.02    0.63
  -1  -7   3    7.87    0.77
  -1  -7   3    8.05    0.66
   1  -7  -3    7.20    0.73
  -1   7   3    7.95    0.86
   1   7  -3    8.26    0.63
  -1   7   3    5.88    0.55
   0  -7  -3    5.85    0.61
   0  -7   3    3.19    0.45
   0  -7  -3    4.01    0.54
   0  -7   3    4.25    0.53
   0   7   3    4.62    0.51
   0   7  -3    4.10    0.43
   0   7   3    4.54    0.50
   1  -7   3    1.87    0.38
  -1  -7  -3    1.95    0.49
   1  -7   3    2.00    0.46
  -1  -7  -3    2.21    0.44
  -1   7  -3    2.74    0.38
   1   7   3    2.24    0.39
   1   7   3    1.92    0.34
  -2  -7  -3    0.08    0.40
   2  -7   3   -0.36    0.48
  -2  -7  -3    0.62    0.43
   2  -7   3   -0.18    0.37
   2  -7   3   -0.18    0.38
   2   7   3   -0.06    0.33
  -2   7  -3   -0.26    0.33
  -3  -7  -3    1.09    0.43
   3  -7   3    1.23    0.42
  -3  -7  -3    1.74    0.48
   3  -7   3    1.33    0.45
   3  -7   3    1.12    0.52
  -3   7  -3    1.08    0.40
   3   7   3    1.31    0.40
  -4  -7  -3    1.40    0.49
   4  -7   3    2.18    0.63
  -4  -7  -3    2.13    0.53
   4  -7   3    2.33    0.46
   4  -7   3    1.78    0.46
   4   7   3    1.58    0.44
  -4   7  -3    1.56    0.42
  -5  -7  -3    2.46    0.54
  -5  -7  -3    3.01    0.58
   5  -7   3    2.14    0.68
  -5  -7  -3    2.49    0.59
   5  -7   3    2.42    0.51
  -5  -7  -3    2.65    0.58
   5  -7   3    2.46    0.61
   5   7   3    2.95    0.48
   5   7   3    3.49    0.63
  -5   7  -3    1.63    0.49
   6  -7   3    3.28    0.78
  -6  -7  -3    1.22    0.70
  -6  -7  -3    2.27    0.61
  -6  -7  -3    2.59    0.63
  -6  -7  -3    0.92    0.72
   6  -7   3    2.82    0.59
   6  -7   3    1.15    0.67
  -6   7  -3    2.15    0.57
   6   7   3    3.23    0.56
   6   7   3    3.57    0.70
  -5  -8   3    1.17    0.79
   5  -8  -3    0.60    0.67
  -5  -8   3   -1.13    0.59
   5  -8  -3    0.41    0.68
   5   8  -3    1.47    0.57
  -5   8   3    0.01    0.80
  -5   8   3    0.23    0.57
   5   8  -3    0.86    0.71
   5   8  -3    0.34    0.47
  -4  -8   3    3.42    0.75
   4  -8  -3    2.79    0.67
   4  -8  -3    3.42    0.72
  -4  -8   3    2.99    0.58
   4   8  -3    2.41    0.70
  -4   8   3    2.55    0.74
   4   8  -3    1.92    0.50
  -4   8   3    2.56    0.56
   4   8  -3    3.10    0.57
  -3  -8   3   -0.06    0.49
   3  -8  -3    1.09    0.59
  -3  -8   3   -0.58    0.59
   3  -8  -3    0.14    0.57
  -3   8   3    0.29    0.48
  -3   8   3   -0.85    0.62
   3   8  -3    0.57    0.47
  -2  -8   3    0.22    0.56
   2  -8  -3    0.57    0.50
   2  -8  -3   -1.23    0.57
  -2  -8   3   -0.04    0.43
  -2   8   3    0.43    0.46
   2   8  -3    0.47    0.41
  -2   8   3    0.17    0.59
   1  -8  -3    1.36    0.57
  -1  -8   3    0.59    0.47
   1  -8  -3   -0.47    0.51
  -1  -8   3    1.02    0.56
  -1   8   3   -0.11    0.47
  -1   8   3    0.45    0.56
   1   8  -3    0.64    0.45
   0  -8   3   -0.30    0.47
   0  -8  -3    0.66    0.53
   0  -8  -3    0.51    0.59
   0  -8   3   -0.09    0.51
   0   8  -3   -0.06    0.46
   0   8   3    0.03    0.48
   0   8   3    0.71    0.50
   1  -8   3    1.00    0.55
   1  -8   3    0.62    0.49
  -1  -8  -3    1.71    0.61
  -1  -8  -3    1.28    0.57
  -1   8  -3    1.77    0.47
   1   8   3    1.23    0.41
   1   8   3    1.70    0.50
  -2  -8  -3    1.06    0.60
   2  -8   3    0.35    0.55
  -2  -8  -3    0.68    0.56
   2  -8   3    1.08    0.70
   2  -8   3    0.65    0.51
  -2   8  -3    2.14    0.49
   2   8   3    1.27    0.49
   3  -8   3    1.79    0.62
  -3  -8  -3    2.71    0.65
   3  -8   3    2.33    0.55
   3  -8   3    1.53    0.72
  -3  -8  -3    1.30    0.67
   3   8   3    2.32    0.54
  -3   8  -3    1.81    0.50
  -4  -8  -3    0.60    0.63
  -4  -8  -3    0.98    0.73
   4  -8   3    0.74    0.60
   4  -8   3   -0.73    0.77
   4  -8   3    1.05    0.62
  -4   8  -3    0.03    0.56
   4   8   3    0.38    0.55
  12   0  -4    1.79    0.68
 -12   0   4    0.75    0.54
 -12   0   4   -0.08    0.71
 -12   0   4    1.21    0.50
  12   0  -4   -0.39    0.69
 -12   0   4   -0.07    0.67
  12   0  -4    0.53    0.55
 -11   0   4    8.57    0.84
 -11   0   4    6.19    0.57
  11   0  -4    7.69    0.68
 -11   0   4    8.01    0.82
  11   0  -4    7.28    0.76
  11   0  -4    6.94    0.72
 -11   0   4    6.26    0.56
  10   0  -4    2.08    0.48
 -10   0   4    1.84    0.37
  10   0  -4    2.04    0.40
 -10   0   4    1.22    0.34
 -10   0   4    1.97    0.48
  10   0  -4    1.79    0.43
 -10   0   4    2.09    0.48
  -9   0   4    2.89    0.47
  -9   0   4    1.45    0.34
  -9   0   4    2.03    0.33
   9   0  -4    2.55    0.41
  -9   0   4    2.64    0.44
   9   0  -4    2.04    0.35
   9   0  -4    2.28    0.42
   9   0  -4    3.02    0.50
  -8   0   4   56.82    1.60
   8   0  -4   57.47    1.69
  -8   0   4   58.08    1.77
  -8   0   4   55.61    1.55
   8   0  -4   57.28    1.60
   8   0  -4   57.83    1.60
  -8   0   4   56.53    1.56
   8   0  -4   56.77    1.76
  -7   0   4   21.61    0.80
  -7   0   4   20.82    0.90
   7   0  -4   22.51    0.81
  -7   0   4   22.35    0.81
   7   0  -4   21.48    0.82
  -7   0   4   21.73    0.80
   7   0  -4   21.35    0.93
   6   0  -4   65.30    1.63
  -6   0   4   64.33    1.62
  -6   0   4   64.76    1.60
   6   0  -4   62.81    1.79
   6   0  -4   66.24    1.61
  -6   0   4   62.58    1.78
  -6   0   4   64.47    1.60
   5   0  -4   11.35    0.47
  -5   0   4   11.48    0.57
  -5   0   4   10.70    0.48
  -5   0   4   10.81    0.46
   5   0  -4   10.39    0.50
   5   0  -4   11.05    0.58
  -5   0   4   11.12    0.51
   4   0  -4   15.94    0.59
  -4   0   4   16.93    0.67
  -4   0   4   17.28    0.51
   4   0  -4   17.42    0.52
   4   0  -4   17.52    0.68
  -4   0   4   16.57    0.57
  -4   0   4   17.65    0.61
   3   0  -4    9.69    0.31
   3   0  -4    9.93    0.40
   3   0  -4    9.15    0.46
  -3   0   4    9.96    0.42
   3   0  -4    9.33    0.39
  -3   0   4    9.67    0.38
  -3   0   4    9.14    0.47
   2   0  -4    3.89    0.32
   2   0  -4    3.96    0.24
  -2   0   4    3.94    0.22
   2   0  -4    3.91    0.22
  -2   0   4    3.81    0.32
  -2   0   4    4.36    0.26
   1   0  -4   13.87    0.36
   1   0  -4   13.47    0.52
  -1   0   4   13.68    0.37
  -1   0   4   13.93    0.36
   1   0  -4   13.61    0.36
   0   0  -4   11.74    0.29
   0   0  -4   11.53    0.40
   0   0   4   12.36    0.38
   0   0   4   12.19    0.31
   1   0   4   12.05    0.32
  -1   0  -4   12.09    0.38
   1   0   4   12.87    0.46
  -1   0  -4   12.07    0.31
  -1   0  -4   11.59    0.47
  -2   0  -4   20.91    0.52
  -2   0  -4   21.38    0.74
   2   0   4   21.62    0.70
   2   0   4   21.02    0.59
  -2   0  -4   20.67    0.58
   2   0   4   22.00    0.54
   3   0   4    7.51    0.37
  -3   0  -4    7.35    0.36
   3   0   4    7.39    0.34
  -3   0  -4    7.20    0.49
   3   0   4    6.52    0.45
  -3   0  -4    7.25    0.30
  -4   0  -4    0.51    0.15
   4   0   4   -0.09    0.19
   4   0   4    0.48    0.18
  -4   0  -4    0.12    0.21
  -4   0  -4    0.39    0.19
   4   0   4    0.39    0.20
  -5   0  -4    0.17    0.26
  -5   0  -4   -0.14    0.16
   5   0   4   -0.02    0.24
  -5   0  -4    0.24    0.18
   5   0   4    0.03    0.21
   5   0   4    0.18    0.23
  -6   0  -4   15.67    0.85
  -6   0  -4   16.82    0.68
   6   0   4   16.43    0.72
   6   0   4   15.36    0.82
   6   0   4   16.68    0.72
  -6   0  -4   16.02    0.65
   7   0   4   10.70    0.72
   7   0   4   10.41    0.77
  -7   0  -4   10.87    0.78
  -7   0  -4    9.83    0.61
   7   0   4   10.14    0.66
  -7   0  -4   11.15    0.66
   8   0   4   23.31    1.05
  -8   0  -4   22.15    0.94
  -8   0  -4   24.29    1.14
  -8   0  -4   22.86    1.12
   8   0   4   23.58    0.99
  -8   0  -4   24.54    1.00
   8   0   4   22.86    1.10
   9   0   4    6.64    0.64
  -9   0  -4    6.89    0.63
  -9   0  -4    5.97    0.61
   9   0   4    6.31    0.70
   9   0   4    8.80    0.89
  -9   0  -4    6.25    0.72
  -9   0  -4    6.76    0.64
 -10   0  -4    1.41    0.58
  10   0   4    1.79    0.61
  10   0   4    0.76    0.62
  10   0   4    1.48    0.74
 -10   0  -4    1.60    0.67
 -10   0  -4    1.23    0.60
 -10   0  -4    1.18    0.72
  12  -1  -4   -1.56    0.75
 -12  -1   4   -0.72    0.66
  12  -1  -4    0.16    0.53
 -12  -1   4   -0.36    0.54
 -12  -1   4    0.45    0.69
  12  -1  -4    0.36    0.68
 -12  -1   4    0.03    0.56
 -12   1   4   -0.68    0.55
  12   1  -4   -0.68    0.72
 -12   1   4    0.32    0.75
  12   1  -4   -0.56    0.66
 -12   1   4    0.45    0.71
 -12   1   4   -0.47    0.54
  12   1  -4    0.13    0.57
 -11  -1   4    2.15    0.49
  11  -1  -4    2.18    0.51
  11  -1  -4    2.65    0.62
  11  -1  -4    1.80    0.63
 -11  -1   4    2.69    0.61
 -11  -1   4    2.55    0.45
 -11  -1   4    2.58    0.62
 -11   1   4    3.05    0.64
  11   1  -4    2.10    0.57
 -11   1   4    2.19    0.44
  11   1  -4    2.86    0.58
 -11   1   4    2.09    0.63
 -11   1   4    2.35    0.45
  11   1  -4    2.96    0.51
  10  -1  -4   21.22    1.07
  10  -1  -4   21.81    1.13
 -10  -1   4   20.76    0.92
 -10  -1   4   22.18    1.14
 -10  -1   4   17.97    1.08
 -10  -1   4   20.83    0.95
  10  -1  -4   21.73    0.98
 -10   1   4   21.05    0.92
  10   1  -4   21.38    0.97
 -10   1   4   20.72    0.95
  10   1  -4   18.62    1.11
  10   1  -4   18.84    1.04
 -10   1   4   21.32    1.12
  10   1  -4   20.68    1.04
 -10   1   4   19.86    1.16
  -9  -1   4   14.82    0.84
  -9  -1   4   15.39    0.92
  -9  -1   4   15.02    0.76
   9  -1  -4   16.26    0.81
   9  -1  -4   15.74    0.87
  -9  -1   4   15.31    0.77
  -9   1   4   15.32    0.73
  -9   1   4   14.73    0.88
  -9   1   4   14.72    0.76
  -9   1   4   16.63    0.98
   9   1  -4   15.67    0.81
   9   1  -4   14.51    0.86
   9   1  -4   17.15    1.06
   9   1  -4   17.00    0.87
  -8  -1   4   42.58    1.29
  -8  -1   4   41.39    1.28
  -8  -1   4   41.16    1.42
   8  -1  -4   41.56    1.32
  -8  -1   4   41.69    1.29
   8  -1  -4   42.40    1.47
   8  -1  -4   42.09    1.30
   8   1  -4   42.16    1.31
   8   1  -4   42.15    1.31
   8   1  -4   43.11    1.42
  -8   1   4   42.14    1.35
  -8   1   4   41.51    1.45
  -8   1   4   43.33    1.28
   8   1  -4   43.39    1.44
  -8   1   4   42.66    1.29
  -7  -1   4   14.81    0.75
  -7  -1   4   14.53    0.67
   7  -1  -4   14.14    0.68
  -7  -1   4   14.19    0.66
   7  -1  -4   14.78    0.68
   7  -1  -4   15.08    0.77
  -7  -1   4   14.35    0.65
  -7   1   4   15.50    0.77
   7   1  -4   14.02    0.68
   7   1  -4   15.53    0.76
  -7   1   4   14.53    0.65
   7   1  -4   14.07    0.74
   7   1  -4   14.33    0.66
  -7   1   4   15.83    0.71
  -7   1   4   14.97    0.66
  -6  -1   4   11.91    0.54
   6  -1  -4   11.76    0.63
   6  -1  -4   11.88    0.57
  -6  -1   4   12.43    0.55
  -6  -1   4   12.55    0.57
  -6  -1   4   12.59    0.63
   6  -1  -4   12.05    0.57
   6   1  -4   12.37    0.63
   6   1  -4   11.93    0.57
  -6   1   4   11.50    0.56
   6   1  -4   12.35    0.53
   6   1  -4   11.79    0.54
  -6   1   4   11.78    0.57
   6   1  -4   12.58    0.66
  -6   1   4   11.94    0.55
  -6   1   4   11.45    0.63
  -5  -1   4   23.42    0.77
  -5  -1   4   23.97    0.72
   5  -1  -4   24.75    0.93
  -5  -1   4   23.60    0.75
   5  -1  -4   24.08    0.79
   5  -1  -4   24.49    0.75
  -5  -1   4   24.48    0.85
  -5   1   4   23.53    0.88
   5   1  -4   24.65    0.78
   5   1  -4   24.34    0.86
   5   1  -4   24.17    0.74
  -5   1   4   24.05    0.77
   5   1  -4   23.87    0.85
  -5   1   4   23.34    0.78
   5   1  -4   23.52    0.69
  -4  -1   4   84.90    2.09
   4  -1  -4   81.38    1.84
  -4  -1   4   80.99    1.84
  -4  -1   4   81.56    1.83
   4  -1  -4   85.16    2.19
   4  -1  -4   81.15    1.86
  -4  -1   4   82.26    1.80
   4   1  -4   81.95    1.82
   4   1  -4   82.69    2.08
   4   1  -4   79.44    1.96
  -4   1   4   80.29    1.84
  -4   1   4   82.12    1.83
  -3  -1   4  409.63    7.90
   3  -1  -4  393.10    8.96
   3  -1  -4  409.32    7.92
  -3  -1   4  395.57    7.91
   3  -1  -4  395.78    8.18
  -3  -1   4  395.20    8.12
  -3  -1   4  407.94    8.94
  -3   1   4  406.67    7.89
  -3   1   4  401.29    8.96
   3   1  -4  401.40    7.89
   3   1  -4  405.54    8.94
  -3   1   4  414.24    7.91
  -2  -1   4   84.74    1.80
   2  -1  -4   86.51    1.79
   2  -1  -4   82.97    2.09
  -2  -1   4   82.69    1.81
  -2   1   4   84.86    2.08
   2   1  -4   86.25    2.10
  -2   1   4   86.05    1.78
  -2   1   4   87.71    1.78
   2   1  -4   85.89    1.80
   1  -1  -4    5.54    0.33
  -1  -1   4    5.66    0.26
  -1  -1   4    5.35    0.22
   1  -1  -4    5.31    0.21
  -1   1   4    5.23    0.19
   1   1  -4    5.13    0.25
  -1   1   4    5.67    0.21
  -1   1   4    5.35    0.34
   0  -1  -4   10.11    0.37
   0  -1   4   10.18    0.38
   0  -1   4   10.88    0.35
   0  -1  -4   10.22    0.41
   0   1  -4   10.18    0.34
   0   1  -4   10.67    0.35
  -1  -1  -4   64.24    1.62
   1  -1   4   67.69    1.58
   1  -1   4   69.31    1.43
  -1  -1  -4   66.70    1.57
  -1  -1  -4   66.10    1.55
  -1   1  -4   67.21    1.56
  -1   1  -4   67.62    1.43
  -2  -1  -4   16.99    0.57
  -2  -1  -4   17.40    0.63
  -2  -1  -4   17.69    0.41
  -2  -1  -4   16.91    0.41
   2  -1   4   16.77    0.64
   2  -1   4   17.24    0.43
   2  -1   4   17.75    0.52
   2   1   4   17.84    0.59
  -2   1  -4   17.17    0.63
  -2   1  -4   16.60    0.50
  -3  -1  -4   32.65    1.00
   3  -1   4   31.93    0.83
  -3  -1  -4   31.86    0.91
   3  -1   4   31.23    0.99
   3  -1   4   32.09    0.78
  -3  -1  -4   31.65    0.75
  -3  -1  -4   32.76    0.76
  -3   1  -4   32.38    1.01
   3   1   4   31.03    0.90
  -3   1  -4   32.51    0.82
   3   1   4   32.14    0.76
   3   1   4   30.55    0.96
  -4  -1  -4    8.30    0.36
  -4  -1  -4    8.46    0.49
   4  -1   4    7.81    0.42
   4  -1   4    7.99    0.53
   4  -1   4    8.37    0.38
  -4  -1  -4    8.34    0.37
  -4  -1  -4    8.26    0.55
   4   1   4    8.90    0.52
  -4   1  -4    7.85    0.40
   4   1   4    8.07    0.38
  -4   1  -4    7.64    0.54
   4   1   4    7.48    0.49
  -5  -1  -4   27.77    1.04
  -5  -1  -4   26.57    0.80
   5  -1   4   27.23    1.01
   5  -1   4   27.82    0.83
  -5  -1  -4   26.87    0.93
   5  -1   4   27.40    0.86
  -5  -1  -4   28.80    0.80
   5   1   4   27.40    0.99
  -5   1  -4   27.27    1.04
  -5   1  -4   28.65    0.84
   5   1   4   26.61    0.81
   5   1   4   27.92    0.95
  -6  -1  -4    0.34    0.29
  -6  -1  -4    0.10    0.22
  -6  -1  -4   -0.02    0.20
  -6  -1  -4   -0.31    0.27
   6  -1   4    0.05    0.30
   6  -1   4    0.21    0.25
   6  -1   4    0.22    0.26
  -6   1  -4    0.12    0.30
   6   1   4    0.32    0.25
   6   1   4    0.05    0.31
   6   1   4    0.30    0.30
  -6   1  -4    0.22    0.22
   7  -1   4    0.37    0.34
   7  -1   4    0.78    0.35
  -7  -1  -4    0.81    0.30
  -7  -1  -4    0.41    0.29
  -7  -1  -4   -0.01    0.31
  -7  -1  -4    0.21    0.35
   7  -1   4    0.87    0.36
   7   1   4    0.45    0.38
   7   1   4    0.90    0.35
  -7   1  -4    0.88    0.30
  -7   1  -4    0.99    0.37
   7   1   4    0.94    0.31
   8  -1   4    0.71    0.42
  -8  -1  -4    0.50    0.37
  -8  -1  -4   -0.01    0.37
   8  -1   4   -0.48    0.39
  -8  -1  -4    0.52    0.46
   8  -1   4    0.46    0.42
  -8  -1  -4    0.32    0.33
   8   1   4   -0.05    0.36
  -8   1  -4    0.21    0.43
  -8   1  -4    0.52    0.38
   8   1   4    0.52    0.34
  -8   1  -4    0.63    0.35
   8   1   4   -0.08    0.47
  -9  -1  -4    3.59    0.56
  -9  -1  -4    3.72    0.51
   9  -1   4    4.10    0.60
   9  -1   4    4.23    0.64
   9  -1   4    3.63    0.54
  -9  -1  -4    3.44    0.54
  -9  -1  -4    4.21    0.60
  -9   1  -4    4.49    0.62
  -9   1  -4    4.63    0.72
   9   1   4    3.26    0.54
  -9   1  -4    3.77    0.56
   9   1   4    3.39    0.67
   9   1   4    3.94    0.57
  -9   1  -4    4.55    0.59
  10  -1   4    3.07    0.70
  10  -1   4    3.77    0.68
 -10  -1  -4    2.77    0.61
 -10  -1  -4    2.83    0.65
 -10  -1  -4    3.53    0.59
  10  -1   4    2.35    0.74
 -10  -1  -4    3.90    0.72
  10   1   4    2.77    0.81
  10   1   4    3.67    0.68
 -10   1  -4    3.86    0.63
 -10   1  -4    2.17    0.80
 -10   1  -4    3.61    0.72
 -10   1  -4    3.74    0.67
  12  -2  -4   -0.01    0.59
  12  -2  -4    2.33    0.89
 -12  -2   4   -0.49    0.61
 -12  -2   4    1.61    0.62
 -12  -2   4    0.08    0.72
 -12   2   4    0.78    0.57
  12   2  -4    0.22    0.75
 -11  -2   4   10.48    0.93
  11  -2  -4    8.86    0.92
 -11  -2   4    9.81    0.87
  11  -2  -4   10.07    1.08
 -11  -2   4    9.16    0.92
  11  -2  -4    9.95    0.93
 -11  -2   4   11.31    1.12
 -11   2   4   10.40    0.88
  11   2  -4   10.53    0.85
 -11   2   4    9.83    0.99
 -11   2   4   10.33    0.88
  10  -2  -4    3.78    0.64
 -10  -2   4    4.37    0.62
 -10  -2   4    4.40    0.63
 -10  -2   4    4.99    0.53
 -10  -2   4    3.53    0.44
  10  -2  -4    3.69    0.52
 -10   2   4    4.70    0.68
 -10   2   4    4.79    0.51
 -10   2   4    4.26    0.48
  10   2  -4    3.91    0.59
  10   2  -4    4.52    0.57
  -9  -2   4    0.17    0.36
  -9  -2   4    0.25    0.29
  -9  -2   4    0.44    0.37
   9  -2  -4    0.68    0.39
   9  -2  -4    0.47    0.33
  -9  -2   4    0.51    0.29
  -9   2   4   -0.07    0.31
   9   2  -4    1.01    0.42
   9   2  -4   -0.23    0.39
  -9   2   4    0.13    0.27
  -9   2   4   -0.17    0.34
  -8  -2   4   27.21    1.03
  -8  -2   4   25.52    0.96
   8  -2  -4   22.64    0.96
  -8  -2   4   24.49    0.96
   8  -2  -4   27.66    1.07
  -8  -2   4   26.94    1.07
  -8   2   4   25.94    1.12
   8   2  -4   23.41    1.03
   8   2  -4   23.34    0.87
  -8   2   4   25.96    0.95
  -8   2   4   23.30    0.93
   8   2  -4   28.60    1.16
  -7  -2   4   17.82    0.76
   7  -2  -4   16.74    0.76
   7  -2  -4   17.08    0.84
  -7  -2   4   17.55    0.73
  -7  -2   4   17.18    0.73
   7  -2  -4   16.92    0.79
  -7  -2   4   18.01    0.81
   7   2  -4   18.07    0.84
   7   2  -4   17.44    0.82
  -7   2   4   16.02    0.71
   7   2  -4   16.79    0.68
  -7   2   4   16.81    0.86
   6  -2  -4   73.27    1.83
  -6  -2   4   71.99    1.80
   6  -2  -4   72.29    2.07
  -6  -2   4   76.16    1.99
  -6  -2   4   75.09    1.81
  -6  -2   4   74.05    1.81
   6  -2  -4   74.73    1.86
   6   2  -4   74.32    1.79
  -6   2   4   74.64    1.82
   6   2  -4   71.50    1.93
  -6   2   4   75.29    2.09
   6   2  -4   74.40    1.97
   5  -2  -4   38.64    1.25
   5  -2  -4   39.19    1.09
  -5  -2   4   39.42    1.08
   5  -2  -4   36.51    1.07
  -5  -2   4   39.19    1.03
  -5  -2   4   39.93    1.18
  -5  -2   4   38.37    1.06
   5   2  -4   37.96    1.04
  -5   2   4   39.51    1.26
   5   2  -4   38.46    1.17
   5   2  -4   39.35    1.17
  -5   2   4   39.46    1.07
  -4  -2   4   74.67    1.67
  -4  -2   4   73.91    1.70
  -4  -2   4   73.82    1.72
   4  -2  -4   74.89    1.71
   4  -2  -4   73.87    1.75
   4  -2  -4   72.07    1.98
  -4   2   4   72.33    1.97
   4   2  -4   76.60    1.83
   4   2  -4   73.18    1.69
   4   2  -4   74.47    1.91
  -4   2   4   75.45    1.70
  -3  -2   4    2.80    0.28
   3  -2  -4    2.78    0.26
   3  -2  -4    2.92    0.36
   3   2  -4    2.68    0.26
   3   2  -4    2.90    0.33
  -3   2   4    2.51    0.26
   3   2  -4    3.16    0.34
   2  -2  -4    7.56    0.33
   2  -2  -4    7.56    0.46
  -2  -2   4    7.38    0.36
   2   2  -4    7.62    0.37
   2   2  -4    7.45    0.35
  -2   2   4    7.54    0.31
  -2   2   4    8.58    0.45
  -1  -2   4   36.99    0.92
   1  -2  -4   37.21    1.05
   1  -2  -4   37.07    0.83
   1   2  -4   37.50    0.88
  -1   2   4   36.81    1.03
   1   2  -4   37.00    0.92
  -1   2   4   37.49    0.83
   0  -2  -4   60.46    1.49
   0  -2   4   61.88    1.42
   0  -2   4   60.86    1.37
   0  -2  -4   61.08    1.24
   0  -2  -4   61.24    1.52
   0   2  -4   59.51    1.37
   0   2   4   61.36    1.50
   0   2   4   60.94    1.24
   1  -2   4   87.82    1.88
  -1  -2  -4   88.97    1.72
   1  -2   4   87.43    2.00
  -1  -2  -4   86.19    1.72
  -1  -2  -4   88.92    2.05
  -1  -2  -4   84.41    2.02
   1   2   4   84.68    1.72
  -1   2  -4   85.80    1.87
   2  -2   4   64.92    1.49
  -2  -2  -4   65.11    1.36
  -2  -2  -4   63.50    1.61
   2  -2   4   65.99    1.64
  -2  -2  -4   67.25    1.34
  -2  -2  -4   65.55    1.56
  -2  -2  -4   64.69    1.62
   2   2   4   64.62    1.35
  -2   2  -4   66.75    1.49
   2   2   4   63.89    1.61
  -2   2  -4   65.46    1.61
  -3  -2  -4   21.07    0.55
  -3  -2  -4   20.85    0.77
  -3  -2  -4   21.33    0.62
  -3  -2  -4   20.98    0.76
  -3  -2  -4   20.96    0.57
   3  -2   4   21.56    0.69
   3  -2   4   21.56    0.81
  -3   2  -4   21.72    0.79
  -3   2  -4   21.35    0.67
   3   2   4   20.48    0.76
  -4  -2  -4    0.15    0.22
   4  -2   4    0.37    0.25
   4  -2   4    0.22    0.17
  -4  -2  -4    0.21    0.14
   4  -2   4   -0.10    0.18
  -4  -2  -4    0.22    0.16
  -4  -2  -4    0.12    0.23
  -4   2  -4    0.18    0.24
   4   2   4   -0.20    0.25
  -4   2  -4    0.21    0.18
  -5  -2  -4    2.97    0.40
  -5  -2  -4    2.75    0.28
  -5  -2  -4    3.09    0.42
   5  -2   4    2.01    0.33
  -5  -2  -4    2.55    0.25
   5  -2   4    2.72    0.34
   5  -2   4    2.32    0.28
   5   2   4    2.43    0.39
  -5   2  -4    1.72    0.33
  -5   2  -4    2.34    0.31
   6  -2   4   27.34    1.12
  -6  -2  -4   29.67    1.11
   6  -2   4   29.71    0.99
  -6  -2  -4   28.13    0.87
  -6  -2  -4   28.81    0.87
  -6  -2  -4   25.43    1.09
  -6  -2  -4   27.04    0.89
   6  -2   4   28.30    0.90
  -6   2  -4   27.83    0.94
   6   2   4   28.97    1.09
  -6   2  -4   25.34    1.12
  -7  -2  -4   16.80    0.95
  -7  -2  -4   16.79    0.95
  -7  -2  -4   18.09    0.76
   7  -2   4   18.61    0.81
  -7  -2  -4   17.29    0.75
   7  -2   4   17.45    0.95
   7  -2   4   18.61    0.88
  -7  -2  -4   17.19    0.73
  -7   2  -4   18.18    0.81
   7   2   4   18.51    1.00
  -7   2  -4   16.41    0.99
  -8  -2  -4   27.06    1.26
   8  -2   4   26.50    1.15
   8  -2   4   27.58    1.28
  -8  -2  -4   27.19    1.03
  -8  -2  -4   26.70    1.04
  -8  -2  -4   25.98    0.99
   8  -2   4   26.76    1.09
   8   2   4   28.76    1.31
  -8   2  -4   28.12    1.31
  -8   2  -4   28.63    1.11
   9  -2   4    7.05    0.69
  -9  -2  -4    6.91    0.81
   9  -2   4    9.69    1.00
  -9  -2  -4    7.79    0.67
  -9  -2  -4    8.30    0.80
  -9  -2  -4    7.42    0.65
   9  -2   4    7.14    0.75
  -9   2  -4    6.69    0.86
   9   2   4    8.02    0.87
  -9   2  -4    6.70    0.75
  -9   2  -4    6.57    0.65
  11  -3  -4    1.27    0.62
 -11  -3   4    2.36    0.63
 -11  -3   4    1.34    0.58
 -11  -3   4    1.72    0.68
  11  -3  -4    1.76    0.74
 -11  -3   4    1.57    0.59
  11   3  -4    1.54    0.70
 -11   3   4    1.17    0.55
 -11   3   4    1.58    0.50
 -11   3   4    0.55    0.65
 -10  -3   4   12.13    0.99
 -10  -3   4   10.16    1.04
  10  -3  -4   10.62    0.90
 -10  -3   4   12.10    0.89
  10  -3  -4   12.94    1.11
 -10  -3   4    9.65    0.83
 -10   3   4   11.74    0.85
 -10   3   4    8.99    0.85
  10   3  -4   11.04    1.01
 -10   3   4    9.89    1.04
  10   3  -4    9.75    1.05
   9  -3  -4    9.74    0.79
   9  -3  -4   11.37    0.94
  -9  -3   4   10.65    0.84
  -9  -3   4   10.82    0.77
  -9  -3   4    8.20    0.87
  -9  -3   4    9.82    0.71
   9   3  -4   10.09    0.67
  -9   3   4    9.41    0.85
  -9   3   4   10.42    0.76
   9   3  -4   10.70    0.88
   9   3  -4    9.57    0.85
  -8  -3   4   32.32    1.19
  -8  -3   4   32.62    1.13
  -8  -3   4   31.61    1.12
  -8  -3   4   34.07    1.22
   8  -3  -4   35.33    1.29
   8  -3  -4   31.19    1.16
  -8   3   4   33.38    1.32
   8   3  -4   33.76    1.23
   8   3  -4   31.02    1.05
  -8   3   4   30.89    1.12
   8   3  -4   31.72    1.27
  -7  -3   4   12.12    0.70
   7  -3  -4   12.94    0.77
  -7  -3   4   12.67    0.67
  -7  -3   4   12.88    0.65
   7  -3  -4   12.23    0.71
   7   3  -4   13.52    0.74
   7   3  -4   12.54    0.59
   7   3  -4   12.63    0.76
  -7   3   4   12.13    0.68
  -7   3   4   11.54    0.80
  -6  -3   4    9.48    0.53
  -6  -3   4    9.54    0.53
   6  -3  -4    8.88    0.60
  -6  -3   4    9.22    0.53
   6  -3  -4    9.25    0.59
   6   3  -4    9.13    0.58
   6   3  -4    9.41    0.66
   6   3  -4    9.06    0.49
  -6   3   4    9.68    0.54
  -6   3   4    9.35    0.65
  -5  -3   4   10.46    0.52
   5  -3  -4   10.89    0.55
  -5  -3   4    9.99    0.51
   5  -3  -4   10.11    0.58
  -5  -3   4   10.71    0.52
   5  -3  -4   10.70    0.64
  -5   3   4   10.83    0.53
   5   3  -4   10.69    0.63
   5   3  -4   11.28    0.50
   5   3  -4   10.52    0.57
  -5   3   4    9.88    0.66
   4  -3  -4   41.56    1.34
  -4  -3   4   43.57    1.17
  -4  -3   4   44.02    1.15
   4  -3  -4   43.23    1.14
  -4  -3   4   42.88    1.24
  -4   3   4   42.67    1.35
   4   3  -4   43.94    1.27
  -4   3   4   44.15    1.13
   4   3  -4   43.55    1.23
   4   3  -4   42.04    1.13
  -3  -3   4  172.55    3.59
  -3  -3   4  170.41    3.75
   3  -3  -4  165.53    4.06
   3  -3  -4  172.56    3.54
  -3   3   4  166.64    4.06
   3   3  -4  175.36    3.73
   3   3  -4  178.28    4.03
   3   3  -4  178.46    3.60
  -3   3   4  165.52    3.52
  -2  -3   4   61.21    1.46
   2  -3  -4   58.37    1.62
   2  -3  -4   60.37    1.37
  -2  -3   4   59.36    1.44
  -2   3   4   61.60    1.63
  -2   3   4   61.49    1.37
   2   3  -4   60.72    1.44
   2   3  -4   58.65    1.43
   1  -3  -4   13.74    0.59
   1  -3  -4   14.22    0.46
  -1  -3   4   14.04    0.49
  -1  -3   4   14.04    0.53
  -1   3   4   14.00    0.56
  -1   3   4   13.55    0.45
   1   3  -4   13.60    0.48
   1   3  -4   13.99    0.52
   0  -3   4    6.33    0.40
   0  -3  -4    6.35    0.29
   0  -3   4    5.81    0.38
   0  -3   4    6.20    0.29
   0  -3  -4    6.58    0.44
   0  -3  -4    6.13    0.37
   0   3   4    6.36    0.35
   0   3  -4    5.74    0.36
   0   3   4    6.23    0.28
   1  -3   4   22.15    0.71
  -1  -3  -4   22.14    0.67
  -1  -3  -4   23.23    0.80
  -1  -3  -4   23.10    0.58
   1  -3   4   22.41    0.76
  -1   3  -4   21.51    0.70
   1   3   4   22.63    0.57
   2  -3   4   15.72    0.66
  -2  -3  -4   15.22    0.46
  -2  -3  -4   14.41    0.45
  -2  -3  -4   14.25    0.46
   2  -3   4   15.10    0.60
  -2  -3  -4   14.14    0.65
   2   3   4   15.38    0.44
  -2   3  -4   15.30    0.58
   2   3   4   15.57    0.67
   3  -3   4   30.13    1.02
  -3  -3  -4   29.34    1.00
  -3  -3  -4   29.92    1.00
  -3  -3  -4   30.34    0.78
  -3  -3  -4   30.92    0.76
   3  -3   4   29.29    0.91
   3   3   4   29.90    0.76
   3   3   4   29.37    1.01
  -3   3  -4   29.65    0.91
  -4  -3  -4   10.46    0.48
  -4  -3  -4   10.65    0.65
   4  -3   4   10.39    0.57
   4  -3   4    9.35    0.66
  -4  -3  -4    9.63    0.43
  -4  -3  -4   10.80    0.61
   4  -3   4    9.49    0.41
  -4   3  -4    9.42    0.53
   4   3   4    9.81    0.65
   4   3   4    9.78    0.44
   5  -3   4   19.41    0.82
  -5  -3  -4   21.28    0.89
  -5  -3  -4   19.68    0.70
   5  -3   4   19.23    0.95
   5  -3   4   19.32    0.66
  -5  -3  -4   19.82    0.66
  -5  -3  -4   21.05    0.92
  -5   3  -4   19.61    0.95
  -5   3  -4   19.59    0.77
   5   3   4   19.73    0.91
  -6  -3  -4    0.66    0.27
   6  -3   4    0.48    0.28
  -6  -3  -4    0.53    0.35
   6  -3   4    0.46    0.37
   6  -3   4    0.52    0.35
  -6  -3  -4    0.42    0.25
  -6  -3  -4    0.65    0.40
   6   3   4    0.65    0.38
  -6   3  -4    0.23    0.31
  -6   3  -4    1.12    0.43
  -7  -3  -4   -0.16    0.28
   7  -3   4    0.25    0.39
   7  -3   4    0.59    0.34
  -7  -3  -4    0.44    0.30
  -7  -3  -4   -0.27    0.47
   7  -3   4    0.21    0.43
  -7  -3  -4    0.04    0.38
  -7   3  -4   -0.24    0.46
   7   3   4    0.45    0.46
  -7   3  -4    0.25    0.35
  -8  -3  -4    0.75    0.55
   8  -3   4    0.05    0.49
   8  -3   4   -0.24    0.49
  -8  -3  -4    0.87    0.39
   8  -3   4    0.21    0.44
  -8  -3  -4    0.29    0.53
  -8  -3  -4    0.34    0.35
  -8   3  -4    0.35    0.42
  -8   3  -4   -0.29    0.58
   8   3   4    0.07    0.56
  -9  -3  -4    3.31    0.54
  -9  -3  -4    4.97    0.62
   9  -3   4    3.67    0.70
   9  -3   4    3.62    0.72
   9  -3   4    3.49    0.65
  -9  -3  -4    3.06    0.68
   9   3   4    4.90    0.86
  -9   3  -4    2.52    0.79
  -9   3  -4    3.31    0.83
  -9   3  -4    2.97    0.61
 -11  -4   4    2.61    0.86
 -11  -4   4    4.47    0.75
  11  -4  -4    4.20    0.94
  11  -4  -4    2.85    0.72
 -11  -4   4    1.68    0.70
 -11   4   4    3.12    0.71
 -11   4   4    2.79    0.63
 -11   4   4    1.20    0.70
  11   4  -4    4.41    0.81
  10  -4  -4    0.72    0.58
  10  -4  -4    0.89    0.68
 -10  -4   4    0.07    0.54
 -10  -4   4   -0.11    0.63
 -10  -4   4   -0.35    0.46
  10   4  -4    0.60    0.48
  10   4  -4    0.19    0.61
 -10   4   4   -1.04    0.50
 -10   4   4    1.40    0.52
  10   4  -4    0.73    0.54
   9  -4  -4    0.61    0.47
  -9  -4   4    0.59    0.50
  -9  -4   4   -0.08    0.41
  -9  -4   4    0.31    0.38
   9  -4  -4    0.74    0.54
   9   4  -4    0.78    0.36
   9   4  -4    0.69    0.45
  -9   4   4    0.15    0.43
  -9   4   4   -0.63    0.43
   9   4  -4    0.76    0.49
   8  -4  -4   16.16    1.02
   8  -4  -4   15.67    0.93
  -8  -4   4   16.26    0.82
  -8  -4   4   16.72    0.91
  -8  -4   4   17.02    0.84
   8   4  -4   15.10    0.77
  -8   4   4   14.75    0.99
  -8   4   4   16.45    0.86
   8   4  -4   18.50    1.01
   8   4  -4   16.21    0.93
  -7  -4   4    8.68    0.67
  -7  -4   4    7.93    0.59
  -7  -4   4    8.50    0.60
   7  -4  -4    8.02    0.70
   7  -4  -4    7.66    0.74
   7   4  -4    7.56    0.65
   7   4  -4    9.73    0.81
   7   4  -4    8.62    0.55
  -7   4   4    8.27    0.74
  -7   4   4    9.80    0.65
  -6  -4   4   21.47    0.84
   6  -4  -4   22.65    0.91
  -6  -4   4   21.59    0.95
  -6  -4   4   22.24    0.87
   6  -4  -4   21.29    0.96
  -6  -4   4   22.80    0.86
   6   4  -4   22.46    0.99
  -6   4   4   21.63    0.83
   6   4  -4   21.17    0.87
  -6   4   4   22.63    1.07
   6   4  -4   21.58    0.79
   5  -4  -4    2.77    0.41
   5  -4  -4    3.15    0.36
  -5  -4   4    3.40    0.37
  -5  -4   4    3.98    0.40
  -5  -4   4    3.10    0.40
  -5  -4   4    2.87    0.31
  -5   4   4    3.74    0.41
   5   4  -4    3.65    0.36
   5   4  -4    3.48    0.42
   5   4  -4    3.31    0.37
  -5   4   4    2.40    0.40
  -4  -4   4   13.19    0.59
   4  -4  -4   13.78    0.62
  -4  -4   4   13.36    0.70
   4   4  -4   13.02    0.56
   4   4  -4   13.17    0.65
  -4   4   4   12.93    0.73
  -4   4   4   12.23    0.57
   4   4  -4   11.99    0.66
  -3  -4   4    0.59    0.21
  -3  -4   4    0.69    0.26
   3  -4  -4    0.59    0.21
  -3   4   4    0.49    0.19
   3   4  -4    0.48    0.23
  -3   4   4    0.60    0.33
   3   4  -4    0.60    0.18
  -2  -4   4    0.23    0.21
   2  -4  -4    0.21    0.18
  -2  -4   4    0.12    0.16
   2   4  -4    0.02    0.14
  -2   4   4    0.30    0.17
   2   4  -4   -0.21    0.19
  -2   4   4   -0.22    0.19
   1  -4  -4   11.27    0.48
  -1  -4   4   12.03    0.51
   1  -4  -4   10.75    0.56
  -1  -4   4   10.27    0.51
  -1   4   4   11.34    0.56
  -1   4   4   11.33    0.47
   1   4  -4   11.40    0.52
   1   4  -4   11.06    0.49
   0  -4  -4    4.00    0.32
   0  -4  -4    3.99    0.40
   0  -4   4    3.67    0.32
   0  -4   4    3.75    0.38
   0   4   4    4.08    0.30
   0   4   4    3.83    0.35
   0   4  -4    3.42    0.35
  -1  -4  -4   10.30    0.44
   1  -4   4    9.95    0.59
  -1  -4  -4    9.71    0.57
   1  -4   4   10.02    0.40
   1  -4   4   10.69    0.54
   1   4   4   10.19    0.41
   1   4   4    9.81    0.41
  -1   4  -4   10.46    0.51
  -2  -4  -4    6.58    0.38
  -2  -4  -4    6.28    0.52
   2  -4   4    6.31    0.47
   2  -4   4    6.01    0.31
   2  -4   4    6.22    0.54
   2   4   4    6.02    0.33
  -2   4  -4    6.29    0.44
  -3  -4  -4    4.13    0.36
  -3  -4  -4    4.81    0.47
  -3  -4  -4    4.55    0.37
  -3  -4  -4    5.30    0.51
   3  -4   4    4.71    0.49
   3  -4   4    4.38    0.41
   3  -4   4    3.78    0.29
   3   4   4    4.03    0.33
  -3   4  -4    4.49    0.41
   3   4   4    3.55    0.39
  -4  -4  -4    0.15    0.19
  -4  -4  -4   -0.11    0.27
   4  -4   4    0.06    0.28
  -4  -4  -4   -0.13    0.19
   4  -4   4    0.40    0.33
  -4  -4  -4    0.46    0.30
   4   4   4    0.32    0.20
  -4   4  -4    0.24    0.27
   4   4   4    0.20    0.30
   5  -4   4    0.53    0.39
  -5  -4  -4    0.98    0.33
   5  -4   4    0.14    0.31
  -5  -4  -4    0.53    0.26
  -5  -4  -4    0.62    0.40
  -5  -4  -4    0.38    0.25
   5  -4   4    0.55    0.25
   5   4   4    0.12    0.36
  -5   4  -4    0.74    0.32
   5   4   4    0.82    0.25
  -6  -4  -4    7.53    0.77
   6  -4   4    8.26    0.87
  -6  -4  -4    7.49    0.58
   6  -4   4    7.65    0.67
  -6  -4  -4    7.86    0.73
   6  -4   4    6.97    0.58
  -6  -4  -4    7.79    0.61
  -6   4  -4    7.13    0.60
   6   4   4    6.62    0.66
  -7  -4  -4    3.22    0.56
  -7  -4  -4    3.32    0.45
  -7  -4  -4    2.27    0.58
  -7  -4  -4    2.32    0.43
   7  -4   4    2.53    0.44
   7  -4   4    2.12    0.53
   7  -4   4    2.59    0.55
  -7   4  -4    2.86    0.50
   7   4   4    2.77    0.59
   8  -4   4    9.92    0.87
  -8  -4  -4   10.62    1.00
   8  -4   4    7.31    0.83
  -8  -4  -4   10.66    1.07
   8  -4   4    8.41    0.86
  -8  -4  -4   11.35    0.86
  -8  -4  -4   10.62    0.84
   8   4   4   10.48    0.94
  -8   4  -4    9.47    0.96
  10  -5  -4    3.97    0.74
 -10  -5   4    4.55    0.72
 -10  -5   4    3.72    0.76
 -10  -5   4    3.83    0.84
  10  -5  -4    4.28    0.92
 -10   5   4    1.39    0.66
  10   5  -4    3.98    0.68
  10   5  -4    4.14    0.81
 -10   5   4    4.28    0.71
  10   5  -4    3.45    0.61
  -9  -5   4    2.86    0.54
  -9  -5   4    3.42    0.67
   9  -5  -4    4.05    0.77
   9  -5  -4    3.31    0.62
  -9  -5   4    4.01    0.55
  -9   5   4    2.74    0.57
   9   5  -4    2.83    0.50
  -9   5   4    2.02    0.59
   9   5  -4    2.94    0.68
   9   5  -4    3.09    0.55
  -8  -5   4   11.33    0.96
   8  -5  -4    8.90    0.74
  -8  -5   4    8.96    0.78
  -8  -5   4    9.25    0.82
   8  -5  -4   10.34    0.90
  -8   5   4   11.27    0.83
   8   5  -4    9.83    0.71
   8   5  -4    8.09    0.83
   8   5  -4   10.15    0.98
  -8   5   4   10.89    0.97
  -7  -5   4    1.32    0.42
   7  -5  -4    0.96    0.44
   7  -5  -4    1.80    0.48
  -7  -5   4    1.31    0.37
  -7  -5   4    1.48    0.36
  -7  -5   4    1.17    0.48
   7   5  -4    1.83    0.40
   7   5  -4    1.39    0.33
   7   5  -4    2.25    0.53
  -7   5   4    1.67    0.40
  -7   5   4    1.61    0.48
  -6  -5   4    0.76    0.44
  -6  -5   4    0.59    0.35
   6  -5  -4    0.26    0.38
  -6  -5   4    0.43    0.26
   6  -5  -4    0.96    0.41
  -6  -5   4    0.31    0.29
  -6   5   4    0.93    0.45
   6   5  -4    0.57    0.25
   6   5  -4    0.72    0.30
  -6   5   4    0.83    0.31
   6   5  -4    0.53    0.39
  -5  -5   4    6.69    0.71
   5  -5  -4    5.56    0.53
  -5  -5   4    5.09    0.52
  -5   5   4    4.69    0.54
  -5   5   4    4.51    0.44
   5   5  -4    5.60    0.58
   5   5  -4    5.67    0.46
   5   5  -4    5.63    0.57
  -4  -5   4   11.82    0.74
  -4  -5   4   11.04    0.61
   4  -5  -4   12.42    0.68
  -4   5   4   11.14    0.83
   4   5  -4   11.02    0.71
   4   5  -4   11.77    0.68
  -4   5   4   11.43    0.62
   4   5  -4   10.86    0.56
  -3  -5   4   30.87    1.01
  -3  -5   4   31.55    1.08
   3  -5  -4   29.72    0.98
   3   5  -4   31.41    1.05
  -3   5   4   30.99    1.18
  -3   5   4   31.57    0.98
   3   5  -4   29.67    0.97
  -2  -5   4   11.25    0.59
   2  -5  -4   13.25    0.65
  -2  -5   4   11.55    0.63
   2  -5  -4   11.22    0.58
   2   5  -4   11.18    0.62
   2   5  -4   11.00    0.54
  -2   5   4   13.03    0.78
  -2   5   4   11.63    0.56
   1  -5  -4    3.04    0.32
  -1  -5   4    2.81    0.35
  -1  -5   4    3.42    0.35
   1  -5  -4    3.19    0.34
  -1   5   4    3.22    0.31
  -1   5   4    3.39    0.37
   1   5  -4    3.18    0.36
   1   5  -4    2.70    0.30
   0  -5  -4    0.45    0.23
   0  -5   4    0.69    0.24
   0  -5   4    0.64    0.22
   0  -5  -4    0.45    0.25
   0   5  -4    0.28    0.19
   0   5   4    0.73    0.23
   0   5   4    0.37    0.19
  -1  -5  -4    4.26    0.41
  -1  -5  -4    5.23    0.49
   1  -5   4    4.21    0.39
   1  -5   4    3.51    0.42
   1  -5   4    4.16    0.41
   1   5   4    4.39    0.34
  -1   5  -4    4.97    0.44
   1   5   4    4.20    0.40
   2  -5   4    2.67    0.42
   2  -5   4    3.23    0.31
  -2  -5  -4    2.63    0.38
   2  -5   4    3.61    0.42
  -2  -5  -4    2.57    0.31
  -2   5  -4    2.59    0.35
   2   5   4    2.82    0.29
   3  -5   4    7.29    0.44
  -3  -5  -4    7.41    0.51
   3  -5   4    7.55    0.71
  -3  -5  -4    7.42    0.51
   3  -5   4    7.16    0.61
  -3  -5  -4    7.81    0.65
  -3   5  -4    7.61    0.59
   3   5   4    7.34    0.47
   4  -5   4    0.98    0.42
  -4  -5  -4    0.93    0.29
  -4  -5  -4    1.40    0.40
  -4  -5  -4    1.73    0.31
  -4  -5  -4    1.21    0.36
   4  -5   4    1.93    0.37
   4  -5   4    0.72    0.24
   4   5   4    1.12    0.41
  -4   5  -4    1.03    0.36
   4   5   4    1.37    0.25
  -5  -5  -4    3.73    0.51
  -5  -5  -4    3.42    0.39
  -5  -5  -4    3.76    0.39
   5  -5   4    4.19    0.63
   5  -5   4    3.07    0.34
   5  -5   4    3.07    0.49
  -5  -5  -4    3.23    0.43
   5   5   4    3.59    0.56
  -5   5  -4    4.30    0.52
   5   5   4    3.64    0.39
  -6  -5  -4    0.08    0.38
  -6  -5  -4    0.43    0.36
  -6  -5  -4   -0.47    0.50
   6  -5   4    0.49    0.47
   6  -5   4    0.42    0.53
  -6  -5  -4    0.99    0.46
   6   5   4   -0.96    0.48
   6   5   4    0.69    0.34
  -6   5  -4   -0.51    0.42
   7  -5   4   -0.38    0.42
  -7  -5  -4   -0.01    0.58
  -7  -5  -4    0.64    0.45
   7  -5   4    0.23    0.56
  -7  -5  -4   -0.18    0.62
  -7  -5  -4    0.01    0.41
   7  -5   4    0.90    0.63
   7   5   4   -0.74    0.61
  -7   5  -4    1.43    0.50
  -8  -5  -4    0.88    0.77
   8  -5   4    0.70    0.77
  -8  -5  -4    0.13    0.55
  -8  -5  -4    1.17    0.73
   8  -5   4   -0.23    0.54
   8  -5   4    0.03    0.69
  -8  -5  -4   -0.01    0.56
  -8   5  -4    0.79    0.65
   8   5   4   -0.02    0.78
  -9  -6   4   -0.88    0.57
   9  -6  -4    1.86    0.85
  -9  -6   4    0.08    0.73
  -9  -6   4   -0.46    0.61
   9  -6  -4    1.01    0.74
  -9   6   4   -0.61    0.70
   9   6  -4    0.46    0.54
  -9   6   4    0.22    0.71
   9   6  -4   -0.38    0.77
   9   6  -4    0.86    0.57
  -8  -6   4    3.16    0.68
   8  -6  -4    4.09    0.69
  -8  -6   4    4.30    0.65
  -8  -6   4    2.49    0.51
   8  -6  -4    3.76    0.73
  -8  -6   4    3.09    0.66
  -8   6   4    2.01    0.61
  -8   6   4    3.19    0.68
   8   6  -4    2.82    0.50
   8   6  -4    3.45    0.73
   8   6  -4    3.10    0.56
   7  -6  -4    3.12    0.61
  -7  -6   4    3.68    0.67
  -7  -6   4    2.22    0.48
  -7  -6   4    2.60    0.56
   7  -6  -4    2.63    0.56
  -7  -6   4    1.75    0.41
   7   6  -4    2.97    0.44
   7   6  -4    2.47    0.45
   7   6  -4    2.30    0.63
  -7   6   4    3.16    0.57
  -7   6   4    1.93    0.57
  -6  -6   4    9.67    0.68
  -6  -6   4    9.14    0.88
  -6  -6   4   11.13    0.98
   6  -6  -4    8.38    0.78
   6  -6  -4   10.49    0.91
  -6  -6   4    9.79    0.72
  -6   6   4    8.99    0.80
   6   6  -4    8.55    0.74
   6   6  -4    9.29    0.66
  -6   6   4    7.66    0.75
   6   6  -4    8.93    0.95
   5  -6  -4    2.77    0.44
  -5  -6   4    3.87    0.59
  -5  -6   4    2.50    0.36
  -5   6   4    2.16    0.57
   5   6  -4    3.47    0.56
  -5   6   4    2.49    0.44
   5   6  -4    3.64    0.46
   5   6  -4    2.77    0.35
  -4  -6   4   12.07    0.87
  -4  -6   4   11.59    0.69
   4  -6  -4   10.85    0.75
  -4   6   4   11.12    0.70
   4   6  -4   10.59    0.76
  -4   6   4   10.72    0.96
   4   6  -4   11.54    0.62
   4   6  -4   11.33    0.82
   3  -6  -4    0.18    0.33
  -3  -6   4    0.34    0.37
  -3  -6   4    0.05    0.27
   3  -6  -4    0.29    0.32
  -3   6   4    1.91    0.50
   3   6  -4    0.53    0.27
   3   6  -4    0.19    0.35
  -3   6   4   -0.10    0.29
   2  -6  -4   -0.20    0.32
  -2  -6   4   -0.21    0.27
   2  -6  -4    0.01    0.28
  -2  -6   4   -0.43    0.30
  -2   6   4   -0.43    0.34
  -2   6   4   -0.37    0.25
   2   6  -4    0.35    0.32
   2   6  -4    0.04    0.26
   1  -6  -4    5.71    0.59
   1  -6  -4    6.24    0.61
  -1  -6   4    6.54    0.62
  -1  -6   4    5.47    0.56
  -1   6   4    6.43    0.53
   1   6  -4    6.88    0.54
  -1   6   4    6.39    0.64
   0  -6  -4    3.06    0.39
   0  -6  -4    3.93    0.44
   0  -6   4    3.40    0.40
   0  -6   4    3.47    0.43
   0   6  -4    3.61    0.36
   0   6   4    4.14    0.39
   0   6   4    3.68    0.38
   1  -6   4    7.69    0.58
  -1  -6  -4    8.33    0.62
  -1  -6  -4    8.29    0.70
   1  -6   4    8.95    0.66
  -1   6  -4    8.83    0.60
   1   6   4    9.06    0.48
   1   6   4    7.44    0.54
   2  -6   4    5.23    0.53
   2  -6   4    4.52    0.55
  -2  -6  -4    4.56    0.46
  -2  -6  -4    4.93    0.46
   2  -6   4    5.25    0.51
   2   6   4    5.14    0.50
  -2   6  -4    4.80    0.49
  -3  -6  -4    3.47    0.46
   3  -6   4    3.02    0.36
  -3  -6  -4    2.21    0.40
   3  -6   4    2.15    0.39
   3  -6   4    2.96    0.53
  -3   6  -4    3.32    0.43
   3   6   4    3.27    0.38
   4  -6   4    0.65    0.38
  -4  -6  -4    0.64    0.40
  -4  -6  -4    0.35    0.35
   4  -6   4   -0.27    0.48
   4  -6   4   -0.08    0.29
  -4  -6  -4   -0.94    0.44
  -4  -6  -4    0.11    0.33
  -4   6  -4    0.01    0.34
   4   6   4    0.39    0.30
   5  -6   4    0.81    0.53
   5  -6   4    1.44    0.57
  -5  -6  -4    1.26    0.54
  -5  -6  -4    1.27    0.49
  -5  -6  -4    0.84    0.40
   5  -6   4    1.02    0.35
  -5  -6  -4    0.80    0.41
  -5   6  -4    1.18    0.46
   5   6   4    1.82    0.39
   5   6   4    0.91    0.55
   6  -6   4    2.88    0.71
  -6  -6  -4    5.14    0.58
  -6  -6  -4    4.79    0.77
   6  -6   4    5.49    0.76
  -6  -6  -4    5.34    0.65
  -6  -6  -4    5.85    0.59
   6  -6   4    5.41    0.50
  -6   6  -4    2.88    0.59
   6   6   4    4.51    0.52
   6   6   4    5.79    0.76
  -7  -6  -4    3.14    0.83
  -7  -6  -4    2.00    0.58
   7  -6   4    1.41    0.48
   7  -6   4    0.77    0.78
   7  -6   4    0.92    0.55
  -7  -6  -4    1.49    0.62
   7  -6   4    2.58    0.76
  -7  -6  -4    1.76    0.72
   7   6   4    1.77    0.56
   7   6   4    2.31    0.84
  -7   6  -4    1.73    0.66
   7  -7  -4    1.20    0.69
  -7  -7   4    1.11    0.76
  -7  -7   4    0.10    0.55
   7  -7  -4    1.33    0.73
  -7  -7   4    0.53    0.55
  -7  -7   4    1.71    0.70
  -7   7   4    1.06    0.63
   7   7  -4    0.74    0.47
   7   7  -4    1.78    0.72
   7   7  -4    1.31    0.56
  -7   7   4    0.22    0.76
  -6  -7   4    0.83    0.51
  -6  -7   4    0.95    0.48
   6  -7  -4   -0.11    0.58
  -6  -7   4   -0.03    0.66
   6  -7  -4   -0.80    0.61
   6   7  -4    1.61    0.68
  -6   7   4    0.11    0.63
   6   7  -4    0.32    0.45
  -6   7   4    1.87    0.57
   6   7  -4    0.23    0.45
  -5  -7   4    0.76    0.58
  -5  -7   4    0.73    0.42
   5  -7  -4    1.26    0.51
   5   7  -4    0.61    0.45
  -5   7   4   -0.20    0.60
   5   7  -4    0.59    0.40
  -5   7   4    0.81    0.48
   5   7  -4    0.67    0.56
   4  -7  -4    2.71    0.53
  -4  -7   4    3.20    0.48
   4  -7  -4    2.99    0.54
  -4  -7   4    2.74    0.62
   4   7  -4    4.11    0.43
   4   7  -4    2.32    0.56
   4   7  -4    2.82    0.52
  -4   7   4    2.13    0.63
  -4   7   4    3.08    0.48
   3  -7  -4    8.71    0.86
  -3  -7   4    6.47    0.69
   3  -7  -4    6.87    0.62
  -3  -7   4    7.93    0.69
   3   7  -4    8.49    0.64
  -3   7   4    8.32    0.77
  -3   7   4    8.19    0.74
   3   7  -4   10.25    0.89
   2  -7  -4    5.81    0.57
  -2  -7   4    6.42    0.60
  -2  -7   4    5.67    0.63
   2  -7  -4    6.82    0.68
  -2   7   4    5.41    0.64
  -2   7   4    6.54    0.66
   2   7  -4    4.76    0.49
  -1  -7   4    3.94    0.47
   1  -7  -4    2.84    0.48
  -1  -7   4    3.88    0.52
   1  -7  -4    3.11    0.48
  -1   7   4    3.26    0.48
  -1   7   4    3.04    0.49
   1   7  -4    3.20    0.42
   0  -7   4    0.08    0.38
   0  -7  -4    0.35    0.40
   0  -7  -4    0.55    0.42
   0  -7   4    0.13    0.38
   0   7   4    0.77    0.36
   0   7   4    0.66    0.36
   0   7  -4    0.48    0.37
  -1  -7  -4    0.47    0.41
  -1  -7  -4    1.03    0.46
   1  -7   4    0.38    0.39
   1  -7   4    0.17    0.39
  -1   7  -4    0.19    0.37
   1   7   4    0.53    0.28
   1   7   4   -0.09    0.36
  -2  -7  -4    1.30    0.47
   2  -7   4    1.47    0.61
  -2  -7  -4    1.47    0.44
   2  -7   4    1.14    0.41
   2  -7   4    1.65    0.44
  -2   7  -4    1.45    0.44
   2   7   4    1.46    0.38
   3  -7   4    4.28    0.64
   3  -7   4    4.53    0.50
   3  -7   4    4.25    0.55
  -3  -7  -4    5.78    0.58
  -3  -7  -4    4.65    0.59
   3   7   4    4.97    0.50
  -3   7  -4    4.70    0.52
  -4  -7  -4    0.32    0.59
   4  -7   4    1.85    0.57
  -4  -7  -4    0.53    0.52
   4  -7   4    1.75    0.67
  -4  -7  -4    1.65    0.48
   4  -7   4    1.57    0.45
   4   7   4    2.00    0.44
  -4   7  -4    2.33    0.53
  -5  -7  -4    1.25    0.63
   5  -7   4    1.05    0.73
  -5  -7  -4    1.71    0.54
  -5  -7  -4    1.70    0.57
   5  -7   4    0.83    0.61
   5  -7   4    1.84    0.51
  -5  -7  -4    2.84    0.67
  -5   7  -4    1.04    0.56
   5   7   4    2.28    0.49
   5  -8  -4    0.48    0.72
  -5  -8   4    1.04    0.76
  -5  -8   4   -0.57    0.59
   5  -8  -4   -0.18    0.73
   5   8  -4   -0.31    0.57
  -5   8   4    0.38    0.61
   5   8  -4    0.76    0.58
  -5   8   4    0.98    0.82
   5   8  -4   -0.42    0.73
   4  -8  -4    1.87    0.68
  -4  -8   4    1.76    0.79
   4  -8  -4    2.10    0.69
  -4  -8   4    1.89    0.53
   4   8  -4    0.58    0.49
   4   8  -4    1.82    0.60
   4   8  -4    2.05    0.72
  -4   8   4    2.00    0.78
  -4   8   4    1.38    0.57
   3  -8  -4    0.06    0.57
  -3  -8   4   -0.47    0.49
   3  -8  -4    0.48    0.65
  -3  -8   4    0.59    0.65
   3   8  -4    0.65    0.48
  -3   8   4   -1.53    0.63
  -3   8   4   -0.04    0.49
  -2  -8   4   -0.78    0.57
  -2  -8   4    0.25    0.46
   2  -8  -4    0.83    0.53
   2  -8  -4    0.30    0.61
   2   8  -4    0.64    0.45
  -2   8   4   -0.09    0.48
  -2   8   4   -0.58    0.62
  -1  -8   4    1.50    0.51
   1  -8  -4    2.06    0.57
  -1  -8   4    2.72    0.62
   1  -8  -4    0.31    0.59
  -1   8   4    0.63    0.52
  -1   8   4    2.12    0.53
   1   8  -4    0.44    0.45
   0  -8  -4    0.56    0.60
   0  -8  -4    0.24    0.52
   0  -8   4   -0.79    0.49
   0  -8   4   -0.41    0.56
   0   8   4    0.43    0.45
   0   8  -4    0.66    0.50
   0   8   4    0.83    0.51
   1  -8   4    0.86    0.50
  -1  -8  -4    0.98    0.55
   1  -8   4    1.02    0.55
  -1  -8  -4    1.13    0.60
   1   8   4    0.89    0.49
  -1   8  -4    2.00    0.52
   1   8   4    1.18    0.36
  -2  -8  -4    1.72    0.64
   2  -8   4    0.19    0.72
   2  -8   4    0.70    0.60
   2  -8   4    0.47    0.55
  -2  -8  -4    0.28    0.56
   2   8   4    0.62    0.47
  -2   8  -4    1.47    0.55
   3  -8   4    0.82    0.57
   3  -8   4   -1.16    0.61
  -3  -8  -4   -0.45    0.59
   3  -8   4    0.23    0.77
  -3  -8  -4    0.24    0.69
  -3   8  -4    0.98    0.59
   3   8   4    1.26    0.53
  12   0  -5    1.12    0.66
  12   0  -5    1.87    0.69
 -12   0   5    1.76    0.73
  12   0  -5    1.57    0.52
 -12   0   5   -0.87    0.49
 -12   0   5    1.28    0.70
 -12   0   5    0.42    0.51
 -11   0   5    1.35    0.41
  11   0  -5    1.52    0.54
 -11   0   5    0.00    0.38
  11   0  -5    0.65    0.45
 -11   0   5    1.01    0.55
  11   0  -5    0.76    0.56
 -11   0   5    0.17    0.54
 -10   0   5    3.74    0.60
 -10   0   5    4.08    0.48
 -10   0   5    4.13    0.56
  10   0  -5    4.54    0.54
  10   0  -5    4.67    0.63
  10   0  -5    4.47    0.46
 -10   0   5    3.68    0.43
  10   0  -5    3.92    0.55
   9   0  -5   17.77    0.96
   9   0  -5   17.57    0.86
   9   0  -5   16.34    0.86
  -9   0   5   19.12    1.04
  -9   0   5   18.62    0.82
  -9   0   5   18.29    0.91
  -9   0   5   17.49    0.81
   9   0  -5   17.52    1.03
  -8   0   5   14.99    0.74
  -8   0   5   14.02    0.86
   8   0  -5   14.38    0.86
  -8   0   5   15.38    0.72
   8   0  -5   13.31    0.71
   8   0  -5   13.59    0.70
  -8   0   5   12.79    0.69
  -7   0   5   13.05    0.63
   7   0  -5   14.26    0.62
   7   0  -5   13.23    0.75
   7   0  -5   13.74    0.67
  -7   0   5   13.10    0.67
  -7   0   5   13.23    0.75
  -7   0   5   13.40    0.63
   6   0  -5   15.36    0.65
  -6   0   5   13.68    0.60
  -6   0   5   13.84    0.70
  -6   0   5   14.31    0.65
   6   0  -5   14.53    0.72
  -6   0   5   14.64    0.57
   6   0  -5   14.68    0.58
  -5   0   5    0.64    0.19
   5   0  -5    0.42    0.17
  -5   0   5    0.46    0.17
   5   0  -5    0.62    0.20
   5   0  -5    0.61    0.17
  -5   0   5    0.48    0.16
  -5   0   5    0.65    0.19
  -4   0   5    2.61    0.32
  -4   0   5    2.28    0.22
  -4   0   5    2.86    0.30
   4   0  -5    2.89    0.22
   4   0  -5    1.75    0.23
   4   0  -5    2.60    0.26
  -3   0   5   16.62    0.66
   3   0  -5   16.09    0.52
   3   0  -5   16.35    0.53
  -3   0   5   16.62    0.56
   3   0  -5   16.00    0.65
  -3   0   5   16.43    0.51
   2   0  -5    4.75    0.36
  -2   0   5    4.60    0.36
   2   0  -5    4.73    0.25
  -2   0   5    4.93    0.25
  -2   0   5    5.28    0.29
   1   0  -5   77.05    1.98
  -1   0   5   79.97    1.63
   1   0  -5   81.37    1.62
   1   0  -5   75.34    1.69
  -1   0   5   81.30    1.62
   0   0   5    3.03    0.16
   0   0  -5    2.26    0.25
   0   0  -5    2.90    0.14
   1   0   5  107.89    2.11
   1   0   5  108.15    2.37
  -1   0  -5  106.97    2.29
  -1   0  -5  109.72    2.12
  -1   0  -5  101.00    2.40
  -2   0  -5    9.58    0.38
  -2   0  -5    9.40    0.52
   2   0   5    9.99    0.50
  -2   0  -5    9.94    0.31
   2   0   5    9.63    0.33
   3   0   5    0.01    0.16
   3   0   5    0.12    0.14
  -3   0  -5    0.09    0.22
  -3   0  -5    0.04    0.11
  -3   0  -5    0.16    0.15
   3   0   5    0.18    0.20
   4   0   5    0.89    0.22
  -4   0  -5    0.87    0.22
  -4   0  -5    0.95    0.30
   4   0   5    0.63    0.21
   4   0   5    0.62    0.28
  -4   0  -5    0.70    0.17
  -5   0  -5   30.10    0.85
  -5   0  -5   30.71    1.17
   5   0   5   30.50    0.92
   5   0   5   30.33    0.95
   5   0   5   29.34    1.11
  -5   0  -5   30.54    0.89
  -6   0  -5   18.08    1.00
   6   0   5   20.60    0.99
   6   0   5   20.69    0.84
   6   0   5   20.59    0.78
  -6   0  -5   21.03    0.77
  -6   0  -5   21.40    0.74
   7   0   5    5.97    0.63
   7   0   5    5.74    0.49
  -7   0  -5    5.64    0.58
   7   0   5    4.97    0.55
  -7   0  -5    6.04    0.64
  -7   0  -5    5.36    0.56
   8   0   5    3.34    0.50
  -8   0  -5    2.51    0.53
  -8   0  -5    3.71    0.50
  -8   0  -5    3.65    0.48
   8   0   5    4.00    0.61
   8   0   5    2.98    0.57
   9   0   5    2.83    0.72
   9   0   5    2.59    0.56
  -9   0  -5    2.19    0.56
  -9   0  -5    3.28    0.70
  -9   0  -5    3.30    0.53
   9   0   5    2.70    0.63
  -9   0  -5    0.91    0.64
  12  -1  -5    9.46    0.92
  12  -1  -5    9.57    1.00
 -12  -1   5    9.63    0.98
 -12  -1   5    8.11    0.89
 -12  -1   5    8.48    0.73
 -12  -1   5    9.71    0.78
  12  -1  -5    8.27    0.77
 -12   1   5    8.43    0.99
  12   1  -5    9.33    0.81
 -12   1   5    8.86    0.69
 -12   1   5   10.24    1.05
  12   1  -5    7.83    0.87
 -12   1   5    9.28    0.84
  11  -1  -5    4.96    0.71
  11  -1  -5    4.31    0.54
 -11  -1   5    6.20    0.72
  11  -1  -5    5.33    0.67
 -11  -1   5    5.55    0.72
 -11  -1   5    5.79    0.62
 -11  -1   5    6.27    0.58
 -11   1   5    5.61    0.62
 -11   1   5    5.11    0.51
  11   1  -5    6.04    0.71
  11   1  -5    4.05    0.57
 -11   1   5    5.68    0.76
  11   1  -5    5.91    0.73
  11   1  -5    4.41    0.57
 -11   1   5    4.78    0.68
 -10  -1   5    4.59    0.56
 -10  -1   5    3.42    0.41
 -10  -1   5    2.76    0.42
 -10  -1   5    4.44    0.61
  10  -1  -5    3.48    0.43
  10  -1  -5    3.93    0.52
  10  -1  -5    3.77    0.55
  10   1  -5    4.64    0.59
 -10   1   5    4.20    0.62
  10   1  -5    3.96    0.49
 -10   1   5    4.00    0.41
  10   1  -5    4.52    0.61
 -10   1   5    4.02    0.51
 -10   1   5    4.25    0.65
  10   1  -5    4.53    0.55
  -9  -1   5    3.16    0.39
  -9  -1   5    3.06    0.39
   9  -1  -5    3.88    0.45
  -9  -1   5    3.54    0.47
   9  -1  -5    2.71    0.52
   9  -1  -5    3.23    0.47
  -9  -1   5    3.29    0.51
   9   1  -5    2.74    0.37
  -9   1   5    2.79    0.39
  -9   1   5    2.79    0.35
  -9   1   5    2.74    0.52
  -9   1   5    2.88    0.50
   9   1  -5    3.73    0.46
   9   1  -5    2.97    0.45
   9   1  -5    3.20    0.58
   8  -1  -5    0.09    0.27
  -8  -1   5    0.30    0.24
  -8  -1   5    0.27    0.27
  -8  -1   5   -0.76    0.24
  -8  -1   5    0.14    0.32
   8  -1  -5   -0.51    0.25
   8  -1  -5    0.30    0.33
  -8   1   5    0.69    0.31
  -8   1   5    0.36    0.24
   8   1  -5   -0.16    0.25
   8   1  -5    0.09    0.34
  -8   1   5    0.15    0.24
   8   1  -5    0.19    0.27
   8   1  -5    0.03    0.31
  -7  -1   5    1.34    0.26
   7  -1  -5    0.90    0.30
  -7  -1   5    0.92    0.23
  -7  -1   5    1.07    0.33
  -7  -1   5    1.27    0.26
   7  -1  -5    0.81    0.28
   7  -1  -5    1.13    0.27
  -7   1   5    1.14    0.28
  -7   1   5    1.22    0.27
   7   1  -5    0.86    0.25
  -7   1   5    1.42    0.27
   7   1  -5    1.29    0.33
   7   1  -5    1.14    0.26
   7   1  -5    1.01    0.32
  -6  -1   5    0.34    0.18
  -6  -1   5    0.17    0.20
   6  -1  -5    0.48    0.24
  -6  -1   5    0.06    0.20
   6  -1  -5    0.24    0.20
   6  -1  -5   -0.15    0.19
  -6  -1   5    0.12    0.23
  -6   1   5    0.23    0.19
   6   1  -5    0.07    0.19
  -6   1   5    0.23    0.23
   6   1  -5    0.06    0.18
   6   1  -5    0.15    0.23
  -6   1   5    0.05    0.21
   6   1  -5    0.06    0.20
  -5  -1   5    1.66    0.25
  -5  -1   5    2.15    0.27
  -5  -1   5    2.14    0.21
   5  -1  -5    2.17    0.25
   5  -1  -5    2.14    0.27
  -5  -1   5    2.31    0.27
   5  -1  -5    1.76    0.28
  -5   1   5    1.91    0.26
  -5   1   5    2.30    0.26
   5   1  -5    2.22    0.31
  -5   1   5    1.73    0.27
   5   1  -5    1.86    0.22
  -4  -1   5   77.76    2.02
   4  -1  -5   76.18    1.73
   4  -1  -5   79.04    1.78
   4  -1  -5   78.65    2.06
  -4  -1   5   77.52    1.66
  -4  -1   5   77.19    1.78
  -4  -1   5   78.47    1.76
   4   1  -5   79.34    1.76
   4   1  -5   80.01    2.03
  -4   1   5   77.57    1.75
  -4   1   5   74.18    1.76
  -4   1   5   76.49    2.04
   3  -1  -5   46.07    1.11
   3  -1  -5   49.15    1.37
  -3  -1   5   47.25    1.14
  -3  -1   5   45.45    1.11
  -3   1   5   48.01    1.12
  -3   1   5   47.35    1.10
  -3   1   5   44.73    1.32
   3   1  -5   46.64    1.11
   3   1  -5   44.89    1.31
   2  -1  -5   63.65    1.69
  -2  -1   5   63.41    1.43
   2  -1  -5   65.42    1.39
  -2  -1   5   65.50    1.43
  -2   1   5   67.40    1.38
  -2   1   5   66.88    1.39
  -2   1   5   63.22    1.68
   2   1  -5   63.23    1.42
   2   1  -5   64.06    1.70
  -1  -1   5  207.98    4.12
   1  -1  -5  204.09    4.72
  -1  -1   5  209.11    4.23
   1   1  -5  206.72    4.11
  -1   1   5  200.26    4.71
  -1   1   5  209.18    4.02
  -1   1   5  212.65    4.03
   0  -1   5   51.74    1.20
   0  -1  -5   49.78    1.24
   0  -1  -5   50.36    1.35
   0  -1  -5   51.30    1.23
   0  -1   5   52.01    1.14
   0   1  -5   50.34    1.19
   0   1  -5   52.50    1.13
   1  -1   5   34.26    0.82
  -1  -1  -5   33.93    0.94
  -1  -1  -5   33.20    0.91
   1  -1   5   34.04    0.93
  -1  -1  -5   33.02    0.96
  -1   1  -5   33.58    0.81
  -1   1  -5   35.36    0.93
  -2  -1  -5  124.72    2.85
   2  -1   5  133.05    2.68
   2  -1   5  128.01    2.93
  -2  -1  -5  134.07    2.96
  -2   1  -5  130.22    2.94
  -2   1  -5  132.32    2.67
  -3  -1  -5   79.75    1.61
   3  -1   5   77.14    1.96
  -3  -1  -5   77.52    1.61
   3  -1   5   77.85    1.71
  -3  -1  -5   78.66    1.86
  -3  -1  -5   76.65    1.98
   3  -1   5   77.46    1.68
   3   1   5   79.71    1.62
  -3   1  -5   77.34    1.98
  -3   1  -5   79.85    1.71
   3   1   5   78.40    1.85
  -4  -1  -5   55.75    1.63
  -4  -1  -5   58.48    1.48
   4  -1   5   57.90    1.33
  -4  -1  -5   55.97    1.26
  -4  -1  -5   56.08    1.27
   4  -1   5   55.70    1.35
   4  -1   5   56.17    1.60
  -4   1  -5   52.38    1.60
   4   1   5   57.43    1.29
   4   1   5   56.57    1.57
  -4   1  -5   58.02    1.35
   4   1   5   58.00    1.47
  -5  -1  -5    0.53    0.19
  -5  -1  -5    0.95    0.30
  -5  -1  -5    0.64    0.37
   5  -1   5    0.59    0.31
  -5  -1  -5    0.52    0.20
   5  -1   5    0.34    0.24
   5  -1   5    0.62    0.23
  -5   1  -5    0.61    0.22
   5   1   5    0.64    0.20
   5   1   5    0.88    0.30
  -5   1  -5    0.59    0.30
   5   1   5    0.30    0.28
  -6  -1  -5    2.68    0.30
   6  -1   5    2.21    0.34
  -6  -1  -5    1.87    0.44
  -6  -1  -5    2.50    0.41
  -6  -1  -5    2.58    0.32
   6  -1   5    2.14    0.42
   6  -1   5    2.60    0.39
   6   1   5    2.49    0.45
  -6   1  -5    2.77    0.47
  -6   1  -5    2.36    0.32
   6   1   5    2.67    0.34
   6   1   5    2.60    0.42
  -7  -1  -5   21.49    0.86
   7  -1   5   22.59    1.12
  -7  -1  -5   22.89    0.83
   7  -1   5   23.10    0.96
  -7  -1  -5   22.64    1.13
   7  -1   5   22.24    0.92
  -7   1  -5   21.87    0.87
  -7   1  -5   21.78    0.92
   7   1   5   22.78    1.03
   7   1   5   20.15    1.08
  -7   1  -5   23.70    1.15
   7   1   5   23.49    0.90
   8  -1   5    7.91    0.78
  -8  -1  -5    7.49    0.71
  -8  -1  -5    6.66    0.69
   8  -1   5    7.62    0.82
  -8  -1  -5    7.92    0.83
  -8  -1  -5    7.52    0.59
   8  -1   5    7.09    0.65
  -8   1  -5    7.18    0.70
   8   1   5    7.13    0.73
   8   1   5    6.38    0.71
  -8   1  -5    8.60    0.75
  -8   1  -5    7.73    0.64
   8   1   5    7.23    0.60
  -9  -1  -5    5.59    0.73
   9  -1   5    5.57    0.74
   9  -1   5    6.20    0.71
  -9  -1  -5    5.86    0.71
  -9  -1  -5    4.73    0.60
  -9  -1  -5    5.77    0.63
   9  -1   5    5.85    0.75
  -9   1  -5    5.18    0.81
  -9   1  -5    6.05    0.67
  -9   1  -5    5.53    0.83
  -9   1  -5    6.24    0.69
   9   1   5    5.84    0.83
   9   1   5    6.33    0.67
 -11  -2   5    1.09    0.59
 -11  -2   5    1.39    0.49
  11  -2  -5    0.77    0.57
  11  -2  -5    0.46    0.49
 -11  -2   5    0.86    0.47
 -11  -2   5    1.43    0.61
  11   2  -5    2.26    0.59
 -11   2   5    1.61    0.59
  11   2  -5    1.23    0.62
 -11   2   5    1.30    0.48
 -11   2   5    1.63    0.47
 -10  -2   5    2.11    0.49
  10  -2  -5    1.82    0.53
 -10  -2   5    1.29    0.40
 -10  -2   5    2.46    0.56
 -10  -2   5    2.00    0.41
  10  -2  -5    1.22    0.45
 -10   2   5    1.96    0.41
  10   2  -5    1.14    0.51
 -10   2   5    1.18    0.50
 -10   2   5    2.03    0.39
  10   2  -5    2.66    0.53
  -9  -2   5   15.48    0.98
   9  -2  -5   17.13    0.87
   9  -2  -5   17.29    0.97
  -9  -2   5   16.18    0.81
  -9  -2   5   15.26    0.87
  -9  -2   5   15.65    0.83
   9   2  -5   16.84    0.99
  -9   2   5   16.79    0.84
  -9   2   5   14.76    0.83
   9   2  -5   16.02    0.95
  -9   2   5   16.75    0.99
  -8  -2   5   23.66    0.92
   8  -2  -5   23.04    1.03
  -8  -2   5   22.35    0.88
  -8  -2   5   22.92    0.91
  -8  -2   5   24.57    1.07
   8  -2  -5   23.21    0.99
   8  -2  -5   19.91    0.93
  -8   2   5   19.46    0.89
   8   2  -5   23.75    1.09
  -8   2   5   20.32    0.90
  -8   2   5   23.48    1.06
   8   2  -5   23.19    1.03
   8   2  -5   22.06    0.84
  -7  -2   5   28.86    1.11
  -7  -2   5   30.39    0.99
   7  -2  -5   29.30    1.03
  -7  -2   5   26.73    0.97
   7  -2  -5   28.91    1.02
   7  -2  -5   28.94    1.15
  -7  -2   5   29.10    0.96
  -7   2   5   29.16    0.99
  -7   2   5   27.16    1.00
  -7   2   5   30.08    1.16
   7   2  -5   29.99    1.13
   7   2  -5   29.03    1.12
   7   2  -5   28.11    0.93
   6  -2  -5   30.09    1.00
  -6  -2   5   29.50    1.07
  -6  -2   5   30.84    0.96
  -6  -2   5   30.92    0.91
  -6  -2   5   30.77    0.97
   6  -2  -5   30.02    0.97
   6  -2  -5   30.05    1.13
   6   2  -5   29.54    1.06
   6   2  -5   30.77    0.94
   6   2  -5   29.60    1.06
  -6   2   5   30.79    0.97
  -6   2   5   31.47    1.14
  -6   2   5   30.51    0.98
  -5  -2   5    1.57    0.26
   5  -2  -5    1.21    0.25
  -5  -2   5    1.33    0.23
   5  -2  -5    1.89    0.28
   5  -2  -5    1.79    0.32
  -5  -2   5    1.48    0.21
  -5   2   5    1.21    0.27
   5   2  -5    1.48    0.22
  -5   2   5    1.54    0.25
   5   2  -5    1.34    0.24
   5   2  -5    0.85    0.26
  -4  -2   5    1.67    0.17
   4  -2  -5    1.34    0.24
   4  -2  -5    1.51    0.29
   4  -2  -5    1.79    0.25
  -4  -2   5    1.64    0.23
  -4  -2   5    1.68    0.24
  -4   2   5    1.17    0.23
   4   2  -5    1.73    0.29
   4   2  -5    1.62    0.26
   4   2  -5    1.24    0.19
  -4   2   5    1.32    0.21
  -3  -2   5   34.04    0.92
   3  -2  -5   34.15    1.10
   3  -2  -5   33.99    0.90
   3   2  -5   34.64    0.91
   3   2  -5   34.40    1.07
  -3   2   5   34.79    1.09
   3   2  -5   33.79    0.97
  -3   2   5   34.13    0.87
   2  -2  -5   48.81    1.36
  -2  -2   5   46.60    1.15
   2  -2  -5   48.00    1.09
   2   2  -5   46.83    1.14
   2   2  -5   47.41    1.16
  -2   2   5   47.44    1.33
  -2   2   5   46.97    1.06
   2   2  -5   47.53    1.35
  -1  -2   5  177.30    3.65
   1  -2  -5  175.03    4.05
  -1  -2   5  175.52    3.57
   1  -2  -5  173.39    3.44
  -1   2   5  175.06    4.03
   1   2  -5  172.08    3.62
  -1   2   5  174.28    3.43
   1   2  -5  175.73    3.56
   0  -2   5   33.41    0.90
   0  -2  -5   34.53    0.97
   0  -2  -5   32.99    0.97
   0  -2   5   33.23    0.87
   0   2  -5   32.56    0.86
  -1  -2  -5   97.80    2.31
   1  -2   5   96.18    2.23
   1  -2   5   98.54    2.08
  -1  -2  -5   96.42    2.25
  -1  -2  -5   93.02    2.22
  -1   2  -5   98.27    2.08
  -2  -2  -5    5.19    0.42
  -2  -2  -5    4.26    0.32
   2  -2   5    4.73    0.45
   2  -2   5    4.18    0.34
  -2  -2  -5    4.37    0.41
  -2   2  -5    4.65    0.40
  -2   2  -5    4.25    0.32
   3  -2   5    2.14    0.33
  -3  -2  -5    2.03    0.31
  -3  -2  -5    2.15    0.23
  -3  -2  -5    2.27    0.33
  -3  -2  -5    2.25    0.19
   3  -2   5    2.00    0.27
  -3  -2  -5    2.25    0.17
  -3   2  -5    2.38    0.27
   3   2   5    2.17    0.32
  -3   2  -5    2.15    0.31
   4  -2   5    9.47    0.53
  -4  -2  -5    8.60    0.36
  -4  -2  -5    8.82    0.36
   4  -2   5    8.55    0.65
  -4  -2  -5    9.73    0.61
  -4  -2  -5    7.83    0.60
  -4   2  -5    8.36    0.61
  -4   2  -5    7.84    0.49
   4   2   5    9.28    0.58
   5  -2   5   43.05    1.21
   5  -2   5   41.18    1.41
  -5  -2  -5   43.76    1.42
  -5  -2  -5   43.45    1.34
   5  -2   5   42.40    1.06
  -5  -2  -5   43.37    1.06
  -5  -2  -5   43.29    1.07
  -5   2  -5   42.57    1.44
  -5   2  -5   42.54    1.19
   5   2   5   43.48    1.33
   6  -2   5   24.16    0.96
   6  -2   5   24.11    1.11
  -6  -2  -5   24.86    1.13
  -6  -2  -5   26.75    0.81
  -6  -2  -5   24.60    0.81
   6  -2   5   26.14    0.82
  -6  -2  -5   26.06    1.06
  -6   2  -5   21.91    1.12
   6   2   5   25.12    1.07
  -6   2  -5   26.55    0.92
  -7  -2  -5    4.72    0.42
  -7  -2  -5    5.14    0.44
   7  -2   5    4.48    0.55
   7  -2   5    3.75    0.58
  -7  -2  -5    4.20    0.54
  -7  -2  -5    4.60    0.45
   7  -2   5    5.10    0.48
  -7  -2  -5    4.47    0.61
  -7   2  -5    4.81    0.49
  -7   2  -5    3.77    0.56
   7   2   5    5.25    0.61
  -8  -2  -5    1.03    0.38
  -8  -2  -5    0.88    0.41
  -8  -2  -5    1.28    0.41
  -8  -2  -5    2.26    0.59
   8  -2   5    1.43    0.55
   8  -2   5    1.39    0.47
   8  -2   5    1.11    0.50
   8   2   5    1.05    0.62
  -8   2  -5    2.15    0.64
  -8   2  -5    0.50    0.41
  -9  -2  -5   -0.43    0.49
  -9  -2  -5    0.73    0.50
   9  -2   5    0.01    0.63
   9  -2   5    0.62    0.55
   9  -2   5   -0.92    0.66
  -9  -2  -5    0.42    0.46
  -9  -2  -5    1.81    0.71
  -9   2  -5    0.24    0.56
  -9   2  -5    0.25    0.52
   9   2   5    1.79    0.76
  -9   2  -5    1.53    0.73
 -11  -3   5    3.29    0.72
 -11  -3   5    3.49    0.55
  11  -3  -5    4.06    0.79
  11  -3  -5    4.73    0.68
 -11  -3   5    4.90    0.77
 -11  -3   5    3.49    0.59
 -11   3   5    5.07    0.67
 -11   3   5    3.58    0.64
 -11   3   5    4.44    0.80
  11   3  -5    3.94    0.75
  11   3  -5    4.83    0.77
 -10  -3   5    3.11    0.47
  10  -3  -5    3.63    0.62
  10  -3  -5    3.68    0.66
 -10  -3   5    3.64    0.61
 -10  -3   5    3.75    0.64
 -10  -3   5    2.34    0.43
 -10   3   5    2.74    0.52
  10   3  -5    3.33    0.62
 -10   3   5    4.57    0.60
  10   3  -5    4.08    0.67
 -10   3   5    3.77    0.55
  -9  -3   5    3.04    0.51
  -9  -3   5    2.90    0.54
  -9  -3   5    3.27    0.47
   9  -3  -5    2.90    0.53
   9  -3  -5    2.70    0.55
  -9  -3   5    2.82    0.40
  -9   3   5    2.35    0.44
  -9   3   5    2.10    0.44
  -9   3   5    2.50    0.51
   9   3  -5    3.33    0.41
   9   3  -5    2.27    0.54
   9   3  -5    2.85    0.52
   8  -3  -5    0.59    0.42
  -8  -3   5    0.66    0.28
  -8  -3   5    0.46    0.31
  -8  -3   5    0.20    0.34
   8  -3  -5    0.01    0.41
  -8   3   5    0.18    0.34
  -8   3   5    0.82    0.33
   8   3  -5    0.64    0.27
   8   3  -5    0.76    0.43
   8   3  -5   -0.51    0.39
  -7  -3   5    0.43    0.26
  -7  -3   5   -0.08    0.23
   7  -3  -5    1.15    0.32
   7  -3  -5    0.46    0.34
   7  -3  -5    0.52    0.31
  -7  -3   5    0.45    0.25
   7   3  -5    0.65    0.37
   7   3  -5    1.02    0.37
  -7   3   5    0.59    0.35
  -7   3   5    0.39    0.27
   7   3  -5    0.71    0.22
  -6  -3   5    0.98    0.25
   6  -3  -5    1.32    0.33
   6  -3  -5    1.09    0.31
   6  -3  -5    0.69    0.28
  -6  -3   5    0.94    0.24
  -6  -3   5    1.20    0.26
   6   3  -5    1.31    0.21
  -6   3   5    1.26    0.31
  -6   3   5    0.88    0.27
   6   3  -5    0.79    0.32
   6   3  -5    1.06    0.29
  -5  -3   5    5.90    0.43
  -5  -3   5    5.37    0.39
   5  -3  -5    5.77    0.50
  -5  -3   5    5.90    0.43
   5  -3  -5    5.80    0.56
   5  -3  -5    6.01    0.50
   5   3  -5    6.45    0.51
   5   3  -5    6.08    0.55
  -5   3   5    5.74    0.44
   5   3  -5    6.17    0.41
  -5   3   5    5.90    0.55
   4  -3  -5   50.84    1.31
  -4  -3   5   51.77    1.35
   4  -3  -5   51.26    1.56
  -4  -3   5   51.65    1.33
  -4   3   5   51.47    1.56
   4   3  -5   50.26    1.32
   4   3  -5   51.65    1.40
  -4   3   5   50.63    1.28
   4   3  -5   52.85    1.50
   3  -3  -5   35.20    1.17
   3  -3  -5   35.02    0.94
  -3  -3   5   34.73    0.99
   3   3  -5   35.28    1.00
   3   3  -5   35.19    0.98
   3   3  -5   35.77    1.13
  -3   3   5   35.16    1.14
  -3   3   5   34.85    0.91
  -2  -3   5   33.10    0.93
   2  -3  -5   32.73    0.84
   2  -3  -5   32.74    1.07
   2   3  -5   32.74    0.92
  -2   3   5   31.98    0.82
  -2   3   5   32.32    1.04
   2   3  -5   32.54    0.89
   1  -3  -5   62.78    1.67
  -1  -3   5   61.96    1.49
   1  -3  -5   63.19    1.37
  -1  -3   5   62.63    1.50
   1   3  -5   63.35    1.43
  -1   3   5   62.86    1.36
  -1   3   5   62.33    1.63
   1   3  -5   62.98    1.49
   0  -3   5   25.36    0.80
   0  -3   5   26.84    0.81
   0  -3  -5   26.00    0.63
   0  -3  -5   26.13    0.84
   0  -3  -5   25.96    0.88
   0   3   5   25.71    0.63
   0   3  -5   25.85    0.79
   0   3   5   26.82    0.81
  -1  -3  -5   26.37    0.91
   1  -3   5   26.56    0.82
   1  -3   5   26.93    0.87
  -1  -3  -5   26.78    0.81
  -1  -3  -5   25.87    0.62
  -1   3  -5   26.30    0.80
   1   3   5   26.40    0.62
  -2  -3  -5   76.85    1.99
   2  -3   5   78.95    1.83
  -2  -3  -5   79.13    1.62
  -2  -3  -5   78.36    1.62
  -2  -3  -5   76.19    1.96
   2  -3   5   78.39    1.97
  -2  -3  -5   78.48    1.88
   2   3   5   79.81    1.62
  -2   3  -5   77.89    1.82
  -3  -3  -5   51.35    1.16
  -3  -3  -5   51.33    1.13
   3  -3   5   51.15    1.33
  -3  -3  -5   50.15    1.46
  -3  -3  -5   50.26    1.26
   3  -3   5   49.39    1.48
  -3  -3  -5   51.39    1.47
  -3   3  -5   50.19    1.32
   3   3   5   50.26    1.46
   4  -3   5   30.97    1.17
   4  -3   5   30.44    0.99
  -4  -3  -5   31.00    0.82
  -4  -3  -5   30.37    0.79
  -4  -3  -5   29.73    1.10
  -4  -3  -5   29.42    0.81
  -4  -3  -5   30.32    1.12
   4   3   5   31.53    1.12
  -4   3  -5   31.60    0.98
   5  -3   5    0.34    0.30
  -5  -3  -5    0.47    0.16
  -5  -3  -5    0.44    0.31
  -5  -3  -5    0.47    0.21
   5  -3   5    0.68    0.38
  -5  -3  -5    1.17    0.38
  -5  -3  -5    0.71    0.22
  -5   3  -5    0.47    0.27
  -5   3  -5   -0.07    0.34
   5   3   5   -0.02    0.34
   6  -3   5    0.47    0.36
  -6  -3  -5    0.48    0.25
  -6  -3  -5    0.05    0.38
   6  -3   5    0.93    0.27
  -6  -3  -5    1.12    0.27
  -6  -3  -5    0.37    0.41
   6  -3   5    0.93    0.44
  -6   3  -5    0.27    0.31
  -6   3  -5    0.66    0.48
   6   3   5    0.33    0.44
   7  -3   5   14.24    0.95
   7  -3   5   16.59    1.06
  -7  -3  -5   15.95    1.13
  -7  -3  -5   15.90    0.74
  -7  -3  -5   16.41    0.74
   7  -3   5   16.10    0.73
  -7  -3  -5   16.37    1.06
  -7   3  -5   13.52    1.12
  -7   3  -5   16.58    0.89
   7   3   5   17.19    1.10
  -8  -3  -5    3.74    0.64
   8  -3   5    5.40    0.55
   8  -3   5    3.28    0.74
  -8  -3  -5    5.12    0.55
  -8  -3  -5    3.90    0.75
  -8  -3  -5    5.72    0.54
   8  -3   5    5.80    0.68
   8   3   5    5.32    0.75
  -8   3  -5    3.83    0.73
  -8   3  -5    5.60    0.64
 -10  -4   5    0.97    0.66
 -10  -4   5    0.52    0.50
  10  -4  -5    2.22    0.61
 -10  -4   5    2.06    0.50
  10  -4  -5    2.34    0.70
 -10   4   5    0.51    0.54
  10   4  -5    0.02    0.66
  10   4  -5    1.69    0.49
  10   4  -5    2.29    0.62
 -10   4   5    0.48    0.57
   9  -4  -5    4.96    0.61
  -9  -4   5    4.84    0.65
  -9  -4   5    4.81    0.51
   9  -4  -5    5.59    0.70
  -9  -4   5    6.18    0.56
  -9   4   5    3.87    0.63
   9   4  -5    4.66    0.67
   9   4  -5    4.74    0.42
   9   4  -5    4.87    0.61
  -9   4   5    4.73    0.60
   8  -4  -5    8.55    0.93
  -8  -4   5    8.27    0.77
   8  -4  -5    7.41    0.69
  -8  -4   5    6.42    0.64
  -8  -4   5    8.19    0.66
   8   4  -5    7.40    0.59
  -8   4   5    7.47    0.75
   8   4  -5    6.80    0.73
  -8   4   5    8.23    0.78
   8   4  -5    8.94    0.79
  -7  -4   5    5.84    0.54
  -7  -4   5    6.26    0.59
   7  -4  -5    6.41    0.64
   7  -4  -5    6.55    0.63
  -7  -4   5    5.82    0.60
   7   4  -5    4.93    0.62
   7   4  -5    5.54    0.50
  -7   4   5    7.14    0.75
   7   4  -5    6.33    0.65
  -7   4   5    7.71    0.64
   6  -4  -5    4.24    0.47
  -6  -4   5    3.42    0.38
  -6  -4   5    4.74    0.51
  -6  -4   5    3.94    0.42
   6  -4  -5    3.11    0.43
   6   4  -5    4.95    0.57
  -6   4   5    5.15    0.51
   6   4  -5    4.17    0.42
   6   4  -5    4.60    0.53
  -6   4   5    3.99    0.50
   5  -4  -5   -0.02    0.27
  -5  -4   5    0.31    0.22
  -5  -4   5    0.27    0.24
  -5  -4   5   -0.28    0.21
   5   4  -5    0.31    0.20
   5   4  -5    0.10    0.26
   5   4  -5    0.15    0.29
  -5   4   5   -0.12    0.26
  -5   4   5   -0.14    0.23
   4  -4  -5    0.39    0.28
   4  -4  -5    0.27    0.23
  -4  -4   5    0.00    0.18
  -4  -4   5   -0.01    0.27
  -4   4   5    0.24    0.21
   4   4  -5   -0.08    0.26
  -4   4   5   -0.02    0.26
   4   4  -5   -0.23    0.24
   4   4  -5    0.36    0.19
   3  -4  -5    4.28    0.46
  -3  -4   5    4.77    0.41
   3  -4  -5    4.70    0.41
  -3  -4   5    5.08    0.48
  -3   4   5    4.47    0.52
   3   4  -5    4.68    0.49
   3   4  -5    4.63    0.37
  -3   4   5    4.64    0.38
   3   4  -5    4.72    0.45
  -2  -4   5    4.47    0.42
   2  -4  -5    4.98    0.38
   2  -4  -5    4.43    0.51
  -2  -4   5    4.39    0.42
   2   4  -5    4.60    0.42
  -2   4   5    4.62    0.36
   2   4  -5    5.78    0.41
  -2   4   5    5.16    0.49
  -1  -4   5   31.07    0.89
  -1  -4   5   32.51    0.98
   1  -4  -5   31.12    0.84
   1  -4  -5   30.43    1.04
   1  -4  -5   31.86    1.04
   1   4  -5   32.52    0.97
  -1   4   5   32.01    0.84
   1   4  -5   31.80    0.88
  -1   4   5   32.92    1.01
   0  -4  -5    4.11    0.31
   0  -4  -5    4.46    0.45
   0  -4  -5    4.00    0.40
   0  -4   5    4.05    0.39
   0  -4   5    4.04    0.32
   0  -4   5    4.94    0.44
   0   4   5    4.00    0.38
   0   4   5    4.18    0.30
   0   4  -5    4.60    0.41
  -1  -4  -5   22.80    0.65
  -1  -4  -5   23.29    0.72
  -1  -4  -5   22.69    0.89
   1  -4   5   23.26    0.83
   1  -4   5   23.41    0.86
   1   4   5   21.51    0.62
  -1   4  -5   23.54    0.80
  -2  -4  -5    3.80    0.32
   2  -4   5    2.86    0.39
   2  -4   5    2.94    0.36
  -2  -4  -5    3.59    0.45
  -2  -4  -5    3.74    0.30
  -2   4  -5    3.09    0.34
   2   4   5    3.68    0.27
  -3  -4  -5    0.18    0.18
  -3  -4  -5    0.04    0.27
   3  -4   5    0.22    0.27
  -3  -4  -5    0.24    0.19
   3  -4   5    0.26    0.32
  -3  -4  -5    0.04    0.29
  -3   4  -5    0.50    0.27
   3   4   5    0.20    0.17
  -4  -4  -5    0.47    0.35
  -4  -4  -5    0.49    0.22
   4  -4   5    0.78    0.41
  -4  -4  -5    0.68    0.24
  -4  -4  -5    0.26    0.32
   4  -4   5    0.05    0.31
  -4   4  -5    0.22    0.27
   4   4   5    0.49    0.22
   4   4   5    0.63    0.39
   5  -4   5   10.57    0.91
   5  -4   5   10.70    0.77
  -5  -4  -5   10.53    0.59
  -5  -4  -5   10.43    0.55
  -5  -4  -5   10.81    0.85
  -5  -4  -5   12.31    0.82
   5   4   5   10.95    0.88
  -5   4  -5    9.75    0.73
   6  -4   5    7.55    0.82
  -6  -4  -5    8.15    0.62
  -6  -4  -5    8.61    0.88
  -6  -4  -5    8.94    0.82
   6  -4   5    7.02    0.64
  -6  -4  -5    8.03    0.59
   6  -4   5    7.65    0.50
   6   4   5    6.52    0.71
  -6   4  -5    8.02    0.76
   7  -4   5    1.63    0.64
   7  -4   5    2.31    0.40
  -7  -4  -5    2.47    0.44
   7  -4   5    1.77    0.54
  -7  -4  -5    2.32    0.57
  -7  -4  -5    3.52    0.70
  -7  -4  -5    2.63    0.40
   7   4   5    1.59    0.64
  -7   4  -5    2.57    0.54
  -8  -4  -5    1.40    0.49
  -8  -4  -5    2.59    0.69
  -8  -4  -5    1.14    0.44
  -8  -4  -5    0.24    0.77
   8  -4   5    0.00    0.63
   8  -4   5    0.58    0.71
   8  -4   5    1.55    0.47
   8   4   5    0.68    0.77
  -8   4  -5   -0.04    0.56
 -10  -5   5    0.37    0.64
  10  -5  -5    1.45    0.84
 -10  -5   5    0.97    0.58
  10  -5  -5    1.70    0.73
 -10  -5   5    1.22    0.78
 -10   5   5    1.63    0.74
  10   5  -5    0.40    0.52
  10   5  -5    1.95    0.68
  10   5  -5   -0.77    0.77
 -10   5   5    0.60    0.63
  -9  -5   5    0.71    0.60
  -9  -5   5   -0.22    0.50
   9  -5  -5    0.23    0.62
   9  -5  -5    0.27    0.65
  -9  -5   5    0.05    0.51
  -9   5   5   -0.43    0.56
   9   5  -5   -0.19    0.54
   9   5  -5   -2.10    0.60
   9   5  -5   -0.89    0.41
  -9   5   5    0.60    0.54
   8  -5  -5   -0.10    0.49
   8  -5  -5    0.26    0.56
  -8  -5   5    0.75    0.48
  -8  -5   5   -0.09    0.39
  -8  -5   5   -0.43    0.39
   8   5  -5   -0.20    0.43
   8   5  -5    0.34    0.38
  -8   5   5   -0.38    0.45
  -8   5   5   -0.95    0.47
   8   5  -5   -0.51    0.55
  -7  -5   5    0.25    0.37
   7  -5  -5    0.62    0.51
  -7  -5   5    0.05    0.32
  -7  -5   5   -0.02    0.32
   7  -5  -5   -0.64    0.42
   7   5  -5   -0.04    0.45
  -7   5   5    0.33    0.36
   7   5  -5    0.19    0.32
   7   5  -5   -0.05    0.38
  -7   5   5   -0.31    0.44
   6  -5  -5    0.46    0.37
  -6  -5   5    0.37    0.28
   6  -5  -5    0.39    0.43
  -6  -5   5    0.48    0.29
  -6  -5   5    0.86    0.34
   6   5  -5    1.13    0.44
  -6   5   5    0.08    0.40
  -6   5   5    0.72    0.33
   6   5  -5    0.53    0.33
   6   5  -5    0.83    0.28
  -5  -5   5    1.77    0.43
  -5  -5   5    1.27    0.30
   5  -5  -5    1.42    0.38
   5   5  -5    1.96    0.38
   5   5  -5    1.73    0.30
   5   5  -5    2.22    0.44
  -5   5   5    1.61    0.32
  -5   5   5    0.46    0.38
  -4  -5   5    9.06    0.59
   4  -5  -5    9.72    0.64
  -4  -5   5    8.95    0.72
   4   5  -5    9.01    0.69
   4   5  -5    8.43    0.52
   4   5  -5    9.05    0.69
  -4   5   5   10.24    0.81
  -4   5   5    7.98    0.57
  -3  -5   5    8.63    0.57
   3  -5  -5    8.89    0.57
  -3  -5   5    8.26    0.66
   3   5  -5    8.28    0.53
  -3   5   5   10.27    0.79
  -3   5   5    8.36    0.54
   3   5  -5    8.49    0.62
  -2  -5   5    6.31    0.54
   2  -5  -5    5.90    0.53
  -2  -5   5    6.21    0.52
   2  -5  -5    5.92    0.49
   2   5  -5    5.78    0.46
  -2   5   5    6.53    0.62
  -2   5   5    6.83    0.47
   2   5  -5    5.57    0.50
  -1  -5   5   14.06    0.70
  -1  -5   5   14.25    0.64
   1  -5  -5   13.83    0.71
   1  -5  -5   14.36    0.60
  -1   5   5   13.74    0.58
  -1   5   5   13.33    0.69
   1   5  -5   14.10    0.65
   0  -5   5    4.10    0.42
   0  -5  -5    4.94    0.47
   0  -5   5    4.17    0.42
   0  -5   5    5.05    0.49
   0  -5  -5    4.01    0.33
   0   5   5    4.26    0.39
   0   5   5    4.82    0.44
   0   5  -5    5.23    0.49
   1  -5   5    3.55    0.47
  -1  -5  -5    3.08    0.31
  -1  -5  -5    4.08    0.46
   1  -5   5    3.29    0.43
   1  -5   5    3.25    0.29
  -1   5  -5    2.60    0.36
   1   5   5    3.64    0.36
   1   5   5    3.62    0.36
  -2  -5  -5   16.12    0.63
   2  -5   5   16.83    0.82
   2  -5   5   17.19    0.90
   2  -5   5   16.63    0.55
  -2  -5  -5   16.61    0.87
   2   5   5   16.97    0.60
  -2   5  -5   17.86    0.78
  -3  -5  -5   15.47    0.87
   3  -5   5   12.78    0.90
  -3  -5  -5   12.30    0.58
   3  -5   5   12.43    0.78
  -3  -5  -5   12.64    0.60
  -3  -5  -5   15.70    0.84
   3   5   5   13.38    0.55
  -3   5  -5   13.27    0.73
  -4  -5  -5    7.99    0.82
  -4  -5  -5    8.66    0.80
   4  -5   5    8.15    0.75
   4  -5   5   10.33    0.92
  -4  -5  -5    8.31    0.57
  -4  -5  -5    9.08    0.57
   4   5   5    9.40    0.54
  -4   5  -5    8.02    0.70
   5  -5   5    0.60    0.50
  -5  -5  -5    0.24    0.31
   5  -5   5    0.49    0.43
  -5  -5  -5    0.12    0.46
  -5  -5  -5    0.16    0.49
  -5  -5  -5    0.17    0.33
   5   5   5    0.16    0.32
   5   5   5    0.09    0.50
  -5   5  -5    0.66    0.40
  -6  -5  -5    1.44    0.43
  -6  -5  -5    0.90    0.52
   6  -5   5    0.77    0.52
  -6  -5  -5    0.91    0.39
  -6  -5  -5    0.21    0.57
   6  -5   5    0.84    0.64
  -6   5  -5    0.08    0.46
   6   5   5    1.32    0.63
  -7  -5  -5    3.32    0.82
  -7  -5  -5    3.45    0.51
   7  -5   5    4.56    0.73
  -7  -5  -5    3.98    0.56
   7  -5   5    3.71    0.83
  -7  -5  -5    3.05    0.66
   7   5   5    3.69    0.86
  -7   5  -5    3.65    0.62
   9  -6  -5    2.81    0.77
  -9  -6   5    0.86    0.62
   9  -6  -5    0.98    0.86
  -9  -6   5    0.32    0.70
  -9  -6   5    1.37    0.66
   9   6  -5    1.70    0.87
  -9   6   5    0.21    0.75
   9   6  -5    2.30    0.57
  -9   6   5    0.79    0.72
   9   6  -5    2.32    0.68
  -8  -6   5    5.25    0.64
   8  -6  -5    4.12    0.75
   8  -6  -5    5.24    0.79
  -8  -6   5    5.14    0.63
  -8  -6   5    5.85    0.75
  -8   6   5    6.25    0.78
   8   6  -5    5.27    0.53
   8   6  -5    3.65    0.78
   8   6  -5    5.05    0.64
   7  -6  -5    4.13    0.65
   7  -6  -5    4.06    0.71
  -7  -6   5    3.74    0.52
  -7  -6   5    4.45    0.58
  -7  -6   5    3.69    0.58
  -7   6   5    3.30    0.57
   7   6  -5    4.62    0.58
  -7   6   5    3.22    0.70
   7   6  -5    4.42    0.71
   7   6  -5    4.48    0.45
  -6  -6   5    2.64    0.40
  -6  -6   5    3.66    0.53
   6  -6  -5    2.35    0.62
  -6  -6   5    3.48    0.43
  -6  -6   5    2.23    0.64
   6  -6  -5    2.24    0.54
  -6   6   5    1.90    0.60
   6   6  -5    2.39    0.47
   6   6  -5    3.15    0.38
   6   6  -5    3.34    0.62
  -6   6   5    1.68    0.48
   5  -6  -5   -0.13    0.39
  -5  -6   5    0.58    0.35
  -5  -6   5   -0.29    0.48
   5   6  -5    0.24    0.39
  -5   6   5    0.01    0.36
  -5   6   5   -0.68    0.46
   5   6  -5   -0.11    0.30
   5   6  -5   -0.12    0.44
  -4  -6   5   -0.54    0.40
   4  -6  -5   -0.51    0.37
  -4  -6   5   -0.36    0.31
   4   6  -5    0.36    0.41
  -4   6   5    0.42    0.46
  -4   6   5    0.34    0.33
   4   6  -5    0.56    0.27
   4   6  -5   -0.07    0.36
   3  -6  -5    2.90    0.39
  -3  -6   5    2.38    0.39
   3  -6  -5    3.38    0.45
  -3  -6   5    2.81    0.46
  -3   6   5    2.82    0.50
   3   6  -5    2.88    0.44
   3   6  -5    3.35    0.35
  -3   6   5    3.53    0.41
   2  -6  -5    5.13    0.49
   2  -6  -5    5.18    0.52
  -2  -6   5    6.37    0.62
  -2  -6   5    5.78    0.55
   2   6  -5    5.34    0.53
  -2   6   5    5.26    0.54
  -2   6   5    4.68    0.45
   2   6  -5    5.91    0.53
  -1  -6   5   18.17    0.86
  -1  -6   5   18.79    0.83
   1  -6  -5   19.01    0.90
   1  -6  -5   18.40    0.80
   1   6  -5   19.69    0.83
  -1   6   5   19.28    0.86
  -1   6   5   18.26    0.77
   0  -6   5    3.60    0.39
   0  -6   5    5.20    0.52
   0  -6  -5    3.19    0.43
   0  -6  -5    3.69    0.41
   0   6   5    4.84    0.53
   0   6  -5    3.87    0.43
   0   6   5    4.07    0.39
   1  -6   5    6.28    0.55
   1  -6   5    7.94    0.67
  -1  -6  -5    5.76    0.56
  -1  -6  -5    5.77    0.58
   1  -6   5    6.22    0.62
   1   6   5    6.20    0.46
   1   6   5    5.56    0.51
  -1   6  -5    6.96    0.64
   2  -6   5    0.89    0.47
  -2  -6  -5    0.59    0.44
   2  -6   5    0.03    0.36
  -2  -6  -5    0.63    0.33
   2  -6   5    0.39    0.27
   2   6   5    0.93    0.30
  -2   6  -5    0.25    0.33
  -3  -6  -5    0.66    0.31
   3  -6   5    0.12    0.41
  -3  -6  -5    0.12    0.34
   3  -6   5    0.11    0.47
   3  -6   5   -0.38    0.26
  -3  -6  -5    0.35    0.43
   3   6   5    0.09    0.27
  -3   6  -5   -0.16    0.33
   4  -6   5    0.87    0.58
   4  -6   5    0.88    0.48
  -4  -6  -5    1.60    0.38
   4  -6   5    1.22    0.28
  -4  -6  -5    1.15    0.49
  -4  -6  -5    1.29    0.40
  -4  -6  -5    0.86    0.54
   4   6   5    1.68    0.35
  -4   6  -5    1.15    0.46
  -5  -6  -5    5.03    0.70
   5  -6   5    4.35    0.65
   5  -6   5    5.08    0.79
  -5  -6  -5    6.49    0.56
  -5  -6  -5    5.84    0.69
  -5  -6  -5    7.13    0.71
  -5   6  -5    6.09    0.67
   5   6   5    5.69    0.49
  -6  -6  -5    3.25    0.54
   6  -6   5    1.70    0.79
  -6  -6  -5    4.29    0.60
   6  -6   5    4.77    0.73
  -6  -6  -5    3.54    0.76
  -6  -6  -5    3.99    0.68
   6   6   5    3.67    0.53
  -6   6  -5    4.31    0.69
   6   6   5    4.78    0.85
  -7  -7   5    0.08    0.65
  -7  -7   5    0.05    0.58
  -7  -7   5   -0.46    0.78
   7  -7  -5    0.39    0.75
   7  -7  -5    0.01    0.69
  -7  -7   5   -0.30    0.57
  -7   7   5   -2.19    0.74
   7   7  -5   -0.15    0.51
  -7   7   5   -0.23    0.64
   7   7  -5    0.98    0.74
   7   7  -5    0.12    0.54
  -6  -7   5    0.88    0.71
  -6  -7   5    1.71    0.53
   6  -7  -5    1.03    0.66
   6  -7  -5    1.19    0.61
  -6  -7   5    0.92    0.49
   6   7  -5    0.97    0.52
  -6   7   5    0.88    0.57
   6   7  -5    0.33    0.63
  -6   7   5   -0.80    0.70
   6   7  -5    1.14    0.46
  -5  -7   5    1.05    0.47
  -5  -7   5    2.30    0.68
   5  -7  -5    1.40    0.54
  -5   7   5    1.37    0.70
  -5   7   5    1.73    0.50
   5   7  -5    2.18    0.56
   5   7  -5    1.96    0.52
   5   7  -5    1.44    0.40
  -4  -7   5    4.99    0.57
   4  -7  -5    5.68    0.60
   4  -7  -5    4.52    0.60
  -4  -7   5    4.13    0.67
  -4   7   5    4.41    0.71
   4   7  -5    4.03    0.61
  -4   7   5    5.06    0.55
   4   7  -5    3.94    0.59
   4   7  -5    4.15    0.46
   3  -7  -5    4.47    0.53
  -3  -7   5    5.58    0.64
   3  -7  -5    4.25    0.55
  -3  -7   5    3.04    0.45
   3   7  -5    4.95    0.62
   3   7  -5    4.48    0.45
  -3   7   5    4.55    0.53
  -3   7   5    2.94    0.61
   2  -7  -5    0.99    0.40
   2  -7  -5    0.62    0.46
  -2  -7   5    1.16    0.41
  -2  -7   5    0.75    0.46
  -2   7   5    1.45    0.42
   2   7  -5    1.68    0.37
  -2   7   5    1.78    0.49
  -1  -7   5    2.19    0.49
   1  -7  -5    2.95    0.50
   1  -7  -5    2.09    0.47
  -1  -7   5    2.55    0.46
  -1   7   5    1.38    0.44
  -1   7   5    1.64    0.40
   1   7  -5    2.03    0.41
   0  -7   5    1.63    0.44
   0  -7  -5    3.33    0.51
   0  -7  -5    1.33    0.47
   0  -7   5    2.10    0.46
   0   7  -5    2.14    0.41
   0   7   5    2.50    0.39
   0   7   5    2.44    0.42
  -1  -7  -5    1.77    0.46
   1  -7   5    2.08    0.41
  -1  -7  -5    3.31    0.53
   1  -7   5    2.03    0.52
   1  -7   5    0.91    0.59
   1   7   5    1.76    0.30
  -1   7  -5    2.75    0.50
   1   7   5    1.97    0.40
   2  -7   5    5.38    0.52
   2  -7   5    6.75    0.77
  -2  -7  -5    9.05    0.94
   2  -7   5    5.86    0.69
  -2  -7  -5    6.93    0.61
   2   7   5    7.09    0.68
  -2   7  -5    6.51    0.62
   3  -7   5    5.60    0.50
  -3  -7  -5    5.76    0.60
  -3  -7  -5    4.36    0.64
   3  -7   5    4.18    0.77
   3  -7   5    4.56    0.63
  -3   7  -5    5.48    0.60
   3   7   5    4.91    0.51
   4  -7   5    2.92    0.64
   4  -7   5    1.41    0.42
  -4  -7  -5    1.22    0.69
  -4  -7  -5    2.20    0.54
  -4  -7  -5    1.99    0.51
  -4  -7  -5    2.21    0.68
   4  -7   5    1.24    0.73
   4   7   5    1.47    0.47
  -4   7  -5    1.92    0.61
  -5  -8   5    0.49    0.81
   5  -8  -5   -0.30    0.68
  -5  -8   5   -1.55    0.61
   5  -8  -5   -0.86    0.76
  -5   8   5   -0.99    0.65
   5   8  -5   -0.71    0.78
   5   8  -5   -0.56    0.56
  -4  -8   5   -0.23    0.56
   4  -8  -5    1.56    0.70
   4  -8  -5    0.63    0.66
  -4  -8   5    0.39    0.75
  -4   8   5    0.08    0.58
   4   8  -5   -0.32    0.72
  -4   8   5    0.14    0.76
   4   8  -5    0.12    0.63
   4   8  -5   -0.44    0.53
   3  -8  -5    0.15    0.64
  -3  -8   5    1.34    0.54
  -3  -8   5    1.25    0.66
   3  -8  -5   -0.25    0.56
  -3   8   5    0.29    0.67
  -3   8   5    1.03    0.54
   3   8  -5    0.42    0.52
  -2  -8   5    0.80    0.49
  -2  -8   5   -0.26    0.63
   2  -8  -5   -0.17    0.63
   2  -8  -5   -0.15    0.54
  -2   8   5    1.27    0.64
  -2   8   5    0.51    0.51
   2   8  -5    0.69    0.48
   1  -8  -5    2.79    0.61
  -1  -8   5    2.45    0.58
   1  -8  -5    1.37    0.65
  -1  -8   5    3.31    0.67
  -1   8   5    2.38    0.56
  -1   8   5    3.42    0.56
   1   8  -5    2.84    0.53
   0  -8   5    0.25    0.58
   0  -8   5    0.23    0.54
   0  -8  -5    0.03    0.54
   0  -8  -5   -0.48    0.64
   0   8   5    0.04    0.48
   0   8  -5    1.22    0.56
   0   8   5    0.29    0.45
  -1  -8  -5    1.22    0.65
   1  -8   5   -0.05    0.58
   1  -8   5   -1.10    0.73
   1  -8   5    1.90    0.57
  -1  -8  -5    1.01    0.57
  -1   8  -5    0.37    0.58
   1   8   5    0.69    0.50
   2  -8   5    0.54    0.70
   2  -8   5    0.77    0.77
  -2  -8  -5    0.90    0.71
   2  -8   5    0.51    0.55
  -2  -8  -5    0.29    0.59
  -2   8  -5   -0.10    0.63
   2   8   5    0.19    0.51
 -12   0   6    1.08    0.70
 -12   0   6   -0.58    0.53
  12   0  -6    0.04    0.64
  12   0  -6   -0.45    0.66
  12   0  -6    0.71    0.57
 -12   0   6    0.65    0.72
 -12   0   6   -1.23    0.49
  11   0  -6    3.11    0.63
 -11   0   6    2.71    0.49
 -11   0   6    4.91    0.64
  11   0  -6    3.81    0.63
 -11   0   6    4.24    0.52
  11   0  -6    4.89    0.60
 -11   0   6    3.88    0.70
  11   0  -6    3.75    0.72
  10   0  -6   19.66    0.95
 -10   0   6   18.21    0.95
  10   0  -6   18.41    1.06
 -10   0   6   19.57    1.20
 -10   0   6   18.60    1.02
  10   0  -6   19.18    1.00
 -10   0   6   19.46    0.94
  10   0  -6   20.23    1.18
  -9   0   6   17.34    0.83
  -9   0   6   16.15    1.00
  -9   0   6   15.61    0.80
   9   0  -6   15.90    0.89
   9   0  -6   16.01    0.84
   9   0  -6   15.27    0.83
   9   0  -6   15.24    0.97
  -9   0   6   15.69    0.83
   8   0  -6   30.78    1.09
  -8   0   6   28.93    1.06
  -8   0   6   30.37    1.23
  -8   0   6   31.52    1.03
   8   0  -6   30.31    1.01
  -8   0   6   31.17    1.08
   8   0  -6   29.92    1.25
  -7   0   6    6.03    0.51
  -7   0   6    7.99    0.57
   7   0  -6    7.31    0.57
  -7   0   6    6.50    0.49
   7   0  -6    8.10    0.64
   7   0  -6    6.68    0.47
  -7   0   6    7.40    0.62
   6   0  -6    2.87    0.34
   6   0  -6    3.38    0.37
   6   0  -6    3.26    0.33
  -6   0   6    3.46    0.36
  -6   0   6    2.70    0.36
  -6   0   6    4.04    0.37
   5   0  -6    0.69    0.20
  -5   0   6    0.52    0.20
   5   0  -6    0.53    0.15
   5   0  -6    0.48    0.19
  -5   0   6    0.61    0.21
  -5   0   6    0.55    0.22
   4   0  -6    7.18    0.47
  -4   0   6    6.92    0.48
  -4   0   6    7.14    0.38
   4   0  -6    6.88    0.41
  -4   0   6    6.74    0.42
   3   0  -6   46.69    1.11
  -3   0   6   46.59    1.14
   3   0  -6   45.64    1.36
  -3   0   6   46.30    1.35
  -3   0   6   45.89    1.09
   2   0  -6   22.32    0.59
   2   0  -6   21.56    0.80
  -2   0   6   22.15    0.61
  -2   0   6   22.59    0.59
   1   0  -6    9.68    0.51
   1   0  -6   10.15    0.31
  -1   0   6   10.34    0.33
   1   0  -6   10.25    0.37
  -1   0   6    9.89    0.34
   0   0  -6   22.26    0.69
   0   0  -6   22.42    0.80
   0   0   6   23.89    0.54
   0   0  -6   22.35    0.52
   0   0  -6   23.89    0.65
   0   0   6   22.63    0.53
   1   0   6    5.35    0.21
   1   0   6    5.20    0.36
  -1   0  -6    5.20    0.19
  -1   0  -6    4.81    0.39
  -1   0  -6    5.57    0.31
  -2   0  -6    1.64    0.19
  -2   0  -6    2.22    0.31
   2   0   6    1.88    0.28
   2   0   6    2.17    0.17
  -2   0  -6    2.17    0.17
   3   0   6    0.10    0.23
  -3   0  -6    0.32    0.26
  -3   0  -6    0.27    0.14
   3   0   6    0.29    0.15
  -3   0  -6    0.18    0.17
  -4   0  -6   26.50    1.04
  -4   0  -6   25.15    0.74
  -4   0  -6   24.69    0.80
   4   0   6   25.87    0.76
  -4   0  -6   26.18    0.71
   4   0   6   26.74    1.00
   4   0   6   26.55    0.82
  -5   0  -6   36.02    0.95
   5   0   6   36.03    1.01
  -5   0  -6   34.76    1.32
  -5   0  -6   36.53    0.99
   5   0   6   35.13    1.05
   5   0   6   35.24    1.27
   6   0   6   16.03    0.75
   6   0   6   14.11    0.69
  -6   0  -6   14.55    0.63
  -6   0  -6   14.56    0.67
  -6   0  -6   15.92    0.97
   6   0   6   13.93    0.91
  -7   0  -6    5.16    0.49
  -7   0  -6    4.69    0.65
   7   0   6    5.92    0.57
  -7   0  -6    5.55    0.47
   7   0   6    6.33    0.64
   7   0   6    4.16    0.60
  -8   0  -6    0.37    0.41
   8   0   6    0.01    0.59
   8   0   6    0.02    0.46
  -8   0  -6   -0.26    0.41
  -8   0  -6    0.39    0.60
   8   0   6    0.18    0.50
  12  -1  -6   10.47    0.93
 -12  -1   6   13.24    1.04
 -12  -1   6   11.32    1.02
 -12  -1   6    9.23    0.92
  12  -1  -6   10.60    1.07
  12  -1  -6   11.19    1.01
 -12  -1   6   11.08    1.08
  12   1  -6   11.16    1.01
 -12   1   6    9.74    1.04
 -12   1   6    9.94    0.98
 -12   1   6   10.28    1.00
  12   1  -6   11.38    0.93
  12   1  -6   13.68    1.49
 -11  -1   6    3.72    0.49
 -11  -1   6    3.39    0.47
  11  -1  -6    2.78    0.56
  11  -1  -6    3.48    0.60
 -11  -1   6    3.98    0.62
  11  -1  -6    2.80    0.60
 -11  -1   6    3.51    0.74
  11   1  -6    3.78    0.72
 -11   1   6    3.37    0.73
  11   1  -6    2.57    0.55
 -11   1   6    3.87    0.52
 -11   1   6    2.50    0.55
  11   1  -6    3.07    0.53
  10  -1  -6   12.67    1.01
  10  -1  -6   12.68    0.90
 -10  -1   6   14.56    0.83
 -10  -1   6   13.24    0.90
  10  -1  -6   12.06    0.86
 -10  -1   6   13.76    0.80
 -10  -1   6   13.33    1.07
  10   1  -6   11.80    0.83
 -10   1   6   12.11    1.01
  10   1  -6   13.29    0.93
  10   1  -6   13.79    1.09
 -10   1   6   11.82    0.84
 -10   1   6   12.97    0.84
  -9  -1   6    0.49    0.44
   9  -1  -6    0.43    0.35
  -9  -1   6    0.40    0.30
  -9  -1   6    0.67    0.32
   9  -1  -6    0.83    0.39
  -9  -1   6    0.95    0.38
   9  -1  -6    0.60    0.33
  -9   1   6    0.49    0.31
   9   1  -6    1.04    0.39
  -9   1   6    0.76    0.37
   9   1  -6    1.01    0.40
  -9   1   6    1.33    0.43
   9   1  -6    0.52    0.34
  -8  -1   6    0.30    0.25
  -8  -1   6    0.45    0.31
   8  -1  -6    0.28    0.33
  -8  -1   6    0.00    0.26
   8  -1  -6    0.48    0.31
   8  -1  -6    0.25    0.28
  -8  -1   6   -0.10    0.33
  -8   1   6    0.36    0.30
   8   1  -6    0.15    0.34
  -8   1   6    0.87    0.29
   8   1  -6    0.37    0.36
  -8   1   6    0.13    0.30
   8   1  -6    0.25    0.30
  -7  -1   6   11.69    0.66
   7  -1  -6   11.56    0.73
  -7  -1   6   11.41    0.62
  -7  -1   6   11.40    0.55
   7  -1  -6   12.13    0.67
   7  -1  -6   11.91    0.62
  -7  -1   6   11.66    0.75
  -7   1   6   12.68    0.66
   7   1  -6   10.08    0.73
   7   1  -6   12.02    0.75
   7   1  -6   11.42    0.67
  -7   1   6   12.77    0.66
  -7   1   6   11.27    0.71
  -6  -1   6   38.86    1.01
  -6  -1   6   40.75    1.33
  -6  -1   6   39.34    1.13
  -6  -1   6   38.49    1.17
   6  -1  -6   38.30    1.31
   6  -1  -6   39.21    1.08
   6  -1  -6   39.80    1.16
  -6   1   6   41.15    1.15
  -6   1   6   39.86    1.34
   6   1  -6   39.79    1.30
  -6   1   6   39.97    1.17
   6   1  -6   39.58    1.27
   6   1  -6   39.59    1.13
   5  -1  -6   74.80    1.79
   5  -1  -6   75.42    1.73
  -5  -1   6   77.44    1.82
   5  -1  -6   74.89    2.08
  -5  -1   6   71.61    1.63
  -5  -1   6   75.59    2.05
  -5  -1   6   78.12    1.78
   5   1  -6   75.37    2.05
   5   1  -6   74.80    1.77
  -5   1   6   76.70    1.78
  -5   1   6   76.43    1.81
  -5   1   6   75.23    2.08
   4  -1  -6   27.25    0.97
   4  -1  -6   27.22    0.72
   4  -1  -6   28.55    0.83
  -4  -1   6   27.57    0.83
  -4  -1   6   27.68    0.81
  -4   1   6   29.16    0.99
   4   1  -6   27.71    0.96
  -4   1   6   27.45    0.80
   4   1  -6   28.33    0.80
  -4   1   6   26.35    0.81
   3  -1  -6    4.62    0.32
   3  -1  -6    4.67    0.41
  -3  -1   6    4.92    0.33
  -3  -1   6    5.02    0.34
   3   1  -6    5.10    0.41
  -3   1   6    5.42    0.31
   3   1  -6    4.98    0.31
  -3   1   6    5.04    0.32
  -3   1   6    5.21    0.41
   2  -1  -6   -0.08    0.14
  -2  -1   6    0.10    0.13
  -2  -1   6   -0.03    0.13
   2  -1  -6   -0.06    0.11
  -2   1   6    0.14    0.11
   2   1  -6    0.12    0.11
  -2   1   6    0.01    0.11
   2   1  -6   -0.03    0.16
  -2   1   6   -0.09    0.16
  -1  -1   6    3.61    0.21
   1  -1  -6    3.43    0.34
   1  -1  -6    3.22    0.26
  -1  -1   6    3.34    0.26
   1   1  -6    3.27    0.36
  -1   1   6    3.29    0.17
   1   1  -6    3.07    0.23
  -1   1   6    3.19    0.15
   0  -1  -6   67.53    1.62
   0  -1   6   68.36    1.47
   0  -1   6   68.20    1.56
   0  -1  -6   67.16    1.77
   0  -1  -6   69.14    1.61
   0   1  -6   68.06    1.55
   0   1  -6   68.96    1.46
  -1  -1  -6  134.68    2.98
  -1  -1  -6  129.78    2.92
  -1  -1  -6  131.41    3.16
   1  -1   6  131.96    2.93
   1  -1   6  134.49    2.71
  -1   1  -6  134.20    2.71
  -1   1  -6  135.30    2.94
   2  -1   6   16.17    0.67
  -2  -1  -6   16.51    0.69
   2  -1   6   15.91    0.52
  -2  -1  -6   17.03    0.62
  -2   1  -6   16.35    0.68
  -2   1  -6   16.14    0.51
   3  -1   6   36.56    1.16
   3  -1   6   36.93    0.94
  -3  -1  -6   36.88    1.05
  -3  -1  -6   36.34    0.79
  -3  -1  -6   36.29    1.20
  -3  -1  -6   37.52    0.80
  -3   1  -6   36.14    1.16
  -3   1  -6   36.60    0.93
   4  -1   6   25.20    0.78
  -4  -1  -6   25.37    1.05
   4  -1   6   25.98    0.71
  -4  -1  -6   25.72    0.66
   4  -1   6   24.73    1.00
  -4  -1  -6   25.92    0.67
  -4  -1  -6   26.49    0.89
  -4   1  -6   22.66    0.98
   4   1   6   27.13    0.90
  -4   1  -6   26.06    0.76
   4   1   6   26.53    0.68
   5  -1   6    0.10    0.25
  -5  -1  -6    0.54    0.19
  -5  -1  -6    0.33    0.38
  -5  -1  -6    0.52    0.18
   5  -1   6   -0.12    0.36
  -5  -1  -6    0.07    0.30
   5  -1   6    0.49    0.24
  -5   1  -6    0.49    0.37
   5   1   6    0.33    0.21
  -5   1  -6   -0.01    0.23
   5   1   6    0.09    0.30
  -6  -1  -6   14.89    0.63
   6  -1   6   14.48    0.76
   6  -1   6   15.47    0.96
  -6  -1  -6   15.03    1.00
   6  -1   6   15.19    0.69
  -6  -1  -6   16.45    0.85
  -6  -1  -6   16.61    0.63
   6   1   6   15.51    0.83
  -6   1  -6   15.15    0.70
  -6   1  -6   15.58    1.00
   6   1   6   15.59    0.67
   7  -1   6    8.64    0.66
  -7  -1  -6   11.19    1.01
  -7  -1  -6    8.01    0.62
   7  -1   6    9.59    0.72
  -7  -1  -6   10.12    0.60
   7  -1   6    8.84    0.94
   7   1   6    8.67    0.68
  -7   1  -6    8.15    0.79
  -7   1  -6    8.87    0.68
   7   1   6    9.37    0.84
  -7   1  -6    9.12    0.72
   8  -1   6    7.86    0.70
  -8  -1  -6    8.79    0.71
  -8  -1  -6    6.92    0.69
   8  -1   6    7.62    0.89
  -8  -1  -6    6.83    0.82
  -8  -1  -6    6.45    0.59
   8  -1   6    7.75    0.68
  -8   1  -6    7.00    0.61
  -8   1  -6    5.97    0.79
   8   1   6    6.76    0.62
   8   1   6    7.87    0.77
  -8   1  -6    7.64    0.66
 -11  -2   6    4.72    0.77
 -11  -2   6    5.08    0.67
  11  -2  -6    5.43    0.70
 -11  -2   6    5.15    0.53
 -11  -2   6    4.67    0.55
  11  -2  -6    4.54    0.67
 -11   2   6    4.29    0.62
 -11   2   6    4.45    0.71
  11   2  -6    4.99    0.70
  11   2  -6    6.82    0.80
 -11   2   6    6.51    0.69
 -10  -2   6   21.78    1.02
  10  -2  -6   21.63    1.08
 -10  -2   6   23.27    1.30
  10  -2  -6   22.77    1.16
 -10  -2   6   21.54    1.08
 -10  -2   6   22.36    1.02
 -10   2   6   22.67    1.08
 -10   2   6   24.28    1.11
  10   2  -6   21.14    1.24
  10   2  -6   23.25    1.19
 -10   2   6   23.61    1.26
  -9  -2   6   22.77    0.99
  -9  -2   6   21.63    1.14
   9  -2  -6   22.60    1.07
   9  -2  -6   21.97    1.14
   9  -2  -6   21.35    1.03
  -9  -2   6   22.11    0.98
  -9  -2   6   24.01    0.97
  -9   2   6   23.35    1.12
   9   2  -6   23.46    1.12
   9   2  -6   21.55    1.15
  -9   2   6   22.49    1.00
  -9   2   6   22.92    1.02
  -8  -2   6   36.07    1.15
   8  -2  -6   37.69    1.27
  -8  -2   6   36.84    1.41
  -8  -2   6   37.54    1.25
   8  -2  -6   37.01    1.26
  -8  -2   6   37.99    1.23
   8  -2  -6   36.93    1.38
  -8   2   6   39.15    1.42
  -8   2   6   38.05    1.24
  -8   2   6   32.36    1.20
   8   2  -6   36.78    1.18
   8   2  -6   37.41    1.38
   8   2  -6   37.78    1.39
   7  -2  -6    9.52    0.68
  -7  -2   6    7.95    0.58
   7  -2  -6    8.79    0.62
  -7  -2   6    8.30    0.51
  -7  -2   6    7.76    0.59
   7  -2  -6    8.48    0.64
  -7  -2   6    9.26    0.72
  -7   2   6    8.93    0.70
  -7   2   6    7.46    0.57
   7   2  -6    8.17    0.71
   7   2  -6    8.04    0.64
   7   2  -6    8.28    0.52
  -7   2   6    9.15    0.61
   6  -2  -6    1.05    0.29
   6  -2  -6    1.41    0.29
  -6  -2   6    1.24    0.26
   6  -2  -6    0.69    0.28
  -6  -2   6    1.14    0.22
  -6  -2   6    1.46    0.29
  -6   2   6    0.70    0.24
  -6   2   6    1.55    0.30
  -6   2   6    0.58    0.24
   6   2  -6    1.42    0.24
   6   2  -6    1.25    0.32
   6   2  -6    0.99    0.34
   5  -2  -6    8.25    0.52
  -5  -2   6    7.72    0.36
  -5  -2   6    8.40    0.48
  -5  -2   6    9.57    0.53
   5  -2  -6    7.76    0.48
   5  -2  -6    7.65    0.62
   5   2  -6    7.87    0.57
  -5   2   6    7.35    0.47
   5   2  -6    8.25    0.60
   5   2  -6    8.91    0.46
  -5   2   6    8.15    0.49
  -5   2   6    8.04    0.56
  -4  -2   6   27.43    0.67
  -4  -2   6   27.85    0.85
   4  -2  -6   27.96    1.04
  -4  -2   6   28.98    0.88
   4  -2  -6   28.47    0.86
   4   2  -6   27.98    0.95
   4   2  -6   29.33    0.85
  -4   2   6   28.95    1.03
   4   2  -6   27.85    0.99
  -4   2   6   29.36    0.82
  -4   2   6   27.56    0.83
  -3  -2   6   79.82    1.84
  -3  -2   6   79.70    1.81
   3  -2  -6   79.98    1.77
   3  -2  -6   78.22    2.12
  -3   2   6   79.74    2.11
   3   2  -6   80.22    2.12
   3   2  -6   79.77    1.81
   3   2  -6   79.39    1.90
  -3   2   6   80.65    1.75
  -3   2   6   79.23    1.73
  -2  -2   6   44.03    1.00
   2  -2  -6   44.15    1.03
   2  -2  -6   44.30    1.32
  -2  -2   6   44.99    1.11
   2   2  -6   44.91    1.33
   2   2  -6   44.19    1.10
  -2   2   6   43.45    0.99
  -2   2   6   43.05    1.29
   2   2  -6   44.09    1.11
  -2   2   6   45.44    1.02
   1  -2  -6   12.05    0.33
  -1  -2   6   11.77    0.45
   1  -2  -6   11.25    0.55
  -1  -2   6   11.60    0.47
  -1   2   6   11.93    0.33
   1   2  -6   11.60    0.46
  -1   2   6   11.42    0.56
  -1   2   6   11.75    0.32
   1   2  -6   11.69    0.40
   0  -2   6    6.94    0.42
   0  -2  -6    7.23    0.48
   0  -2   6    6.66    0.39
   0  -2  -6    6.77    0.40
   0  -2  -6    7.01    0.43
   0   2  -6    7.46    0.38
  -1  -2  -6   19.98    0.73
   1  -2   6   19.63    0.64
  -1  -2  -6   19.88    0.71
  -1  -2  -6   19.36    0.72
   1  -2   6   19.45    0.73
  -1   2  -6   20.03    0.62
  -2  -2  -6   15.71    0.67
  -2  -2  -6   15.28    0.70
   2  -2   6   15.35    0.57
  -2  -2  -6   14.68    0.60
   2  -2   6   15.11    0.71
  -2   2  -6   15.79    0.56
  -2   2  -6   15.36    0.67
  -3  -2  -6    5.86    0.56
   3  -2   6    5.92    0.45
   3  -2   6    6.09    0.56
  -3  -2  -6    5.53    0.52
  -3  -2  -6    6.18    0.43
  -3   2  -6    6.75    0.56
  -3   2  -6    5.68    0.40
  -4  -2  -6   26.34    0.66
  -4  -2  -6   26.78    0.87
  -4  -2  -6   27.24    0.67
  -4  -2  -6   27.83    1.10
   4  -2   6   26.70    1.06
  -4  -2  -6   26.11    0.99
   4  -2   6   28.07    0.89
  -4   2  -6   28.14    0.88
   4   2   6   27.46    0.99
  -4   2  -6   27.45    1.06
  -5  -2  -6   24.84    1.13
  -5  -2  -6   25.50    0.72
  -5  -2  -6   26.83    1.03
   5  -2   6   24.72    0.91
   5  -2   6   25.75    1.14
  -5  -2  -6   25.96    0.71
  -5   2  -6   25.73    0.88
   5   2   6   27.07    1.06
  -5   2  -6   25.52    1.13
   6  -2   6    6.09    0.54
  -6  -2  -6    6.89    0.47
   6  -2   6    5.83    0.64
  -6  -2  -6    6.52    0.67
   6  -2   6    6.81    0.47
  -6  -2  -6    5.32    0.45
  -6  -2  -6    7.86    0.77
  -6   2  -6    5.15    0.68
   6   2   6    6.56    0.64
  -6   2  -6    6.27    0.59
  -7  -2  -6    0.57    0.32
  -7  -2  -6    1.05    0.32
   7  -2   6    1.17    0.45
   7  -2   6   -0.46    0.48
  -7  -2  -6    1.01    0.54
  -7  -2  -6    0.64    0.38
  -7  -2  -6    0.58    0.51
   7  -2   6    0.83    0.36
  -7   2  -6   -0.07    0.52
  -7   2  -6    1.34    0.41
   7   2   6    1.33    0.55
  -8  -2  -6    0.78    0.64
  -8  -2  -6    0.22    0.38
   8  -2   6    0.09    0.57
   8  -2   6    0.87    0.47
   8  -2   6    0.73    0.62
  -8  -2  -6    0.52    0.41
  -8  -2  -6    0.33    0.44
  -8   2  -6    1.31    0.65
   8   2   6   -0.42    0.62
  -8   2  -6    0.56    0.49
 -11  -3   6    3.11    0.68
  11  -3  -6    3.83    0.79
  11  -3  -6    2.85    0.69
 -11  -3   6    2.00    0.56
 -11  -3   6    3.12    0.73
 -11  -3   6    3.43    0.62
 -11   3   6    3.51    0.64
  11   3  -6    3.80    0.79
  11   3  -6    3.07    0.76
 -11   3   6    2.79    0.64
 -11   3   6    2.54    0.65
 -10  -3   6    7.91    0.72
  10  -3  -6    8.47    0.83
 -10  -3   6    8.86    0.81
  10  -3  -6    7.37    0.76
 -10  -3   6    8.27    0.82
 -10   3   6    9.17    0.93
 -10   3   6    8.42    0.98
  10   3  -6    7.72    0.80
 -10   3   6    9.63    0.90
  10   3  -6    8.66    0.85
  -9  -3   6    0.48    0.35
   9  -3  -6    1.08    0.47
  -9  -3   6    1.05    0.41
  -9  -3   6    0.61    0.42
   9  -3  -6    0.00    0.44
   9   3  -6    0.79    0.50
   9   3  -6    1.55    0.50
  -9   3   6    0.72    0.42
  -9   3   6    1.53    0.45
  -9   3   6    0.69    0.47
   9   3  -6    1.23    0.34
   8  -3  -6   -0.30    0.37
  -8  -3   6   -0.01    0.33
   8  -3  -6    0.37    0.36
  -8  -3   6    0.12    0.32
  -8  -3   6    0.10    0.30
   8  -3  -6    0.35    0.42
  -8   3   6    0.25    0.39
   8   3  -6    0.26    0.27
   8   3  -6    0.33    0.38
   8   3  -6    0.70    0.46
  -8   3   6   -0.02    0.34
  -8   3   6   -0.71    0.33
   7  -3  -6   11.20    0.77
   7  -3  -6   11.71    0.81
  -7  -3   6   11.17    0.67
  -7  -3   6   10.67    0.63
   7  -3  -6   11.67    0.76
  -7  -3   6   11.72    0.70
  -7   3   6   11.78    0.70
  -7   3   6   12.40    0.79
   7   3  -6   11.28    0.77
   7   3  -6   11.20    0.62
   7   3  -6   11.71    0.81
  -6  -3   6   29.26    0.89
   6  -3  -6   28.25    1.02
  -6  -3   6   29.02    1.01
   6  -3  -6   29.14    1.02
   6  -3  -6   29.36    1.18
  -6  -3   6   30.44    1.01
   6   3  -6   30.79    1.12
   6   3  -6   29.91    1.12
  -6   3   6   30.17    1.19
  -6   3   6   29.30    0.99
   6   3  -6   29.27    0.97
  -5  -3   6   44.33    1.25
  -5  -3   6   44.66    1.24
   5  -3  -6   42.09    1.45
   5  -3  -6   43.93    1.26
  -5  -3   6   42.80    1.10
   5  -3  -6   43.14    1.23
   5   3  -6   43.31    1.32
   5   3  -6   43.96    1.40
  -5   3   6   42.69    1.44
   5   3  -6   44.20    1.21
  -5   3   6   42.76    1.19
  -4  -3   6   19.00    0.71
   4  -3  -6   18.95    0.69
  -4  -3   6   20.17    0.75
   4  -3  -6   18.23    0.88
  -4   3   6   19.41    0.66
   4   3  -6   19.99    0.71
   4   3  -6   18.43    0.77
   4   3  -6   20.12    0.84
  -4   3   6   19.31    0.86
  -3  -3   6    2.69    0.31
   3  -3  -6    2.73    0.28
   3  -3  -6    3.14    0.41
  -3   3   6    2.44    0.32
   3   3  -6    2.22    0.25
   3   3  -6    3.15    0.34
  -3   3   6    3.05    0.30
   3   3  -6    2.93    0.37
   2  -3  -6    1.13    0.20
  -2  -3   6    0.94    0.21
   2  -3  -6    1.42    0.28
  -2  -3   6    0.84    0.20
  -2   3   6    1.25    0.18
   2   3  -6    0.88    0.22
   2   3  -6    1.23    0.22
  -2   3   6    1.39    0.28
   1  -3  -6    3.16    0.26
   1  -3  -6    4.38    0.45
   1  -3  -6    3.67    0.38
  -1  -3   6    3.80    0.37
  -1  -3   6    3.78    0.34
  -1   3   6    3.47    0.35
  -1   3   6    3.63    0.23
   1   3  -6    4.04    0.36
   1   3  -6    3.41    0.28
   0  -3  -6   46.60    1.30
   0  -3   6   45.31    1.21
   0  -3   6   45.27    1.18
   0  -3  -6   45.09    1.31
   0  -3  -6   43.95    0.95
   0   3   6   43.98    0.94
   0   3  -6   44.30    1.17
   1  -3   6   72.10    1.78
  -1  -3  -6   67.92    1.78
   1  -3   6   69.77    1.66
  -1  -3  -6   69.74    1.78
  -1  -3  -6   65.99    1.80
  -1   3  -6   70.42    1.65
  -2  -3  -6    6.98    0.58
  -2  -3  -6    7.05    0.44
   2  -3   6    7.90    0.63
  -2  -3  -6    7.09    0.56
   2  -3   6    7.34    0.50
  -2   3  -6    7.11    0.46
  -3  -3  -6   23.03    0.73
  -3  -3  -6   22.80    0.93
  -3  -3  -6   21.60    0.54
  -3  -3  -6   22.49    0.93
   3  -3   6   23.44    0.84
  -3  -3  -6   21.59    0.53
   3  -3   6   22.28    0.99
  -3   3  -6   22.19    0.79
   4  -3   6   18.64    0.79
  -4  -3  -6   17.93    0.53
  -4  -3  -6   18.63    0.91
  -4  -3  -6   19.09    0.93
  -4  -3  -6   18.22    0.64
  -4  -3  -6   18.03    0.53
   4  -3   6   19.59    0.97
   4   3   6   18.62    0.92
  -4   3  -6   18.65    0.76
  -5  -3  -6    0.32    0.41
   5  -3   6    0.42    0.35
  -5  -3  -6   -0.12    0.19
  -5  -3  -6   -0.03    0.38
  -5  -3  -6   -0.02    0.21
   5  -3   6    0.31    0.42
  -5  -3  -6   -0.04    0.19
  -5   3  -6    0.07    0.30
  -5   3  -6   -0.03    0.43
   5   3   6    0.10    0.41
  -6  -3  -6   10.15    0.56
   6  -3   6   12.45    0.97
  -6  -3  -6   11.77    0.97
  -6  -3  -6   11.19    0.57
  -6  -3  -6   10.67    0.53
  -6  -3  -6    9.55    0.93
   6  -3   6    9.53    0.81
  -6  -3  -6   10.84    0.53
  -6   3  -6   10.21    1.05
   6   3   6   11.28    1.00
  -6   3  -6   11.85    0.76
  -7  -3  -6    5.79    0.58
   7  -3   6    5.20    0.75
  -7  -3  -6    5.99    0.76
   7  -3   6    4.98    0.67
  -7  -3  -6    6.17    0.61
  -7  -3  -6    6.59    0.77
  -7   3  -6    6.67    0.88
  -7   3  -6    6.10    0.61
   7   3   6    5.34    0.76
   8  -3   6    3.61    0.71
  -8  -3  -6    5.20    0.51
  -8  -3  -6    4.94    0.83
  -8  -3  -6    4.43    0.51
  -8  -3  -6    3.69    0.81
   8  -3   6    4.20    0.50
   8  -3   6    4.92    0.88
   8   3   6    3.95    0.87
  -8   3  -6    4.28    0.93
  -8   3  -6    3.97    0.66
  10  -4  -6    5.13    0.80
 -10  -4   6    6.14    0.67
 -10  -4   6    6.55    0.66
  10  -4  -6    6.72    0.86
 -10  -4   6    5.67    0.76
 -10   4   6    6.57    0.77
  10   4  -6    6.66    0.58
 -10   4   6    6.92    0.80
  10   4  -6    6.20    0.95
  10   4  -6    6.00    0.79
 -10   4   6    6.64    0.80
  -9  -4   6    5.86    0.65
  -9  -4   6    4.92    0.54
  -9  -4   6    6.47    0.57
   9  -4  -6    5.28    0.75
   9  -4  -6    4.97    0.68
   9   4  -6    5.22    0.74
  -9   4   6    4.86    0.62
   9   4  -6    5.50    0.50
   9   4  -6    5.34    0.80
  -9   4   6    7.50    0.75
  -8  -4   6   10.73    0.79
  -8  -4   6   11.68    0.78
   8  -4  -6   11.49    0.92
  -8  -4   6   12.60    0.80
   8  -4  -6   12.02    0.99
  -8   4   6   11.41    0.89
   8   4  -6   12.12    0.92
   8   4  -6   12.59    0.71
   8   4  -6   10.81    1.08
  -8   4   6   11.49    0.91
   7  -4  -6    3.15    0.49
  -7  -4   6    3.62    0.40
  -7  -4   6    3.85    0.43
  -7  -4   6    3.57    0.41
   7  -4  -6    2.59    0.51
   7   4  -6    3.75    0.49
  -7   4   6    4.75    0.49
   7   4  -6    3.19    0.33
   7   4  -6    3.84    0.55
  -7   4   6    2.50    0.45
  -6  -4   6    1.19    0.31
   6  -4  -6    0.92    0.38
   6  -4  -6    1.54    0.42
   6  -4  -6    0.98    0.38
  -6  -4   6    1.34    0.30
  -6  -4   6    1.53    0.30
   6   4  -6    1.97    0.31
   6   4  -6    1.92    0.45
  -6   4   6    1.82    0.34
  -6   4   6    1.66    0.43
   6   4  -6    1.51    0.37
  -5  -4   6    0.88    0.27
   5  -4  -6    1.22    0.41
  -5  -4   6    1.08    0.25
   5  -4  -6    1.23    0.32
  -5  -4   6    1.38    0.32
  -5   4   6    2.01    0.42
  -5   4   6    1.03    0.29
   5   4  -6    1.32    0.35
   5   4  -6    1.81    0.37
   5   4  -6    1.29    0.25
   4  -4  -6    2.91    0.46
  -4  -4   6    1.92    0.31
   4  -4  -6    2.43    0.32
   4   4  -6    2.25    0.37
  -4   4   6    2.63    0.30
  -4   4   6    2.15    0.37
   4   4  -6    1.86    0.27
   4   4  -6    2.37    0.38
  -3  -4   6   10.07    0.57
   3  -4  -6   10.56    0.53
   3  -4  -6   10.66    0.72
   3   4  -6   10.88    0.56
  -3   4   6    9.94    0.51
   3   4  -6   11.39    0.70
   3   4  -6   10.73    0.56
  -3   4   6   10.89    0.69
   2  -4  -6   11.24    0.50
   2  -4  -6   11.45    0.71
  -2  -4   6   12.24    0.61
  -2   4   6   11.18    0.48
   2   4  -6   11.39    0.57
   2   4  -6   11.46    0.54
  -2   4   6   12.08    0.67
   1  -4  -6    6.84    0.56
  -1  -4   6    6.41    0.50
   1  -4  -6    6.00    0.56
  -1  -4   6    6.94    0.54
   1  -4  -6    6.83    0.38
   1   4  -6    5.91    0.47
  -1   4   6    6.49    0.52
  -1   4   6    6.59    0.34
   1   4  -6    5.96    0.38
   0  -4   6    6.24    0.54
   0  -4   6    7.20    0.53
   0  -4  -6    6.68    0.53
   0  -4  -6    7.40    0.58
   0  -4  -6    6.35    0.35
   0   4   6    7.57    0.48
   0   4  -6    7.44    0.49
   0   4   6    6.55    0.33
  -1  -4  -6    1.29    0.19
  -1  -4  -6    1.40    0.26
  -1  -4  -6    1.23    0.34
   1  -4   6    0.95    0.28
   1  -4   6    1.48    0.33
   1   4   6    1.31    0.17
  -1   4  -6    1.08    0.25
   2  -4   6    1.14    0.36
  -2  -4  -6    1.23    0.37
  -2  -4  -6    1.42    0.19
   2  -4   6    0.81    0.31
  -2  -4  -6    1.47    0.36
  -2  -4  -6    1.06    0.18
  -2  -4  -6    1.45    0.23
   2   4   6    1.41    0.17
  -2   4  -6    1.45    0.30
  -3  -4  -6    0.53    0.36
   3  -4   6    0.38    0.31
   3  -4   6    0.39    0.38
  -3  -4  -6    0.42    0.35
  -3  -4  -6    0.67    0.20
  -3  -4  -6    0.88    0.19
  -3   4  -6    0.54    0.28
   3   4   6    0.62    0.18
   4  -4   6    8.83    0.71
  -4  -4  -6    9.04    0.82
   4  -4   6    9.48    0.88
  -4  -4  -6    8.69    0.46
  -4  -4  -6    8.59    0.44
  -4  -4  -6    9.20    0.79
  -4   4  -6    8.14    0.64
  -5  -4  -6   13.13    0.97
  -5  -4  -6   14.66    0.59
   5  -4   6   13.19    0.87
  -5  -4  -6   13.18    0.58
   5  -4   6   13.22    1.08
  -5  -4  -6   13.24    1.00
   5   4   6   13.71    1.03
  -5   4  -6   11.27    0.80
   6  -4   6    6.43    0.66
  -6  -4  -6    6.40    0.78
  -6  -4  -6    6.87    0.77
  -6  -4  -6    6.29    0.54
   6  -4   6    5.44    0.77
  -6  -4  -6    6.68    0.53
  -6   4  -6    5.92    0.59
   6   4   6    6.79    0.76
   7  -4   6    2.77    0.66
  -7  -4  -6    2.01    0.43
  -7  -4  -6    3.67    0.76
  -7  -4  -6    2.84    0.74
  -7  -4  -6    1.38    0.39
   7  -4   6    1.88    0.70
  -7   4  -6    2.39    0.57
   7   4   6    2.17    0.73
   9  -5  -6    0.70    0.71
  -9  -5   6    0.45    0.46
   9  -5  -6    1.08    0.66
  -9  -5   6    1.37    0.57
  -9  -5   6    1.59    0.54
   9   5  -6   -0.84    0.66
  -9   5   6    0.40    0.56
   9   5  -6    0.60    0.59
  -9   5   6   -1.21    0.56
   9   5  -6    0.96    0.47
  -8  -5   6    0.02    0.43
  -8  -5   6   -0.01    0.37
   8  -5  -6   -0.31    0.53
  -8  -5   6   -0.37    0.43
   8  -5  -6   -0.43    0.56
   8   5  -6    0.16    0.60
  -8   5   6   -0.03    0.49
   8   5  -6    0.90    0.50
  -8   5   6    0.12    0.52
   8   5  -6    0.42    0.36
   7  -5  -6    2.65    0.54
  -7  -5   6    3.26    0.45
   7  -5  -6    2.89    0.56
  -7  -5   6    2.41    0.42
  -7  -5   6    3.26    0.47
   7   5  -6    2.77    0.39
  -7   5   6    1.26    0.50
  -7   5   6    2.59    0.50
   7   5  -6    3.46    0.62
   7   5  -6    2.38    0.48
  -6  -5   6    6.66    0.67
   6  -5  -6    6.92    0.69
  -6  -5   6    6.55    0.58
   6  -5  -6    6.61    0.62
  -6  -5   6    6.12    0.60
   6   5  -6    7.19    0.67
  -6   5   6    7.28    0.69
  -6   5   6    5.09    0.64
   6   5  -6    7.10    0.74
   6   5  -6    6.82    0.56
   5  -5  -6    8.21    0.72
  -5  -5   6    9.69    0.64
   5   5  -6    8.61    0.81
   5   5  -6    8.23    0.58
  -5   5   6    7.97    0.88
   5   5  -6    9.81    0.79
  -5   5   6    8.95    0.65
   4  -5  -6    6.30    0.61
  -4  -5   6    7.28    0.58
   4   5  -6    8.15    0.73
  -4   5   6    8.24    0.80
  -4   5   6    7.32    0.58
   4   5  -6    7.08    0.67
   4   5  -6    6.12    0.54
  -3  -5   6    1.83    0.35
   3  -5  -6    1.62    0.33
  -3   5   6    1.65    0.31
   3   5  -6    1.56    0.35
  -3   5   6    1.44    0.38
   3   5  -6    1.75    0.30
  -2  -5   6    0.12    0.27
  -2  -5   6   -0.06    0.29
   2  -5  -6    0.16    0.28
   2  -5  -6    0.11    0.25
   2   5  -6   -0.04    0.25
   2   5  -6    0.08    0.25
  -2   5   6    0.59    0.31
  -2   5   6    0.15    0.22
   1  -5  -6   -0.11    0.29
  -1  -5   6    0.00    0.30
   1  -5  -6   -0.07    0.22
  -1  -5   6    0.08    0.26
  -1  -5   6   -0.12    0.30
  -1   5   6    0.16    0.21
   1   5  -6    0.39    0.28
  -1   5   6    0.12    0.27
   0  -5  -6   10.15    0.51
   0  -5   6    9.27    0.49
   0  -5   6   10.99    0.71
   0  -5  -6   10.40    0.71
   0  -5   6   10.44    0.71
   0   5   6    9.82    0.48
   0   5  -6    9.77    0.63
   0   5   6    9.94    0.58
  -1  -5  -6   16.45    0.62
   1  -5   6   16.94    0.88
   1  -5   6   17.45    0.83
  -1  -5  -6   19.88    0.94
   1   5   6   16.97    0.58
  -1   5  -6   17.42    0.81
  -2  -5  -6    2.43    0.47
  -2  -5  -6    2.21    0.27
   2  -5   6    1.65    0.43
  -2  -5  -6    1.69    0.27
   2  -5   6    2.21    0.48
  -2   5  -6    1.76    0.35
   2   5   6    2.50    0.25
   3  -5   6   14.59    0.99
  -3  -5  -6   14.17    0.58
  -3  -5  -6   13.64    0.58
  -3  -5  -6   13.29    0.88
   3  -5   6   13.02    0.84
  -3  -5  -6   14.09    0.93
   3   5   6   13.53    0.55
  -3   5  -6   12.73    0.77
   4  -5   6    3.30    0.52
   4  -5   6    3.75    0.66
  -4  -5  -6    4.20    0.39
  -4  -5  -6    3.16    0.35
  -4  -5  -6    4.05    0.60
  -4  -5  -6    3.12    0.54
   4   5   6    3.86    0.36
  -4   5  -6    4.01    0.52
  -5  -5  -6    0.09    0.30
  -5  -5  -6    0.37    0.54
   5  -5   6    0.72    0.61
  -5  -5  -6    0.39    0.31
  -5  -5  -6    0.18    0.55
   5  -5   6    0.30    0.49
  -5   5  -6    0.13    0.41
  -6  -5  -6    2.93    0.70
   6  -5   6    2.29    0.78
  -6  -5  -6    3.64    0.69
  -6  -5  -6    3.55    0.45
  -6  -5  -6    2.78    0.44
   6  -5   6    2.78    0.67
   6   5   6    3.67    0.77
  -6   5  -6    3.80    0.61
   8  -6  -6    4.44    0.83
  -8  -6   6    6.30    0.75
  -8  -6   6    5.85    0.68
   8  -6  -6    5.03    0.83
  -8  -6   6    4.98    0.59
  -8   6   6    5.82    0.76
  -8   6   6    3.02    0.75
   8   6  -6    5.03    0.69
   8   6  -6    8.14    0.83
   8   6  -6    4.65    0.86
   7  -6  -6    1.22    0.64
  -7  -6   6    1.28    0.48
   7  -6  -6    1.20    0.60
  -7  -6   6    0.90    0.43
  -7  -6   6    0.48    0.50
  -7   6   6    1.77    0.57
  -7   6   6    1.41    0.65
   7   6  -6    1.11    0.43
   7   6  -6    1.51    0.53
   7   6  -6    1.42    0.62
  -6  -6   6    0.67    0.44
   6  -6  -6   -0.76    0.47
  -6  -6   6    1.28    0.41
   6  -6  -6    0.08    0.56
  -6  -6   6    0.91    0.39
  -6   6   6   -0.75    0.41
  -6   6   6   -0.05    0.52
   6   6  -6   -0.37    0.53
   6   6  -6    0.57    0.37
   6   6  -6    0.09    0.47
  -5  -6   6    1.79    0.36
   5  -6  -6    2.22    0.48
  -5   6   6    2.16    0.57
   5   6  -6    1.83    0.49
   5   6  -6    2.20    0.37
   5   6  -6    1.79    0.52
  -5   6   6    2.30    0.44
  -4  -6   6    2.10    0.40
  -4  -6   6    2.23    0.50
   4  -6  -6    3.14    0.50
   4   6  -6    2.26    0.35
  -4   6   6    2.19    0.55
   4   6  -6    2.67    0.50
  -4   6   6    2.15    0.41
   4   6  -6    2.79    0.51
  -3  -6   6    3.71    0.47
   3  -6  -6    5.53    0.52
   3  -6  -6    5.18    0.53
  -3  -6   6    4.59    0.53
  -3   6   6    4.94    0.61
  -3   6   6    4.65    0.46
   3   6  -6    5.16    0.50
   3   6  -6    4.86    0.53
  -2  -6   6    6.16    0.61
   2  -6  -6    6.16    0.63
   2  -6  -6    5.98    0.57
  -2  -6   6    5.60    0.55
  -2   6   6    5.41    0.56
  -2   6   6    5.41    0.46
   2   6  -6    5.84    0.53
   2   6  -6    6.15    0.61
  -1  -6   6    2.30    0.39
  -1  -6   6    1.90    0.44
   1  -6  -6    2.36    0.38
   1  -6  -6    2.52    0.43
   1   6  -6    2.22    0.37
  -1   6   6    2.24    0.39
  -1   6   6    2.49    0.36
   0  -6  -6    0.71    0.31
   0  -6   6    1.00    0.44
   0  -6   6    0.68    0.39
   0  -6  -6   -0.02    0.41
   0  -6   6    0.43    0.31
   0   6  -6    1.25    0.36
   0   6   6    0.58    0.29
   0   6   6    0.70    0.28
  -1  -6  -6    1.89    0.49
   1  -6   6    1.02    0.43
   1  -6   6    1.04    0.50
   1  -6   6    1.16    0.28
  -1  -6  -6    1.21    0.34
   1   6   6    1.32    0.27
  -1   6  -6    1.78    0.41
  -2  -6  -6    2.24    0.37
   2  -6   6    2.08    0.49
  -2  -6  -6    1.69    0.50
   2  -6   6    2.13    0.54
  -2   6  -6    1.57    0.40
   2   6   6    2.27    0.33
  -3  -6  -6    1.25    0.35
  -3  -6  -6    0.50    0.32
   3  -6   6    1.39    0.59
  -3  -6  -6    0.99    0.49
   3  -6   6    0.64    0.50
  -3  -6  -6    1.39    0.55
   3   6   6    1.01    0.30
  -3   6  -6    1.19    0.40
  -4  -6  -6    3.33    0.67
   4  -6   6    2.92    0.70
  -4  -6  -6    3.51    0.45
  -4  -6  -6    4.33    0.44
  -4  -6  -6    2.78    0.67
   4  -6   6    5.00    0.70
  -4   6  -6    3.04    0.55
   4   6   6    3.45    0.41
  -5  -6  -6    2.99    0.74
  -5  -6  -6    3.75    0.51
   5  -6   6    2.86    0.66
   5  -6   6    3.08    0.77
  -5  -6  -6    4.22    0.75
  -5  -6  -6    3.53    0.50
   5   6   6    3.10    0.46
  -5   6  -6    4.07    0.63
   7  -7  -6    1.75    0.85
  -7  -7   6    1.24    0.58
   7  -7  -6    1.33    0.77
  -7  -7   6    1.16    0.65
  -7  -7   6    1.77    0.63
   7   7  -6    2.64    0.83
   7   7  -6    2.70    0.68
  -7   7   6    0.67    0.83
  -7   7   6    2.14    0.69
   7   7  -6    2.00    0.54
   6  -7  -6    3.30    0.83
   6  -7  -6    2.97    0.69
  -6  -7   6    3.01    0.60
  -6  -7   6    3.78    0.55
   6   7  -6    3.65    0.76
   6   7  -6    3.39    0.67
  -6   7   6    3.82    0.64
  -6   7   6    1.50    0.77
   6   7  -6    3.44    0.55
  -5  -7   6    2.13    0.70
  -5  -7   6    3.64    0.54
   5  -7  -6    3.32    0.62
   5   7  -6    1.82    0.56
   5   7  -6    3.14    0.62
  -5   7   6    2.00    0.71
   5   7  -6    3.21    0.45
  -5   7   6    2.81    0.57
  -4  -7   6    2.88    0.66
  -4  -7   6    1.88    0.50
   4  -7  -6    2.47    0.58
   4  -7  -6    2.48    0.52
  -4   7   6    2.16    0.67
   4   7  -6    2.01    0.59
  -4   7   6    2.09    0.48
   4   7  -6    2.03    0.57
   4   7  -6    2.93    0.47
  -3  -7   6    0.24    0.44
   3  -7  -6    0.53    0.51
  -3  -7   6    0.15    0.53
   3  -7  -6    0.31    0.45
  -3   7   6    0.36    0.57
   3   7  -6    0.66    0.53
  -3   7   6    0.19    0.42
   3   7  -6    0.60    0.40
  -2  -7   6    0.63    0.50
   2  -7  -6    0.87    0.46
  -2  -7   6    0.23    0.44
   2  -7  -6    0.35    0.43
   2   7  -6    0.31    0.41
  -2   7   6    0.22    0.39
  -2   7   6    0.02    0.45
   1  -7  -6    0.03    0.50
  -1  -7   6    0.47    0.49
  -1  -7   6    0.16    0.47
   1  -7  -6    0.55    0.39
  -1   7   6    0.52    0.44
   1   7  -6   -0.20    0.42
  -1   7   6    1.23    0.39
   0  -7   6    3.70    0.59
   0  -7   6    3.52    0.64
   0  -7  -6    4.25    0.55
   0  -7   6    4.81    0.50
   0  -7  -6    4.52    0.52
   0   7   6    3.93    0.46
   0   7  -6    5.65    0.62
   0   7   6    3.85    0.46
   1  -7   6    4.89    0.70
  -1  -7  -6    4.75    0.52
   1  -7   6    5.17    0.48
  -1  -7  -6    4.50    0.62
   1  -7   6    4.40    0.71
  -1   7  -6    4.98    0.61
   1   7   6    4.13    0.47
  -2  -7  -6    0.05    0.43
   2  -7   6    0.08    0.65
   2  -7   6    0.08    0.57
   2  -7   6    0.24    0.35
  -2  -7  -6    0.41    0.61
   2   7   6    0.04    0.40
  -2   7  -6   -0.37    0.53
   3  -7   6    2.52    0.63
  -3  -7  -6    2.35    0.71
  -3  -7  -6    2.91    0.54
  -3  -7  -6    2.76    0.51
   3  -7   6    2.80    0.77
  -3   7  -6    2.94    0.62
   3   7   6    2.63    0.44
  -3  -8   6    0.06    0.60
   3  -8  -6    0.45    0.70
  -3  -8   6    0.92    0.72
   3  -8  -6    1.06    0.67
  -3   8   6   -0.46    0.69
  -3   8   6   -0.44    0.55
   3   8  -6    0.52    0.57
   2  -8  -6    0.21    0.59
   2  -8  -6   -0.36    0.68
  -2  -8   6    0.30    0.69
   2   8  -6    1.12    0.57
  -2   8   6    0.49    0.59
  -2   8   6    0.66    0.54
  -1  -8   6    0.58    0.64
  -1  -8   6    1.15    0.63
   1  -8  -6    0.97    0.58
   1  -8  -6    1.24    0.69
  -1   8   6    0.86    0.55
  -1   8   6    0.02    0.52
   1   8  -6    0.05    0.57
   0  -8   6    0.69    0.64
   0  -8  -6    1.43    0.56
   0  -8   6   -1.34    0.76
   0  -8  -6   -0.57    0.72
   0  -8   6    1.03    0.58
   0   8  -6   -0.27    0.61
   0   8   6   -0.03    0.50
   0   8   6    0.37    0.46
  11   0  -7    7.67    0.71
  11   0  -7    6.55    0.66
  11   0  -7    6.08    0.71
 -11   0   7    5.69    0.77
 -11   0   7    6.68    0.70
  11   0  -7    5.61    0.77
 -11   0   7    6.72    0.67
 -10   0   7   13.36    1.12
  10   0  -7   15.98    0.93
  10   0  -7   12.87    1.01
  10   0  -7   15.05    0.96
  10   0  -7   14.40    1.10
 -10   0   7   16.69    0.97
 -10   0   7   14.36    0.90
  -9   0   7   41.23    1.60
   9   0  -7   42.19    1.43
   9   0  -7   40.80    1.58
  -9   0   7   42.27    1.38
   9   0  -7   42.26    1.30
  -9   0   7   40.13    1.35
  -8   0   7    4.40    0.44
  -8   0   7    3.71    0.52
  -8   0   7    5.28    0.51
   8   0  -7    4.75    0.55
   8   0  -7    5.12    0.54
   8   0  -7    4.64    0.49
  -7   0   7    0.19    0.28
  -7   0   7    0.11    0.26
  -7   0   7    0.14    0.26
   7   0  -7   -0.02    0.28
   7   0  -7    0.32    0.29
   7   0  -7    0.06    0.21
   6   0  -7    6.09    0.52
   6   0  -7    6.92    0.37
   6   0  -7    6.72    0.54
  -6   0   7    8.02    0.55
  -6   0   7    7.18    0.59
  -6   0   7    6.76    0.50
   5   0  -7   89.52    2.38
  -5   0   7   87.73    2.38
  -5   0   7   85.66    2.01
   5   0  -7   87.42    2.04
  -5   0   7   90.04    2.08
  -4   0   7   71.49    1.97
  -4   0   7   70.03    1.62
   4   0  -7   69.43    1.96
  -4   0   7   72.35    1.70
  -3   0   7   17.56    0.60
   3   0  -7   17.65    0.75
  -3   0   7   18.14    0.56
   3   0  -7   18.26    0.58
   2   0  -7   54.10    1.58
  -2   0   7   55.43    1.26
  -2   0   7   56.16    1.23
   2   0  -7   54.99    1.23
  -1   0   7    7.16    0.30
   1   0  -7    6.72    0.27
   1   0  -7    6.98    0.33
  -1   0   7    6.74    0.29
   1   0  -7    7.56    0.49
   0   0   7    1.39    0.13
   0   0  -7    1.34    0.13
   0   0  -7    1.41    0.21
   0   0  -7    1.28    0.23
   0   0  -7    1.46    0.29
   0   0   7    1.44    0.13
  -1   0  -7   10.23    0.55
   1   0   7   11.00    0.31
  -1   0  -7   11.42    0.45
  -1   0  -7   10.79    0.28
  -2   0  -7   41.39    0.88
  -2   0  -7   40.89    1.03
   2   0   7   41.14    0.90
   2   0   7   39.55    1.17
  -2   0  -7   39.42    1.23
  -3   0  -7    0.43    0.13
   3   0   7    0.60    0.28
  -3   0  -7    0.63    0.31
   3   0   7    0.34    0.17
  -3   0  -7    0.17    0.21
  -4   0  -7   17.49    0.58
  -4   0  -7   16.29    0.94
  -4   0  -7   17.71    0.56
   4   0   7   17.83    0.61
  -4   0  -7   18.08    0.67
   4   0   7   19.45    0.90
   5   0   7    2.96    0.48
  -5   0  -7    4.42    0.56
  -5   0  -7    3.47    0.32
  -5   0  -7    3.86    0.35
   5   0   7    3.98    0.36
   6   0   7    6.41    0.56
   6   0   7    5.71    0.65
  -6   0  -7    4.81    0.67
  -6   0  -7    5.68    0.55
  -6   0  -7    6.15    0.52
   6   0   7    7.32    0.68
  -7   0  -7   -0.30    0.35
   7   0   7   -0.45    0.46
   7   0   7   -0.57    0.38
  -7   0  -7    0.71    0.35
  -7   0  -7    0.08    0.60
   7   0   7    1.22    0.58
  -8   0  -7    6.88    0.62
   8   0   7    4.92    0.82
  -8   0  -7    7.73    0.65
   8   0   7    5.95    0.64
   8   0   7    5.59    0.71
  -8   0  -7    5.62    0.89
 -11  -1   7    0.69    0.49
  11  -1  -7    1.37    0.53
  11  -1  -7    2.61    0.63
  11  -1  -7    1.67    0.60
 -11  -1   7    4.26    0.58
  11  -1  -7    0.63    0.62
 -11  -1   7    1.29    0.64
 -11  -1   7    1.34    0.58
 -11   1   7    1.34    0.49
  11   1  -7    2.64    0.69
 -11   1   7    1.66    0.51
 -11   1   7    1.54    0.62
  11   1  -7    1.67    0.59
  10  -1  -7    1.81    0.55
 -10  -1   7    1.36    0.45
 -10  -1   7    1.98    0.54
 -10  -1   7    1.88    0.41
 -10  -1   7    1.85    0.49
  10  -1  -7    1.75    0.46
  10  -1  -7    1.80    0.51
 -10   1   7    1.09    0.44
  10   1  -7    2.33    0.60
  10   1  -7    2.13    0.54
 -10   1   7    1.45    0.53
 -10   1   7    2.02    0.46
   9  -1  -7   27.85    1.07
   9  -1  -7   29.21    1.17
  -9  -1   7   26.73    1.13
  -9  -1   7   28.57    1.10
  -9  -1   7   28.90    1.02
   9  -1  -7   27.90    1.30
  -9  -1   7   27.41    1.29
  -9   1   7   28.55    1.27
   9   1  -7   27.66    1.26
   9   1  -7   29.41    1.33
  -9   1   7   28.61    1.13
  -9   1   7   29.54    1.13
  -8  -1   7    5.75    0.52
   8  -1  -7    6.63    0.69
   8  -1  -7    5.81    0.55
  -8  -1   7    5.09    0.49
  -8  -1   7    5.51    0.56
  -8  -1   7    5.00    0.48
   8  -1  -7    6.67    0.65
   8   1  -7    6.28    0.66
  -8   1   7    7.01    0.60
  -8   1   7    5.96    0.60
  -8   1   7    6.71    0.67
   8   1  -7    5.85    0.61
   7  -1  -7   16.74    0.81
  -7  -1   7   16.48    0.61
   7  -1  -7   18.43    0.92
  -7  -1   7   17.02    0.77
  -7  -1   7   16.64    0.81
  -7  -1   7   17.61    0.93
   7  -1  -7   16.62    0.69
   7   1  -7   17.84    0.90
  -7   1   7   16.53    0.87
  -7   1   7   16.59    0.78
  -7   1   7   16.99    0.79
   7   1  -7   16.83    0.89
  -6  -1   7   29.26    1.13
   6  -1  -7   30.10    0.87
   6  -1  -7   28.96    0.97
  -6  -1   7   28.45    1.00
   6  -1  -7   29.09    1.13
  -6  -1   7   29.61    0.96
   6   1  -7   28.63    0.95
  -6   1   7   30.42    1.14
  -6   1   7   29.96    0.96
   6   1  -7   28.27    1.09
  -6   1   7   29.85    0.99
  -5  -1   7    2.91    0.37
   5  -1  -7    3.13    0.30
  -5  -1   7    2.43    0.30
   5  -1  -7    3.10    0.35
  -5  -1   7    2.65    0.31
   5  -1  -7    2.39    0.35
   5   1  -7    3.03    0.38
  -5   1   7    2.62    0.32
  -5   1   7    2.56    0.29
   5   1  -7    2.66    0.30
  -5   1   7    3.21    0.40
  -4  -1   7    2.62    0.28
   4  -1  -7    2.39    0.25
   4  -1  -7    2.48    0.27
  -4  -1   7    2.74    0.31
   4  -1  -7    2.07    0.28
   4   1  -7    2.22    0.25
   4   1  -7    2.15    0.29
  -4   1   7    2.39    0.26
  -4   1   7    2.38    0.33
  -4   1   7    2.40    0.28
  -3  -1   7   16.83    0.59
   3  -1  -7   15.80    0.54
  -3  -1   7   16.56    0.58
   3  -1  -7   17.04    0.74
  -3   1   7   16.81    0.73
  -3   1   7   16.81    0.52
   3   1  -7   16.29    0.73
  -3   1   7   16.82    0.55
   3   1  -7   16.31    0.56
  -2  -1   7   22.69    0.68
   2  -1  -7   23.07    0.64
  -2  -1   7   23.92    0.68
   2  -1  -7   23.97    0.89
   2   1  -7   22.98    0.66
  -2   1   7   23.78    0.59
   2   1  -7   23.54    0.90
  -2   1   7   23.77    0.60
  -1  -1   7    0.18    0.15
   1  -1  -7    0.34    0.16
   1  -1  -7    0.24    0.21
   1   1  -7    0.20    0.13
   1   1  -7    0.15    0.19
   0  -1   7   27.36    0.77
   0  -1   7   28.25    0.72
   0  -1  -7   26.89    0.94
   0  -1  -7   26.52    0.84
   0  -1  -7   27.80    0.84
   0   1  -7   27.04    0.77
   0   1  -7   26.83    0.70
   0   1  -7   26.69    0.67
   1  -1   7   44.80    1.20
  -1  -1  -7   45.74    1.20
   1  -1   7   44.30    1.05
  -1  -1  -7   45.66    1.27
  -1  -1  -7   44.70    1.33
  -1   1  -7   44.99    1.04
  -1   1  -7   45.97    1.21
  -2  -1  -7   15.66    0.75
   2  -1   7   14.59    0.68
  -2  -1  -7   16.54    0.64
  -2  -1  -7   14.86    0.69
   2  -1   7   15.38    0.51
  -2   1  -7   15.59    0.50
  -2   1  -7   16.26    0.71
   3  -1   7    7.56    0.42
  -3  -1  -7    7.99    0.54
  -3  -1  -7    7.71    0.66
   3  -1   7    7.81    0.61
  -3   1  -7    7.65    0.39
  -3   1  -7    7.41    0.61
  -4  -1  -7    1.61    0.41
  -4  -1  -7    2.22    0.34
   4  -1   7    0.98    0.26
   4  -1   7    0.96    0.38
  -4  -1  -7    1.22    0.16
  -4  -1  -7    1.07    0.15
  -4   1  -7    1.50    0.25
  -4   1  -7    0.95    0.38
  -5  -1  -7   21.11    0.62
  -5  -1  -7   21.01    0.90
  -5  -1  -7   20.76    0.61
   5  -1   7   19.44    1.05
   5  -1   7   19.67    0.78
  -5  -1  -7   20.10    1.09
  -5   1  -7   19.73    1.08
  -5   1  -7   20.47    0.73
   6  -1   7   10.15    0.62
  -6  -1  -7   11.43    0.54
   6  -1   7   10.57    0.97
  -6  -1  -7   11.24    1.02
  -6  -1  -7   10.96    0.82
  -6  -1  -7   10.59    0.56
   6  -1   7   10.56    0.74
   6   1   7   11.88    0.85
  -6   1  -7   10.66    0.98
  -6   1  -7    9.83    0.63
   7  -1   7   11.45    1.13
  -7  -1  -7    9.82    0.67
  -7  -1  -7   11.26    0.64
  -7  -1  -7    8.46    0.90
   7  -1   7    9.56    0.82
   7  -1   7   10.20    0.76
  -7   1  -7    9.33    0.95
  -7   1  -7    9.79    0.73
   7   1   7   10.91    1.00
  -7   1  -7   10.17    0.80
   8  -1   7    2.32    0.78
  -8  -1  -7    2.53    0.46
  -8  -1  -7    1.99    0.77
   8  -1   7    1.33    0.56
  -8  -1  -7    2.61    0.48
   8  -1   7    1.37    0.56
  -8   1  -7    1.48    0.77
  -8   1  -7    2.05    0.51
  -8   1  -7    2.73    0.56
   8   1   7    1.09    0.68
 -11  -2   7   10.02    0.96
  11  -2  -7    9.66    0.86
 -11  -2   7    8.85    0.96
 -11  -2   7    8.49    0.79
 -11  -2   7    9.13    0.80
  11  -2  -7   10.17    0.89
 -11   2   7    8.11    0.80
  11   2  -7    8.97    0.93
 -11   2   7   10.55    1.02
  11   2  -7    8.50    0.86
 -11   2   7    8.99    0.98
  10  -2  -7   15.32    1.04
  10  -2  -7   13.54    1.13
 -10  -2   7   13.84    0.96
  10  -2  -7   15.17    0.99
 -10  -2   7   15.58    1.21
 -10  -2   7   15.97    0.94
 -10  -2   7   15.45    0.96
 -10   2   7   15.28    1.08
  10   2  -7   15.85    1.15
 -10   2   7   15.00    1.01
  10   2  -7   13.52    1.24
 -10   2   7   16.94    1.01
  -9  -2   7   30.00    1.17
  -9  -2   7   31.24    1.22
  -9  -2   7   30.85    1.38
   9  -2  -7   30.69    1.33
   9  -2  -7   29.51    1.19
  -9  -2   7   31.11    1.08
   9  -2  -7   29.97    1.24
  -9   2   7   28.71    1.21
  -9   2   7   32.13    1.22
   9   2  -7   31.95    1.40
   9   2  -7   31.28    1.36
  -9   2   7   30.17    1.33
  -8  -2   7    1.75    0.37
  -8  -2   7    1.59    0.43
   8  -2  -7    1.49    0.39
   8  -2  -7    1.22    0.38
  -8  -2   7    1.30    0.36
   8  -2  -7    1.76    0.39
  -8  -2   7    1.42    0.31
   8   2  -7    1.52    0.46
   8   2  -7    1.12    0.41
  -8   2   7    1.23    0.39
   8   2  -7    1.15    0.29
  -8   2   7    1.92    0.41
  -8   2   7    1.82    0.38
  -7  -2   7    2.29    0.38
   7  -2  -7    3.21    0.46
   7  -2  -7    2.65    0.37
  -7  -2   7    2.87    0.38
  -7  -2   7    2.68    0.30
   7  -2  -7    2.61    0.40
   7   2  -7    1.72    0.39
  -7   2   7    2.80    0.42
  -7   2   7    2.31    0.37
   7   2  -7    2.52    0.49
   7   2  -7    2.51    0.35
  -7   2   7    2.95    0.45
   6  -2  -7   18.60    0.80
  -6  -2   7   18.44    0.57
  -6  -2   7   18.67    0.78
   6  -2  -7   18.43    0.72
   6  -2  -7   18.48    0.91
  -6  -2   7   18.77    0.78
  -6   2   7   17.17    0.76
  -6   2   7   17.69    0.89
   6   2  -7   17.32    0.72
   6   2  -7   18.43    0.91
  -6   2   7   18.59    0.77
   6   2  -7   19.19    0.89
  -5  -2   7  100.96    2.34
   5  -2  -7   99.71    2.32
   5  -2  -7  104.01    2.33
   5  -2  -7  100.99    2.73
  -5  -2   7  102.01    2.37
  -5   2   7  102.18    2.73
  -5   2   7  103.90    2.31
  -5   2   7  104.20    2.32
   5   2  -7   95.65    2.50
   5   2  -7  101.19    2.32
   5   2  -7  107.76    2.72
   4  -2  -7   63.81    1.86
   4  -2  -7   62.11    1.51
  -4  -2   7   62.38    1.57
  -4  -2   7   64.12    1.56
  -4   2   7   63.75    1.50
  -4   2   7   64.95    1.85
   4   2  -7   65.71    1.56
   4   2  -7   64.50    1.84
  -4   2   7   65.35    1.51
   4   2  -7   60.96    1.66
   3  -2  -7   12.26    0.68
  -3  -2   7   12.52    0.54
  -3  -2   7   12.44    0.55
   3  -2  -7   12.24    0.48
   3   2  -7   12.40    0.65
   3   2  -7   12.51    0.52
  -3   2   7   12.50    0.48
   3   2  -7   12.44    0.59
  -3   2   7   12.67    0.45
  -3   2   7   11.67    0.65
  -2  -2   7   20.12    0.66
  -2  -2   7   18.77    0.49
   2  -2  -7   18.57    0.79
   2  -2  -7   18.80    0.52
   2   2  -7   19.10    0.63
  -2   2   7   19.20    0.51
  -2   2   7   18.18    0.78
  -2   2   7   18.30    0.50
   2   2  -7   19.28    0.82
   2   2  -7   18.68    0.63
  -1  -2   7   -0.04    0.18
  -1  -2   7   -0.17    0.15
   1  -2  -7    0.17    0.20
   1   2  -7    0.06    0.14
   1   2  -7    0.05    0.16
   0  -2   7   12.30    0.54
   0  -2   7   12.16    0.52
   0  -2  -7   12.37    0.56
   0  -2  -7   12.05    0.61
   0  -2  -7   12.42    0.62
   0   2  -7   12.21    0.50
   1  -2   7   21.27    0.69
   1  -2   7   21.19    0.77
  -1  -2  -7   19.91    0.78
  -1  -2  -7   21.32    0.79
  -1  -2  -7   21.17    0.79
  -1   2  -7   21.49    0.67
  -2  -2  -7   40.79    1.21
   2  -2   7   41.12    1.07
  -2  -2  -7   39.93    1.25
   2  -2   7   39.75    1.23
  -2  -2  -7   39.62    1.21
  -2   2  -7   40.91    1.06
  -2   2  -7   39.57    1.20
  -3  -2  -7    1.12    0.36
  -3  -2  -7    1.20    0.28
   3  -2   7    0.85    0.33
   3  -2   7    1.34    0.28
  -3  -2  -7    1.28    0.36
  -3   2  -7    1.36    0.25
  -3   2  -7    0.89    0.34
  -4  -2  -7    7.89    0.67
   4  -2   7    7.17    0.73
  -4  -2  -7    7.52    0.75
  -4  -2  -7    7.69    0.58
   4  -2   7    7.85    0.55
  -4   2  -7    7.53    0.51
  -4   2  -7    7.56    0.73
  -5  -2  -7    0.27    0.46
  -5  -2  -7   -0.14    0.18
  -5  -2  -7    0.24    0.29
   5  -2   7    0.96    0.46
   5  -2   7    0.02    0.32
  -5  -2  -7    0.38    0.17
  -5  -2  -7    0.95    0.39
  -5   2  -7    0.20    0.29
  -5   2  -7    0.41    0.44
   6  -2   7    1.55    0.54
  -6  -2  -7    1.12    0.25
   6  -2   7    0.90    0.42
  -6  -2  -7    1.09    0.24
  -6  -2  -7    1.23    0.55
  -6  -2  -7    1.23    0.52
  -6   2  -7    1.67    0.56
   6   2   7    1.34    0.50
  -6   2  -7    0.85    0.37
  -7  -2  -7    0.24    0.57
  -7  -2  -7    0.06    0.32
  -7  -2  -7    0.29    0.32
  -7  -2  -7    0.59    0.63
   7  -2   7    0.19    0.49
   7  -2   7   -0.36    0.59
  -7   2  -7   -0.03    0.40
   7   2   7    1.04    0.61
  -7   2  -7    0.40    0.65
  11  -3  -7    0.24    0.66
 -11  -3   7    0.07    0.56
  11  -3  -7   -0.19    0.74
 -11  -3   7   -0.24    0.61
 -11  -3   7   -0.19    0.59
  11   3  -7    0.68    0.83
 -11   3   7    0.87    0.66
 -11   3   7    1.79    0.67
  11   3  -7    1.11    0.76
 -11   3   7   -0.18    0.62
 -10  -3   7    1.45    0.47
  10  -3  -7    1.21    0.61
  10  -3  -7    0.60    0.60
 -10  -3   7    2.00    0.54
 -10  -3   7    1.41    0.50
  10   3  -7    2.14    0.61
  10   3  -7    2.12    0.47
  10   3  -7    1.98    0.66
 -10   3   7    0.61    0.52
 -10   3   7    1.07    0.55
 -10   3   7    1.52    0.59
  -9  -3   7   19.48    1.03
  -9  -3   7   19.09    0.96
   9  -3  -7   22.26    1.17
   9  -3  -7   22.23    1.14
   9  -3  -7   22.90    1.15
  -9  -3   7   19.74    1.00
   9   3  -7   21.20    1.26
   9   3  -7   20.69    1.22
  -9   3   7   21.17    1.17
  -9   3   7   22.04    1.08
  -9   3   7   18.03    1.04
   9   3  -7   21.59    0.96
   8  -3  -7    5.74    0.60
   8  -3  -7    6.12    0.62
  -8  -3   7    5.40    0.56
   8  -3  -7    5.79    0.66
  -8  -3   7    6.29    0.60
  -8  -3   7    5.28    0.53
   8   3  -7    5.94    0.67
   8   3  -7    5.71    0.59
  -8   3   7    6.05    0.56
  -8   3   7    5.65    0.61
  -8   3   7    5.51    0.56
   8   3  -7    7.15    0.58
   7  -3  -7   12.17    0.80
   7  -3  -7   14.49    0.90
   7  -3  -7   12.93    0.78
  -7  -3   7   12.59    0.62
  -7  -3   7   12.27    0.72
  -7  -3   7   11.56    0.73
  -7   3   7   12.86    0.74
  -7   3   7   12.99    0.78
   7   3  -7   13.27    0.93
  -7   3   7   11.61    0.84
   7   3  -7   12.79    0.68
   7   3  -7   12.30    0.84
   6  -3  -7   18.69    0.81
  -6  -3   7   18.87    0.82
  -6  -3   7   17.99    0.64
   6  -3  -7   17.31    0.99
   6  -3  -7   16.52    0.85
  -6  -3   7   18.95    0.82
  -6   3   7   17.62    0.78
  -6   3   7   16.51    0.93
   6   3  -7   18.23    0.77
   6   3  -7   17.39    0.95
  -6   3   7   18.89    0.83
   6   3  -7   17.50    0.91
   5  -3  -7    1.14    0.31
   5  -3  -7    1.41    0.32
  -5  -3   7    1.37    0.30
  -5  -3   7    1.00    0.29
   5  -3  -7    0.77    0.35
  -5  -3   7    1.26    0.21
   5   3  -7    1.04    0.24
   5   3  -7    1.25    0.37
  -5   3   7    1.35    0.28
  -5   3   7    0.87    0.33
   5   3  -7    0.73    0.29
  -4  -3   7    0.56    0.16
  -4  -3   7    0.79    0.28
   4  -3  -7    0.64    0.25
  -4  -3   7    0.71    0.25
   4  -3  -7    0.14    0.33
   4   3  -7    0.87    0.28
  -4   3   7    0.59    0.21
   4   3  -7    0.71    0.23
  -4   3   7    1.03    0.30
   4   3  -7    0.19    0.26
   3  -3  -7   13.06    0.74
  -3  -3   7   11.62    0.59
  -3  -3   7   12.17    0.44
   3  -3  -7   11.59    0.53
  -3   3   7   11.91    0.47
   3   3  -7   11.32    0.68
   3   3  -7   12.32    0.56
  -3   3   7   11.90    0.70
   3   3  -7   12.41    0.59
  -2  -3   7   17.29    0.68
   2  -3  -7   16.72    0.55
  -2  -3   7   17.22    0.57
   2  -3  -7   17.29    0.81
   2   3  -7   16.99    0.65
  -2   3   7   16.70    0.77
   2   3  -7   16.64    0.58
  -2   3   7   15.84    0.50
  -1  -3   7    1.68    0.25
   1  -3  -7    1.40    0.31
   1  -3  -7    1.40    0.17
  -1  -3   7    1.79    0.29
   1  -3  -7    1.12    0.29
   1   3  -7    1.42    0.24
  -1   3   7    1.45    0.16
   1   3  -7    1.67    0.18
  -1   3   7    1.24    0.28
  -1   3   7    1.26    0.13
   0  -3  -7   17.77    0.74
   0  -3  -7   15.30    0.74
   0  -3   7   16.36    0.69
   0  -3   7   17.44    0.69
   0   3  -7   16.79    0.66
   1  -3   7   18.65    0.81
  -1  -3  -7   17.70    0.83
  -1  -3  -7   17.87    0.80
   1  -3   7   18.61    0.73
  -1  -3  -7   18.27    0.75
  -1   3  -7   18.10    0.69
   2  -3   7    6.34    0.62
  -2  -3  -7    5.92    0.59
   2  -3   7    5.22    0.50
  -2  -3  -7    6.02    0.62
  -2  -3  -7    5.50    0.47
  -2   3  -7    5.18    0.47
  -3  -3  -7    2.73    0.42
   3  -3   7    2.65    0.46
  -3  -3  -7    2.71    0.32
   3  -3   7    3.05    0.39
  -3  -3  -7    2.49    0.41
  -3   3  -7    2.80    0.33
  -4  -3  -7    2.02    0.47
   4  -3   7    1.17    0.45
   4  -3   7    1.70    0.36
  -4  -3  -7    1.66    0.28
  -4  -3  -7    1.55    0.43
  -4   3  -7    1.19    0.31
  -5  -3  -7   11.24    0.60
  -5  -3  -7   12.48    0.99
  -5  -3  -7    9.80    0.90
   5  -3   7    9.72    0.95
   5  -3   7   12.00    0.80
  -5  -3  -7   10.80    0.39
  -5   3  -7   11.34    0.73
  -6  -3  -7    5.26    0.43
  -6  -3  -7    5.57    0.46
   6  -3   7    5.24    0.71
  -6  -3  -7    6.05    0.73
  -6  -3  -7    5.24    0.70
   6  -3   7    6.46    0.61
  -6  -3  -7    5.71    0.53
   6   3   7    4.98    0.74
  -6   3  -7    6.57    0.83
  -6   3  -7    5.64    0.56
  -7  -3  -7    4.55    0.82
   7  -3   7    4.98    0.70
  -7  -3  -7    4.85    0.43
   7  -3   7    4.86    0.78
  -7  -3  -7    5.30    0.44
  -7  -3  -7    3.97    0.80
  -7  -3  -7    5.07    0.57
  -7  -3  -7    6.09    0.44
  -7   3  -7    5.18    0.91
  -7   3  -7    5.85    0.64
   7   3   7    5.38    0.82
  10  -4  -7    4.10    0.80
 -10  -4   7    5.94    0.70
 -10  -4   7    4.13    0.66
  10  -4  -7    5.06    0.85
 -10  -4   7    3.69    0.68
 -10   4   7    4.64    0.75
 -10   4   7    2.97    0.69
  10   4  -7    6.53    0.93
 -10   4   7    4.60    0.75
  10   4  -7    6.79    0.64
  10   4  -7    4.91    0.82
  -9  -4   7   13.03    0.99
  -9  -4   7   13.33    0.92
   9  -4  -7   13.63    1.18
  -9  -4   7   14.20    0.94
   9  -4  -7   11.81    1.13
   9   4  -7   13.00    0.82
   9   4  -7   14.18    1.16
  -9   4   7   12.58    1.04
  -9   4   7   13.63    1.06
   9   4  -7   11.51    1.04
  -9   4   7   14.07    1.07
   8  -4  -7    0.87    0.52
  -8  -4   7    1.29    0.39
   8  -4  -7    2.13    0.52
  -8  -4   7    2.13    0.47
  -8  -4   7    1.84    0.43
  -8   4   7    1.57    0.46
   8   4  -7    1.23    0.47
   8   4  -7    1.64    0.60
   8   4  -7    1.51    0.39
  -8   4   7    1.10    0.47
   7  -4  -7   -0.45    0.44
  -7  -4   7    0.97    0.34
   7  -4  -7   -0.19    0.41
  -7  -4   7    0.53    0.35
  -7  -4   7   -0.09    0.31
   7  -4  -7   -0.24    0.38
   7   4  -7    0.34    0.49
   7   4  -7   -0.31    0.38
  -7   4   7    0.59    0.34
  -7   4   7   -0.31    0.41
   7   4  -7    0.21    0.31
  -6  -4   7    3.08    0.33
   6  -4  -7    2.39    0.43
  -6  -4   7    2.44    0.38
   6  -4  -7    2.88    0.45
  -6  -4   7    2.19    0.35
   6  -4  -7    2.88    0.51
  -6   4   7    2.50    0.38
  -6   4   7    2.57    0.54
   6   4  -7    2.89    0.36
   6   4  -7    2.78    0.51
   6   4  -7    2.83    0.46
  -5  -4   7   29.86    1.09
   5  -4  -7   30.78    1.06
  -5  -4   7   32.40    0.93
   5  -4  -7   32.88    1.33
  -5  -4   7   31.66    1.09
  -5   4   7   30.89    1.29
  -5   4   7   34.02    1.03
   5   4  -7   32.32    1.27
   5   4  -7   29.68    1.03
   5   4  -7   32.64    1.17
   4  -4  -7   18.60    1.02
  -4  -4   7   19.06    0.83
   4  -4  -7   19.10    0.78
  -4   4   7   19.47    0.96
  -4   4   7   18.28    0.71
   4   4  -7   19.04    0.83
   4   4  -7   19.79    0.79
   4   4  -7   18.59    0.95
   3  -4  -7    9.50    0.77
   3  -4  -7    9.34    0.52
  -3  -4   7   10.06    0.62
  -3   4   7   10.30    0.74
   3   4  -7    9.48    0.57
   3   4  -7   10.05    0.70
   3   4  -7    9.06    0.57
  -3   4   7    7.71    0.47
   2  -4  -7   16.15    0.86
  -2  -4   7   17.18    0.76
   2  -4  -7   16.22    0.60
  -2  -4   7   16.62    0.66
   2   4  -7   15.66    0.63
  -2   4   7   17.07    0.81
   2   4  -7   16.56    0.72
  -2   4   7   16.15    0.56
   1  -4  -7    2.14    0.39
  -1  -4   7    2.60    0.34
   1  -4  -7    2.54    0.40
   1  -4  -7    2.46    0.25
  -1  -4   7    2.93    0.39
  -1   4   7    2.28    0.34
   1   4  -7    2.46    0.32
   1   4  -7    2.46    0.24
  -1   4   7    2.43    0.22
   0  -4  -7    0.43    0.29
   0  -4   7   -0.10    0.28
   0  -4  -7    0.07    0.32
   0  -4   7    0.06    0.26
   0  -4  -7   -0.05    0.15
   0   4  -7    0.79    0.28
   0   4   7    0.17    0.12
  -1  -4  -7    3.47    0.37
   1  -4   7    3.26    0.40
   1  -4   7    2.97    0.45
  -1  -4  -7    3.59    0.45
  -1   4  -7    3.54    0.39
  -2  -4  -7   18.58    0.93
  -2  -4  -7   18.06    0.74
   2  -4   7   19.36    0.97
  -2  -4  -7   20.04    0.97
   2  -4   7   18.08    0.84
  -2   4  -7   19.05    0.80
   3  -4   7    0.74    0.45
  -3  -4  -7    0.76    0.43
  -3  -4  -7    0.57    0.24
   3  -4   7    0.08    0.35
  -3  -4  -7    0.62    0.40
  -3   4  -7    0.32    0.29
  -4  -4  -7   10.32    0.91
   4  -4   7   10.09    0.99
  -4  -4  -7    8.31    0.90
   4  -4   7    8.89    0.77
  -4   4  -7    6.96    0.69
  -5  -4  -7    1.35    0.56
  -5  -4  -7    1.29    0.25
   5  -4   7    1.57    0.50
  -5  -4  -7    0.68    0.54
  -5  -4  -7    0.83    0.22
   5  -4   7    1.25    0.60
  -5   4  -7    1.05    0.41
  -6  -4  -7    2.35    0.69
  -6  -4  -7    1.53    0.31
   6  -4   7    1.81    0.60
   6  -4   7    2.27    0.70
  -6  -4  -7    1.34    0.29
  -6  -4  -7    1.82    0.66
  -6   4  -7    2.43    0.51
  -9  -5   7    3.90    0.56
  -9  -5   7    5.86    0.75
   9  -5  -7    6.52    0.89
  -9  -5   7    5.66    0.61
   9  -5  -7    5.93    0.86
   9   5  -7    6.31    0.92
  -9   5   7    5.49    0.76
   9   5  -7    4.94    0.75
   9   5  -7    5.51    0.55
  -9   5   7    5.68    0.72
  -8  -5   7    1.16    0.51
   8  -5  -7    0.75    0.64
  -8  -5   7    1.35    0.46
   8  -5  -7    1.12    0.59
  -8  -5   7    1.54    0.52
   8   5  -7    1.24    0.58
  -8   5   7    0.90    0.52
  -8   5   7    0.98    0.58
   8   5  -7    0.59    0.66
   8   5  -7    1.42    0.41
  -7  -5   7    3.57    0.52
  -7  -5   7    4.62    0.52
   7  -5  -7    4.23    0.61
  -7  -5   7    3.39    0.44
   7  -5  -7    3.82    0.63
   7   5  -7    4.28    0.62
  -7   5   7    3.76    0.68
  -7   5   7    4.97    0.56
   7   5  -7    3.82    0.46
   7   5  -7    3.77    0.65
   6  -5  -7    6.80    0.69
  -6  -5   7    6.78    0.67
  -6  -5   7    5.95    0.51
   6  -5  -7    7.29    0.64
  -6  -5   7    6.92    0.70
   6   5  -7    6.90    0.69
  -6   5   7    6.24    0.70
   6   5  -7    6.51    0.70
   6   5  -7    7.71    0.63
  -6   5   7    6.26    0.57
   5  -5  -7    0.94    0.38
  -5  -5   7    1.17    0.40
  -5  -5   7    1.48    0.36
  -5   5   7    1.19    0.35
   5   5  -7    1.48    0.43
   5   5  -7    0.62    0.32
   5   5  -7    0.83    0.44
  -5   5   7    0.99    0.47
  -4  -5   7    1.63    0.38
   4  -5  -7    1.49    0.46
   4  -5  -7    1.34    0.36
  -4   5   7    1.15    0.43
  -4   5   7    0.68    0.33
   4   5  -7    1.19    0.41
   4   5  -7    1.10    0.31
   4   5  -7    1.79    0.41
  -3  -5   7    1.17    0.33
   3  -5  -7    1.77    0.47
   3  -5  -7    1.51    0.33
   3   5  -7    1.24    0.33
   3   5  -7    1.55    0.43
  -3   5   7    1.64    0.43
  -3   5   7    1.62    0.31
   3   5  -7    1.67    0.37
   2  -5  -7    3.85    0.51
  -2  -5   7    4.23    0.50
   2  -5  -7    3.34    0.48
  -2  -5   7    3.97    0.44
   2  -5  -7    4.20    0.38
   2   5  -7    3.47    0.40
   2   5  -7    4.00    0.40
  -2   5   7    3.39    0.33
  -2   5   7    3.72    0.46
  -1  -5   7    1.51    0.39
   1  -5  -7    1.12    0.37
  -1  -5   7    0.91    0.38
   1  -5  -7    1.43    0.36
   1  -5  -7    1.51    0.28
   1   5  -7    1.39    0.34
  -1   5   7    1.39    0.35
  -1   5   7    1.23    0.23
   0  -5  -7    8.19    0.78
   0  -5   7    9.25    0.73
   0  -5  -7    8.13    0.45
   0  -5  -7    9.23    0.66
   0  -5   7    8.93    0.74
   0   5  -7    6.80    0.65
   0   5   7    8.32    0.42
   1  -5   7    8.70    0.78
  -1  -5  -7    8.92    0.86
  -1  -5  -7    7.96    0.43
   1  -5   7    7.91    0.73
  -1   5  -7    8.35    0.69
   1   5   7    8.65    0.39
   2  -5   7    3.89    0.52
  -2  -5  -7    3.84    0.36
  -2  -5  -7    3.70    0.54
  -2  -5  -7    3.64    0.36
   2  -5   7    2.75    0.56
  -2  -5  -7    3.29    0.53
  -2   5  -7    3.59    0.44
   2   5   7    4.47    0.35
   3  -5   7    2.14    0.46
  -3  -5  -7    2.31    0.25
  -3  -5  -7    3.10    0.56
  -3  -5  -7    2.74    0.29
  -3  -5  -7    2.11    0.52
   3  -5   7    2.77    0.60
  -3   5  -7    1.65    0.43
  -4  -5  -7    0.69    0.58
  -4  -5  -7    0.32    0.54
   4  -5   7    0.34    0.47
  -4  -5  -7    0.24    0.25
   4  -5   7    0.60    0.60
  -4  -5  -7    0.13    0.24
  -4   5  -7    0.49    0.42
   5  -5   7    3.85    0.67
  -5  -5  -7    4.51    0.76
  -5  -5  -7    4.72    0.76
   5  -5   7    3.34    0.78
  -5  -5  -7    4.99    0.51
  -5  -5  -7    4.27    0.36
  -5   5  -7    3.86    0.58
   8  -6  -7   -0.56    0.75
   8  -6  -7   -0.57    0.72
  -8  -6   7    0.74    0.53
  -8  -6   7   -0.17    0.60
  -8  -6   7   -0.22    0.57
   8   6  -7    0.16    0.84
  -8   6   7    1.10    0.83
   8   6  -7    0.64    0.55
  -8   6   7    0.49    0.67
   8   6  -7   -1.01    0.62
  -7  -6   7    0.15    0.51
   7  -6  -7    0.39    0.60
  -7  -6   7    0.20    0.50
   7  -6  -7   -0.22    0.63
  -7  -6   7   -0.64    0.48
   7   6  -7    0.45    0.67
  -7   6   7   -0.80    0.52
  -7   6   7    0.19    0.66
   7   6  -7    0.31    0.48
   7   6  -7    0.85    0.57
  -6  -6   7    2.48    0.49
  -6  -6   7    1.67    0.46
   6  -6  -7    2.29    0.65
  -6  -6   7    2.17    0.49
   6  -6  -7    0.60    0.55
  -6   6   7    1.64    0.49
   6   6  -7    3.09    0.46
  -6   6   7    0.74    0.62
   6   6  -7    1.53    0.59
   6   6  -7    2.09    0.63
  -5  -6   7   14.87    0.92
   5  -6  -7   14.86    0.98
   5   6  -7   13.36    1.01
  -5   6   7   15.47    0.90
  -5   6   7   15.26    1.19
   5   6  -7   14.98    0.84
   5   6  -7   14.23    1.09
  -4  -6   7    4.92    0.54
   4  -6  -7    5.48    0.56
  -4   6   7    4.52    0.67
   4   6  -7    4.94    0.51
  -4   6   7    5.34    0.52
   4   6  -7    5.76    0.61
   4   6  -7    5.04    0.66
   3  -6  -7    2.90    0.46
  -3  -6   7    3.01    0.51
   3  -6  -7    3.31    0.44
  -3   6   7    2.75    0.40
  -3   6   7    2.52    0.53
   3   6  -7    1.82    0.44
   3   6  -7    2.83    0.47
   2  -6  -7    2.38    0.40
  -2  -6   7    2.20    0.46
   2  -6  -7    2.35    0.48
   2   6  -7    2.80    0.44
  -2   6   7    2.47    0.38
  -2   6   7    2.81    0.47
  -1  -6   7   -0.33    0.38
   1  -6  -7    0.30    0.32
  -1  -6   7    0.00    0.41
   1  -6  -7   -0.26    0.45
  -1   6   7    0.28    0.36
  -1   6   7   -0.28    0.27
   1   6  -7    0.02    0.35
   0  -6   7    1.28    0.48
   0  -6  -7    0.46    0.47
   0  -6  -7    0.40    0.31
   0  -6   7    0.59    0.48
   0   6  -7    0.75    0.40
   0   6   7    0.71    0.27
  -1  -6  -7    1.63    0.34
   1  -6   7    1.54    0.50
   1  -6   7    1.83    0.53
  -1  -6  -7    2.72    0.57
  -1   6  -7    2.33    0.47
   1   6   7    1.78    0.29
   2  -6   7    7.17    0.78
  -2  -6  -7    8.73    0.84
  -2  -6  -7    7.10    0.54
   2  -6   7    7.01    0.69
  -2  -6  -7    7.37    0.56
   2   6   7    7.39    0.49
  -2   6  -7    7.94    0.68
   3  -6   7    0.70    0.62
  -3  -6  -7   -0.08    0.60
  -3  -6  -7    0.97    0.30
   3  -6   7    1.45    0.56
  -3  -6  -7    0.47    0.32
  -3  -6  -7    0.67    0.61
  -3   6  -7    0.19    0.49
   3   6   7    0.57    0.31
  -4  -6  -7    2.13    0.39
  -4  -6  -7    2.30    0.40
  -4  -6  -7    1.23    0.71
   4  -6   7    1.75    0.64
   4  -6   7    1.02    0.74
  -4  -6  -7    2.52    0.77
  -4   6  -7    1.81    0.59
  -6  -7   7    2.29    0.60
  -6  -7   7    1.45    0.60
   6  -7  -7    2.99    0.87
   6  -7  -7    2.31    0.70
   6   7  -7    1.81    0.69
   6   7  -7    2.37    0.77
  -6   7   7    1.92    0.65
  -6   7   7    1.10    0.79
   6   7  -7    2.85    0.55
   5  -7  -7   -0.05    0.60
  -5  -7   7    0.28    0.52
   5  -7  -7    1.09    0.61
  -5   7   7    0.03    0.52
   5   7  -7    0.69    0.50
   5   7  -7    0.03    0.64
   5   7  -7    0.23    0.61
  -5   7   7   -0.49    0.67
   4  -7  -7   -0.90    0.58
  -4  -7   7   -1.08    0.50
   4  -7  -7    0.40    0.53
   4   7  -7    1.13    0.48
  -4   7   7    0.20    0.46
   4   7  -7    0.44    0.64
  -4   7   7    0.29    0.61
   4   7  -7    0.11    0.55
  -3  -7   7    0.72    0.58
   3  -7  -7    0.85    0.54
   3  -7  -7    2.20    0.56
  -3   7   7    1.54    0.62
   3   7  -7    2.14    0.49
   3   7  -7    0.09    0.52
  -3   7   7    1.14    0.47
  -2  -7   7    1.91    0.56
   2  -7  -7    1.67    0.55
   2  -7  -7    2.16    0.52
  -2   7   7    1.95    0.57
   2   7  -7    2.52    0.51
  -2   7   7    1.57    0.43
   1  -7  -7    0.51    0.58
  -1  -7   7   -0.54    0.58
   1  -7  -7    0.90    0.47
  -1  -7   7    0.73    0.56
  -1   7   7    1.01    0.41
  -1   7   7    1.06    0.45
   1   7  -7    1.83    0.52
   0  -7   7    1.19    0.60
   0  -7  -7    3.13    0.63
   0  -7   7    1.68    0.67
   0  -7  -7    1.37    0.46
   0   7  -7    2.21    0.54
   0   7   7    2.22    0.40
  -1  -7  -7    1.27    0.43
   1  -7   7    0.64    0.60
   1  -7   7    0.51    0.67
  -1  -7  -7    0.68    0.71
  -1   7  -7    0.85    0.55
   1   7   7    0.40    0.38
  -2  -7  -7   -0.12    0.39
  -2  -7  -7    0.25    0.43
  -2  -7  -7    1.04    0.71
   2  -7   7    0.09    0.62
   2  -7   7    0.14    0.74
   2   7   7    0.92    0.38
  -2   7  -7    0.90    0.62
  11   0  -8    6.29    0.79
  11   0  -8    7.12    0.65
  11   0  -8    7.83    0.75
 -11   0   8    6.06    0.70
  11   0  -8    7.77    0.87
 -11   0   8    5.78    0.71
 -11   0   8    7.19    0.89
  10   0  -8    8.40    0.82
  10   0  -8    6.77    0.73
  10   0  -8    6.55    0.75
  10   0  -8    5.95    0.70
 -10   0   8    6.62    0.81
 -10   0   8    5.88    0.63
 -10   0   8    6.15    0.69
   9   0  -8    4.60    0.60
  -9   0   8    7.80    0.75
  -9   0   8    5.57    0.56
   9   0  -8    6.45    0.67
  -9   0   8    5.93    0.70
   9   0  -8    6.00    0.59
   8   0  -8    0.33    0.24
  -8   0   8   -0.02    0.33
   8   0  -8   -0.54    0.31
   8   0  -8   -0.20    0.38
  -8   0   8    0.24    0.35
  -8   0   8   -0.15    0.31
   7   0  -8    3.40    0.42
  -7   0   8    2.85    0.42
  -7   0   8    2.10    0.37
   7   0  -8    2.51    0.25
   7   0  -8    2.54    0.42
  -7   0   8    1.83    0.35
  -6   0   8    2.89    0.38
  -6   0   8    2.13    0.33
  -6   0   8    2.56    0.36
   6   0  -8    2.10    0.32
  -5   0   8  161.88    3.42
  -5   0   8  163.61    3.49
   5   0  -8  157.48    4.00
  -5   0   8  161.38    4.01
  -4   0   8    1.16    0.24
   4   0  -8    1.85    0.32
  -4   0   8    1.17    0.25
  -3   0   8   27.23    0.79
  -3   0   8   26.47    0.73
   3   0  -8   24.18    0.97
   2   0  -8   -0.01    0.13
  -2   0   8   -0.09    0.15
  -2   0   8   -0.01    0.14
   2   0  -8    0.33    0.23
   1   0  -8    0.50    0.12
  -1   0   8    0.59    0.14
  -1   0   8    0.48    0.15
   1   0  -8    0.54    0.18
   1   0  -8    0.35    0.22
   0   0  -8   18.89    0.83
   0   0   8   19.27    0.46
   0   0  -8   19.38    0.64
   0   0  -8   18.32    0.69
  -1   0  -8   51.34    1.43
  -1   0  -8   52.12    1.57
  -1   0  -8   52.83    1.28
  -2   0  -8  106.83    2.64
  -2   0  -8  109.79    2.40
  -3   0  -8    1.16    0.41
  -3   0  -8    1.26    0.17
  -3   0  -8    1.43    0.15
   3   0   8    1.49    0.18
  -3   0  -8    1.11    0.25
   4   0   8    1.99    0.46
  -4   0  -8    1.95    0.25
  -4   0  -8    2.21    0.47
  -4   0  -8    2.28    0.33
   4   0   8    2.10    0.26
  -4   0  -8    2.08    0.22
   5   0   8   -0.48    0.44
  -5   0  -8    0.20    0.22
   5   0   8    0.07    0.27
  -5   0  -8    0.12    0.24
  -5   0  -8    0.03    0.47
  -6   0  -8    6.05    0.57
  -6   0  -8    6.04    0.81
   6   0   8    6.40    0.80
  -6   0  -8    6.65    0.53
   6   0   8    6.77    0.61
   7   0   8    0.29    0.71
  -7   0  -8    1.30    0.42
  -7   0  -8    0.54    0.77
   7   0   8    0.78    0.42
  -7   0  -8    1.25    0.37
  11  -1  -8    0.35    0.62
  11  -1  -8   -0.36    0.53
 -11  -1   8    2.14    0.59
 -11  -1   8    0.21    0.55
 -11  -1   8    1.81    0.72
  11  -1  -8    1.59    0.61
  11   1  -8   -0.53    0.65
 -11   1   8    0.82    0.65
 -11   1   8    0.09    0.57
 -11   1   8    1.23    0.56
  11   1  -8    0.93    0.72
 -10  -1   8    7.52    0.73
  10  -1  -8    7.64    0.64
  10  -1  -8    9.01    0.93
 -10  -1   8    6.60    0.83
  10  -1  -8    7.12    0.75
 -10  -1   8    8.31    0.76
  10   1  -8    8.93    0.90
  10   1  -8    7.67    0.81
 -10   1   8    8.40    0.74
 -10   1   8    7.76    0.71
 -10   1   8    9.25    1.00
  -9  -1   8   14.59    0.92
   9  -1  -8   14.80    0.95
  -9  -1   8   11.85    1.05
   9  -1  -8   12.91    0.97
   9  -1  -8   14.66    0.79
  -9  -1   8   13.90    0.89
   9   1  -8   14.13    1.04
  -9   1   8   16.20    0.98
   9   1  -8   15.27    1.07
  -9   1   8   14.21    0.87
  -9   1   8   14.81    0.88
   8  -1  -8   12.94    0.67
  -8  -1   8   15.24    0.84
   8  -1  -8   14.15    0.92
   8  -1  -8   15.30    0.85
  -8  -1   8   14.29    0.95
  -8  -1   8   13.08    0.79
   8   1  -8   14.68    0.95
  -8   1   8   12.39    0.88
   8   1  -8   14.54    0.98
  -8   1   8   16.81    0.83
  -8   1   8   13.95    0.80
  -7  -1   8    1.01    0.33
   7  -1  -8    1.48    0.35
  -7  -1   8    1.60    0.41
  -7  -1   8    0.83    0.31
   7  -1  -8    0.81    0.35
   7  -1  -8    0.88    0.26
  -7   1   8    1.38    0.33
  -7   1   8    1.17    0.34
   7   1  -8    0.14    0.30
  -7   1   8    0.65    0.36
   7   1  -8    1.51    0.40
  -6  -1   8    7.44    0.62
  -6  -1   8    6.27    0.57
   6  -1  -8    7.58    0.65
  -6  -1   8    6.28    0.54
   6  -1  -8    5.87    0.55
   6  -1  -8    7.09    0.40
   6   1  -8    6.12    0.59
  -6   1   8    5.84    0.52
   6   1  -8    5.69    0.50
  -6   1   8    5.72    0.52
  -6   1   8    6.50    0.61
   5  -1  -8    5.94    0.57
   5  -1  -8    6.04    0.50
  -5  -1   8    5.15    0.49
   5  -1  -8    5.95    0.33
  -5  -1   8    6.52    0.49
   5   1  -8    6.97    0.54
  -5   1   8    6.02    0.60
  -5   1   8    5.32    0.47
   5   1  -8    4.99    0.45
  -5   1   8    5.46    0.46
  -4  -1   8    2.32    0.29
  -4  -1   8    2.36    0.30
   4  -1  -8    2.28    0.27
   4  -1  -8    1.43    0.29
   4  -1  -8    2.08    0.18
   4   1  -8    1.29    0.26
   4   1  -8    1.82    0.26
  -4   1   8    1.57    0.31
  -4   1   8    1.98    0.25
  -4   1   8    1.86    0.27
  -3  -1   8   46.50    1.19
   3  -1  -8   46.12    1.47
   3  -1  -8   45.89    1.08
  -3  -1   8   47.18    1.17
  -3   1   8   47.10    1.12
   3   1  -8   45.74    1.15
   3   1  -8   48.18    1.49
  -3   1   8   47.84    1.10
  -2  -1   8   26.87    0.76
  -2  -1   8   27.54    0.77
   2  -1  -8   25.83    1.00
   2  -1  -8   27.07    0.74
   2   1  -8   26.61    0.74
  -2   1   8   26.63    0.66
   2   1  -8   27.14    1.02
  -2   1   8   26.41    0.65
  -1  -1   8   48.68    1.14
   1  -1  -8   47.79    1.23
   1  -1  -8   48.46    1.47
  -1  -1   8   47.01    1.14
   1   1  -8   47.92    1.12
   1   1  -8   49.23    1.51
   0  -1  -8   21.38    0.87
   0  -1   8   22.13    0.62
   0  -1   8   21.10    0.67
   0  -1  -8   22.27    0.76
   0  -1  -8   20.89    0.76
   0   1  -8   21.14    0.60
   0   1  -8   20.74    0.58
   0   1  -8   21.15    0.67
   1  -1   8    0.45    0.17
  -1  -1  -8    0.18    0.25
  -1  -1  -8   -0.11    0.26
   1  -1   8    0.34    0.24
  -1  -1  -8    0.28    0.24
  -1   1  -8    0.33    0.14
  -1   1  -8    0.38    0.23
  -2  -1  -8    0.16    0.27
   2  -1   8    0.10    0.18
   2  -1   8   -0.38    0.26
  -2  -1  -8    0.19    0.26
  -2  -1  -8    0.21    0.31
  -2   1  -8   -0.03    0.29
  -2   1  -8    0.41    0.16
   3  -1   8   14.13    0.55
  -3  -1  -8   14.63    0.69
   3  -1   8   14.05    0.80
  -3  -1  -8   13.27    0.74
  -3  -1  -8   13.63    0.85
  -3   1  -8   13.68    0.79
  -3   1  -8   14.64    0.52
   4  -1   8   19.71    1.01
  -4  -1  -8   21.75    0.86
   4  -1   8   20.46    0.74
  -4  -1  -8   19.40    1.08
  -4   1  -8   21.72    0.69
  -4   1  -8   20.55    1.04
   5  -1   8   22.00    1.18
  -5  -1  -8   21.42    0.57
  -5  -1  -8   22.90    1.23
  -5  -1  -8   21.58    0.97
   5  -1   8   21.16    0.84
  -5   1  -8   20.62    1.16
  -5   1  -8   22.28    0.76
   6  -1   8   11.66    0.80
  -6  -1  -8    9.91    0.95
  -6  -1  -8   10.90    0.91
   6  -1   8   13.11    1.11
  -6  -1  -8   11.86    0.54
  -6  -1  -8   12.42    0.52
  -6   1  -8   12.20    0.76
  -6   1  -8   12.01    0.68
  -6   1  -8   11.88    1.00
  -7  -1  -8   -0.21    0.74
   7  -1   8   -0.17    0.46
  -7  -1  -8   -0.17    0.32
   7  -1   8    1.69    0.67
  -7  -1  -8    0.25    0.35
  -7   1  -8    0.56    0.71
  -7   1  -8    0.36    0.42
  -7   1  -8    0.42    0.45
  11  -2  -8    3.27    0.70
 -11  -2   8    4.97    0.87
 -11  -2   8    4.88    0.70
  11  -2  -8    5.18    0.75
 -11  -2   8    5.17    0.69
 -11  -2   8    4.27    0.71
  11  -2  -8    5.66    0.79
  11   2  -8    4.79    0.89
  11   2  -8    5.41    0.87
 -11   2   8    3.10    0.74
 -11   2   8    4.22    0.69
 -11   2   8    4.53    0.74
 -10  -2   8    3.25    0.54
 -10  -2   8    1.82    0.62
 -10  -2   8    2.35    0.50
  10  -2  -8    2.41    0.58
 -10  -2   8    1.90    0.53
  10  -2  -8    2.04    0.53
  10  -2  -8    3.25    0.55
 -10   2   8    2.29    0.57
  10   2  -8    3.54    0.74
  10   2  -8    1.31    0.67
 -10   2   8    1.59    0.58
 -10   2   8    2.16    0.58
   9  -2  -8    2.00    0.47
  -9  -2   8    1.41    0.54
   9  -2  -8    2.25    0.52
   9  -2  -8    1.59    0.45
  -9  -2   8    1.10    0.46
  -9  -2   8    0.76    0.42
  -9  -2   8    1.39    0.35
   9   2  -8    1.15    0.52
  -9   2   8    1.21    0.47
  -9   2   8    1.27    0.44
   9   2  -8    1.50    0.57
  -9   2   8    0.81    0.43
   8  -2  -8    0.59    0.41
  -8  -2   8    0.34    0.39
  -8  -2   8    0.47    0.37
  -8  -2   8    1.25    0.28
   8  -2  -8    1.59    0.44
   8  -2  -8    1.01    0.41
  -8   2   8    0.59    0.38
   8   2  -8    0.06    0.41
  -8   2   8    0.41    0.35
   8   2  -8    0.78    0.33
  -8   2   8    0.69    0.40
   8   2  -8    0.22    0.42
  -7  -2   8    5.17    0.51
  -7  -2   8    6.44    0.62
   7  -2  -8    6.12    0.56
   7  -2  -8    5.36    0.55
   7  -2  -8    6.22    0.72
  -7   2   8    6.20    0.53
  -7   2   8    5.90    0.65
   7   2  -8    5.06    0.56
   7   2  -8    5.56    0.61
   7   2  -8    5.25    0.55
  -7   2   8    5.40    0.50
  -6  -2   8    2.93    0.38
  -6  -2   8    2.22    0.37
   6  -2  -8    2.06    0.35
   6  -2  -8    2.64    0.34
   6  -2  -8    2.67    0.44
   6   2  -8    2.04    0.36
  -6   2   8    1.82    0.43
   6   2  -8    2.68    0.36
  -6   2   8    2.22    0.35
   6   2  -8    2.48    0.49
  -6   2   8    2.48    0.34
  -5  -2   8  103.29    2.42
  -5  -2   8  105.90    2.40
   5  -2  -8  103.67    2.35
   5  -2  -8  102.01    2.81
   5  -2  -8  105.33    2.34
  -5   2   8  102.52    2.33
   5   2  -8   97.71    2.55
   5   2  -8  105.84    2.80
  -5   2   8  105.59    2.33
   5   2  -8  102.77    2.38
  -5   2   8  103.54    2.80
  -4  -2   8    0.64    0.24
  -4  -2   8    0.29    0.24
   4  -2  -8    0.33    0.27
   4  -2  -8    0.83    0.23
   4   2  -8    0.92    0.26
  -4   2   8    0.45    0.21
  -4   2   8    0.35    0.26
   4   2  -8    0.44    0.22
   4   2  -8    0.75    0.32
  -4   2   8    0.44    0.22
   3  -2  -8    4.60    0.52
   3  -2  -8    4.50    0.34
  -3  -2   8    4.43    0.43
  -3  -2   8    4.57    0.44
  -3   2   8    4.82    0.33
   3   2  -8    5.19    0.50
   3   2  -8    4.36    0.47
  -3   2   8    4.44    0.44
  -3   2   8    4.78    0.31
   3   2  -8    4.78    0.39
  -2  -2   8    3.65    0.34
   2  -2  -8    3.51    0.42
  -2   2   8    3.38    0.22
  -2   2   8    3.26    0.22
   2   2  -8    3.73    0.33
   2   2  -8    3.80    0.45
   2   2  -8    3.91    0.35
   1  -2  -8    3.29    0.33
  -1  -2   8    3.48    0.33
  -1  -2   8    3.17    0.30
   1  -2  -8    3.42    0.40
   1  -2  -8    2.96    0.37
   1   2  -8    3.50    0.34
   1   2  -8    3.40    0.29
   0  -2   8   14.96    0.59
   0  -2  -8   14.30    0.69
   0  -2  -8   14.92    0.66
   0  -2   8   13.85    0.59
   0  -2  -8   14.86    0.72
   0   2  -8   14.68    0.57
  -1  -2  -8   27.22    0.97
  -1  -2  -8   26.76    0.99
   1  -2   8   26.28    0.82
  -1  -2  -8   27.31    0.96
   1  -2   8   26.48    0.91
  -1   2  -8   27.46    0.80
   2  -2   8   59.66    1.43
   2  -2   8   57.68    1.61
  -2  -2  -8   56.97    1.65
  -2  -2  -8   58.52    1.68
  -2  -2  -8   58.34    1.60
  -2   2  -8   59.18    1.41
  -2   2  -8   56.45    1.59
  -3  -2  -8    0.42    0.39
  -3  -2  -8    0.35    0.29
   3  -2   8    0.27    0.25
  -3  -2  -8    0.10    0.32
   3  -2   8   -0.26    0.36
  -3   2  -8    0.35    0.22
  -3   2  -8    0.06    0.33
  -4  -2  -8    0.23    0.31
   4  -2   8    0.20    0.44
   4  -2   8   -0.09    0.30
  -4  -2  -8    0.31    0.45
  -4  -2  -8    1.11    0.41
  -4   2  -8   -0.04    0.41
  -4   2  -8    0.19    0.26
   5  -2   8   -0.62    0.36
  -5  -2  -8   -0.48    0.45
  -5  -2  -8    0.19    0.34
  -5  -2  -8   -0.72    0.55
   5  -2   8   -0.15    0.47
  -5   2  -8   -0.13    0.30
  -5   2  -8    0.03    0.51
   6  -2   8    2.37    0.66
  -6  -2  -8    3.76    0.52
  -6  -2  -8    3.24    0.64
   6  -2   8    3.42    0.53
  -6  -2  -8    4.04    0.79
  -6   2  -8    3.37    0.74
  -6   2  -8    4.61    0.50
  10  -3  -8    7.26    0.75
 -10  -3   8    5.96    0.62
  10  -3  -8    5.08    0.73
  10  -3  -8    6.19    0.77
 -10  -3   8    3.95    0.62
 -10  -3   8    5.92    0.73
 -10   3   8    5.60    0.75
  10   3  -8    6.67    0.84
  10   3  -8    6.31    0.64
 -10   3   8    5.64    0.73
 -10   3   8    6.40    0.81
  10   3  -8    5.97    0.84
   9  -3  -8    8.95    0.78
   9  -3  -8    8.35    0.78
   9  -3  -8   10.78    0.96
  -9  -3   8    8.74    0.78
  -9  -3   8   10.09    0.90
  -9  -3   8    9.34    0.72
  -9   3   8   11.21    0.95
  -9   3   8    9.78    0.91
   9   3  -8    8.90    0.88
   9   3  -8   11.37    1.11
  -9   3   8    9.83    0.98
   9   3  -8   11.17    0.84
   8  -3  -8    7.73    0.68
   8  -3  -8    6.96    0.71
   8  -3  -8    8.56    0.81
  -8  -3   8    8.09    0.73
  -8  -3   8    8.39    0.76
  -8  -3   8    7.84    0.57
   8   3  -8    8.03    0.91
   8   3  -8    9.10    0.83
   8   3  -8    7.38    0.65
  -8   3   8    8.73    0.83
  -8   3   8    8.91    0.79
  -8   3   8    8.26    0.81
   7  -3  -8    0.37    0.42
  -7  -3   8    0.71    0.36
  -7  -3   8    0.42    0.24
   7  -3  -8    0.38    0.38
   7  -3  -8    0.81    0.40
  -7  -3   8   -0.04    0.35
   7   3  -8   -0.49    0.36
  -7   3   8   -0.05    0.35
  -7   3   8    0.06    0.35
   7   3  -8    0.88    0.48
   7   3  -8    0.54    0.31
  -7   3   8    0.80    0.36
   6  -3  -8    2.52    0.40
  -6  -3   8    2.93    0.41
   6  -3  -8    2.71    0.43
  -6  -3   8    2.20    0.41
   6  -3  -8    2.47    0.47
  -6   3   8    2.75    0.38
  -6   3   8    2.56    0.40
  -6   3   8    1.93    0.42
   6   3  -8    2.49    0.36
   6   3  -8    2.63    0.49
   6   3  -8    2.33    0.52
   5  -3  -8    1.16    0.31
  -5  -3   8    1.21    0.28
   5  -3  -8    1.01    0.31
  -5  -3   8    0.99    0.30
   5  -3  -8    1.61    0.43
   5   3  -8    0.52    0.27
   5   3  -8    1.18    0.41
   5   3  -8    0.77    0.32
  -5   3   8    1.32    0.28
  -5   3   8    1.06    0.30
  -5   3   8    1.41    0.36
   4  -3  -8    2.51    0.33
  -4  -3   8    1.69    0.32
   4  -3  -8    2.25    0.42
  -4  -3   8    1.77    0.33
   4   3  -8    2.60    0.39
   4   3  -8    1.87    0.35
  -4   3   8    2.06    0.41
  -4   3   8    2.26    0.27
  -4   3   8    2.72    0.32
   4   3  -8    2.20    0.30
   3  -3  -8   25.03    1.08
   3  -3  -8   25.03    0.77
  -3  -3   8   25.76    0.89
   3   3  -8   25.04    0.86
  -3   3   8   26.98    0.77
  -3   3   8   25.13    0.72
  -3   3   8   25.12    1.06
   3   3  -8   26.23    0.87
   3   3  -8   27.74    1.07
  -2  -3   8   14.38    0.67
   2  -3  -8   15.55    0.82
  -2  -3   8   14.38    0.54
   2  -3  -8   13.67    0.46
   2   3  -8   14.38    0.77
   2   3  -8   14.96    0.64
   2   3  -8   14.18    0.54
  -2   3   8   13.95    0.46
  -2   3   8   13.81    0.77
  -2   3   8   13.44    0.44
   1  -3  -8   22.81    0.96
  -1  -3   8   22.84    0.83
  -1  -3   8   23.58    0.79
   1  -3  -8   24.02    0.98
   1   3  -8   23.48    0.80
   0  -3   8    7.89    0.55
   0  -3  -8    7.69    0.64
   0  -3  -8    8.49    0.61
   0  -3   8    8.95    0.58
   0  -3  -8    7.51    0.58
   0   3  -8    8.12    0.51
  -1  -3  -8   -0.17    0.26
  -1  -3  -8    0.75    0.34
   1  -3   8    0.52    0.28
   1  -3   8    0.13    0.31
  -1  -3  -8    0.06    0.31
  -1   3  -8    0.24    0.24
   2  -3   8    0.37    0.29
  -2  -3  -8    0.20    0.33
  -2  -3  -8    0.10    0.34
   2  -3   8    0.24    0.34
  -2  -3  -8   -0.18    0.28
  -2   3  -8    0.13    0.26
   3  -3   8    8.52    0.64
  -3  -3  -8    9.67    0.62
  -3  -3  -8    8.66    0.80
   3  -3   8    6.14    0.62
  -3  -3  -8    9.24    0.78
  -3   3  -8    8.65    0.59
   4  -3   8    9.56    0.74
   4  -3   8    9.90    0.95
  -4  -3  -8   11.69    1.00
  -4  -3  -8    9.51    0.88
  -4  -3  -8   10.23    0.66
  -4   3  -8    9.59    0.67
  -5  -3  -8   10.11    0.87
   5  -3   8   10.27    1.08
   5  -3   8   10.89    0.87
  -5  -3  -8   11.68    1.16
  -5  -3  -8   11.63    0.71
  -5   3  -8   10.35    0.76
  -6  -3  -8    7.12    0.93
  -6  -3  -8    5.77    0.50
   6  -3   8    6.26    0.71
  -6  -3  -8    5.80    0.80
   6  -3   8    7.06    0.88
  -6   3  -8    6.63    0.63
 -10  -4   8    2.26    0.67
  10  -4  -8    2.73    0.80
 -10  -4   8    1.79    0.69
  10  -4  -8    3.24    0.78
 -10  -4   8    1.35    0.61
  10   4  -8    3.16    0.63
 -10   4   8    0.55    0.68
  10   4  -8    3.03    0.95
 -10   4   8    1.34    0.69
 -10   4   8    1.92    0.69
  10   4  -8    0.43    0.78
   9  -4  -8    2.31    0.71
  -9  -4   8    2.06    0.56
  -9  -4   8    2.61    0.58
  -9  -4   8    2.37    0.51
   9  -4  -8    1.90    0.66
   9   4  -8    2.04    0.77
  -9   4   8    2.64    0.62
  -9   4   8    1.83    0.58
   9   4  -8    1.08    0.61
   9   4  -8    1.93    0.50
  -9   4   8    1.72    0.59
  -8  -4   8    0.16    0.40
  -8  -4   8   -0.86    0.37
  -8  -4   8    0.23    0.49
   8  -4  -8    0.17    0.51
   8  -4  -8    0.44    0.57
   8  -4  -8   -0.05    0.52
  -8   4   8   -0.06    0.52
  -8   4   8    0.36    0.46
   8   4  -8    0.11    0.41
   8   4  -8    0.52    0.66
   8   4  -8   -0.42    0.52
  -8   4   8   -0.38    0.44
  -7  -4   8    1.55    0.46
  -7  -4   8    1.83    0.42
   7  -4  -8    2.07    0.58
   7  -4  -8    2.28    0.49
  -7  -4   8    1.84    0.36
   7  -4  -8    0.90    0.48
  -7   4   8    1.65    0.50
   7   4  -8    2.01    0.50
  -7   4   8    1.57    0.46
   7   4  -8    2.35    0.41
   7   4  -8    1.76    0.58
  -7   4   8    2.89    0.48
  -6  -4   8    0.16    0.24
   6  -4  -8    0.62    0.45
  -6  -4   8    0.20    0.36
   6  -4  -8    0.55    0.40
   6  -4  -8    0.75    0.41
  -6  -4   8    0.37    0.33
   6   4  -8    0.79    0.41
   6   4  -8    1.25    0.37
  -6   4   8    0.47    0.43
   6   4  -8    1.14    0.47
  -6   4   8    0.68    0.35
   5  -4  -8   60.37    1.96
  -5  -4   8   55.56    1.62
  -5  -4   8   56.14    1.37
   5  -4  -8   54.20    1.57
  -5  -4   8   56.92    1.66
  -5   4   8   58.55    1.92
   5   4  -8   58.10    1.70
  -5   4   8   57.36    1.49
   5   4  -8   59.05    1.89
   5   4  -8   58.40    1.59
   4  -4  -8    0.41    0.32
   4  -4  -8    0.28    0.43
  -4  -4   8    0.57    0.25
  -4  -4   8    0.92    0.33
   4   4  -8    0.84    0.33
  -4   4   8    0.51    0.41
   4   4  -8    0.95    0.38
  -4   4   8    0.80    0.27
   4   4  -8    0.42    0.27
  -3  -4   8    8.28    0.48
   3  -4  -8    7.82    0.53
   3  -4  -8    7.81    0.77
  -3  -4   8    7.67    0.66
   3   4  -8    7.95    0.55
   3   4  -8    6.51    0.73
  -3   4   8    7.33    0.74
   3   4  -8    7.32    0.56
  -3   4   8    7.52    0.46
  -2  -4   8   -0.25    0.29
   2  -4  -8   -0.09    0.22
   2  -4  -8   -0.09    0.33
   2  -4  -8    0.22    0.37
  -2  -4   8    0.06    0.25
   2   4  -8   -0.20    0.26
  -2   4   8   -0.07    0.17
  -2   4   8   -0.33    0.31
   2   4  -8   -0.15    0.23
   1  -4  -8    0.43    0.18
  -1  -4   8    0.64    0.30
   1  -4  -8    1.00    0.37
  -1  -4   8    0.69    0.33
   1  -4  -8    1.34    0.37
   1   4  -8    0.60    0.28
  -1   4   8    0.67    0.14
   0  -4   8    7.57    0.65
   0  -4  -8    7.90    0.69
   0  -4   8    6.46    0.63
   0  -4  -8    6.71    0.70
   0   4  -8    7.28    0.57
   1  -4   8   16.30    0.89
  -1  -4  -8   16.22    0.81
   1  -4   8   14.28    0.80
  -1  -4  -8   16.07    0.94
  -1  -4  -8   14.08    0.87
  -1   4  -8   15.98    0.76
  -2  -4  -8   37.00    1.34
   2  -4   8   37.03    1.23
  -2  -4  -8   34.54    1.17
   2  -4   8   36.42    1.37
  -2  -4  -8   39.33    1.39
  -2   4  -8   36.99    1.19
   3  -4   8    0.38    0.50
  -3  -4  -8    0.40    0.30
   3  -4   8    0.13    0.42
  -3  -4  -8    0.98    0.48
  -3  -4  -8    0.84    0.48
  -3   4  -8    0.41    0.36
   4  -4   8    1.15    0.46
  -4  -4  -8    0.47    0.56
  -4  -4  -8    1.11    0.56
   4  -4   8    0.64    0.53
  -4   4  -8    1.11    0.41
   5  -4   8   -0.39    0.51
  -5  -4  -8    1.51    0.70
   5  -4   8   -0.05    0.59
  -5  -4  -8    1.11    0.66
  -5   4  -8    0.43    0.47
  -9  -5   8    2.16    0.66
   9  -5  -8    2.65    0.79
  -9  -5   8    3.22    0.69
   9  -5  -8    3.98    0.85
  -9  -5   8    3.01    0.66
   9   5  -8    2.29    0.58
   9   5  -8    3.41    0.76
  -9   5   8    3.61    0.76
   9   5  -8    4.71    0.95
  -9   5   8    2.86    0.85
  -9   5   8    3.72    0.79
   8  -5  -8    3.65    0.74
  -8  -5   8    2.94    0.54
   8  -5  -8    2.90    0.70
  -8  -5   8    3.54    0.60
  -8  -5   8    3.07    0.53
  -8   5   8    3.41    0.61
   8   5  -8    4.85    0.85
  -8   5   8    2.68    0.77
   8   5  -8    3.18    0.70
   8   5  -8    3.28    0.51
  -7  -5   8    0.61    0.40
   7  -5  -8    0.02    0.54
   7  -5  -8   -0.22    0.55
  -7  -5   8    0.39    0.51
  -7  -5   8    0.51    0.43
   7   5  -8    1.01    0.65
   7   5  -8    0.54    0.55
  -7   5   8    1.19    0.47
   7   5  -8    0.82    0.44
  -7   5   8    0.69    0.59
   6  -5  -8    2.59    0.59
  -6  -5   8    2.31    0.53
  -6  -5   8    2.61    0.39
   6  -5  -8    3.36    0.67
  -6  -5   8    2.20    0.43
   6  -5  -8    2.47    0.50
   6   5  -8    1.90    0.59
   6   5  -8    2.18    0.61
  -6   5   8    1.59    0.62
  -6   5   8    1.30    0.44
   6   5  -8    2.71    0.43
  -5  -5   8    0.74    0.39
  -5  -5   8    0.90    0.41
  -5  -5   8    0.56    0.31
   5  -5  -8    0.49    0.42
   5  -5  -8    1.19    0.57
  -5   5   8    0.46    0.51
   5   5  -8    0.40    0.37
  -5   5   8    0.39    0.36
   5   5  -8    0.89    0.46
   5   5  -8    1.03    0.49
  -4  -5   8   -0.17    0.36
   4  -5  -8    0.77    0.38
   4  -5  -8    0.58    0.48
  -4   5   8    0.66    0.31
   4   5  -8    0.65    0.44
   4   5  -8    0.12    0.41
   4   5  -8    0.84    0.34
  -4   5   8    0.38    0.48
   3  -5  -8    7.46    0.61
  -3  -5   8    7.69    0.74
   3  -5  -8    8.08    0.90
  -3  -5   8    7.68    0.65
  -3   5   8    7.37    0.85
   3   5  -8    7.36    0.85
   3   5  -8    7.78    0.68
  -3   5   8    8.46    0.54
   3   5  -8    8.45    0.67
   2  -5  -8    6.47    0.65
  -2  -5   8    5.83    0.58
  -2  -5   8    6.03    0.65
   2  -5  -8    7.32    0.67
   2  -5  -8    6.16    0.52
  -2   5   8    6.36    0.46
   2   5  -8    6.63    0.58
  -2   5   8    6.35    0.74
   2   5  -8    5.95    0.53
  -1  -5   8   11.29    0.80
   1  -5  -8   12.32    0.89
  -1  -5   8   10.92    0.76
   1  -5  -8   12.02    0.86
   1  -5  -8   10.45    0.54
  -1   5   8   11.20    0.78
  -1   5   8   11.03    0.48
   1   5  -8   10.78    0.74
   0  -5  -8    3.81    0.37
   0  -5   8    5.53    0.58
   0  -5  -8    5.52    0.54
   0  -5  -8    5.47    0.64
   0  -5   8    5.08    0.55
   0   5  -8    4.51    0.49
   0   5   8    4.63    0.31
   1  -5   8    0.61    0.47
   1  -5   8   -0.54    0.42
  -1  -5  -8    0.16    0.51
  -1  -5  -8    0.55    0.43
  -1  -5  -8    0.43    0.34
  -1   5  -8   -0.25    0.35
  -2  -5  -8    0.34    0.28
  -2  -5  -8    0.22    0.49
   2  -5   8   -0.14    0.44
  -2  -5  -8   -0.37    0.50
   2  -5   8   -0.36    0.52
  -2   5  -8    0.04    0.43
  -3  -5  -8    4.08    0.66
  -3  -5  -8    4.50    0.71
   3  -5   8    4.72    0.74
   3  -5   8    4.88    0.62
  -3   5  -8    3.57    0.52
   4  -5   8    3.96    0.68
   4  -5   8    4.63    0.86
  -4  -5  -8    4.80    0.77
  -4  -5  -8    5.73    0.79
  -4   5  -8    5.08    0.62
  -7  -6   8    0.45    0.62
  -7  -6   8    1.46    0.60
   7  -6  -8    1.90    0.70
  -7  -6   8    2.11    0.55
   7  -6  -8    1.23    0.74
  -7   6   8    1.17    0.63
  -7   6   8    0.45    0.74
   7   6  -8    0.52    0.68
   7   6  -8    1.02    0.78
   7   6  -8    1.07    0.54
  -6  -6   8    0.11    0.47
   6  -6  -8   -0.09    0.57
   6  -6  -8    0.56    0.66
  -6  -6   8   -0.54    0.49
  -6  -6   8    0.42    0.55
  -6   6   8   -0.60    0.51
   6   6  -8    0.93    0.49
  -6   6   8    0.42    0.66
   6   6  -8    0.32    0.62
   6   6  -8   -1.11    0.56
  -5  -6   8   16.33    1.08
   5  -6  -8   16.82    1.02
  -5   6   8   16.30    0.93
   5   6  -8   14.43    1.09
   5   6  -8   16.75    0.95
  -5   6   8   16.41    1.31
   5   6  -8   17.29    1.25
   4  -6  -8   -0.85    0.42
  -4  -6   8   -0.40    0.46
   4   6  -8    0.20    0.48
  -4   6   8   -0.17    0.39
   4   6  -8    0.72    0.57
   4   6  -8   -0.34    0.39
  -4   6   8    0.00    0.54
   3  -6  -8    0.27    0.52
  -3  -6   8    1.04    0.47
  -3  -6   8    1.67    0.51
   3  -6  -8    0.39    0.41
   3   6  -8    0.40    0.51
  -3   6   8    0.86    0.37
  -3   6   8    0.62    0.51
   3   6  -8    0.43    0.41
   3   6  -8    0.23    0.43
   2  -6  -8    0.36    0.48
  -2  -6   8    0.10    0.48
   2  -6  -8    0.19    0.38
  -2  -6   8    0.73    0.46
  -2   6   8    0.53    0.43
   2   6  -8    0.67    0.41
  -2   6   8    0.33    0.31
   1  -6  -8    0.06    0.31
  -1  -6   8    0.60    0.49
   1  -6  -8    1.17    0.54
  -1  -6   8    0.82    0.51
  -1   6   8    1.09    0.29
   1   6  -8    0.27    0.40
  -1   6   8    0.56    0.43
   0  -6  -8    2.71    0.61
   0  -6   8    1.75    0.58
   0  -6   8    2.05    0.57
   0  -6  -8    2.57    0.34
   0   6  -8    1.80    0.46
   0   6   8    1.94    0.29
  -1  -6  -8    2.37    0.31
   1  -6   8    3.00    0.63
  -1  -6  -8    3.11    0.71
   1  -6   8    2.85    0.61
  -1  -6  -8    2.57    0.33
  -1   6  -8    2.20    0.52
   1   6   8    2.70    0.29
  -2  -6  -8    8.04    0.90
   2  -6   8    7.19    0.78
  -2  -6  -8    8.30    0.48
  -2  -6  -8    7.99    0.82
   2  -6   8    8.24    0.87
   2   6   8    8.05    0.45
  -2   6  -8    7.65    0.71
   3  -6   8   -0.57    0.60
   3  -6   8   -0.30    0.77
  -3  -6  -8   -0.31    0.70
  -3  -6  -8    0.36    0.76
  -3   6  -8    0.24    0.58
   5  -7  -8    1.61    0.71
  -5  -7   8    0.16    0.63
   5  -7  -8   -0.74    0.62
   5   7  -8    0.69    0.58
   5   7  -8   -0.09    0.65
   5   7  -8   -0.55    0.72
  -5   7   8    0.24    0.82
  -5   7   8    1.08    0.57
   4  -7  -8    0.63    0.59
  -4  -7   8    1.14    0.67
   4  -7  -8    0.09    0.67
  -4   7   8    0.23    0.49
   4   7  -8    0.29    0.73
  -4   7   8    0.43    0.68
   4   7  -8   -0.04    0.58
   4   7  -8   -0.60    0.62
   3  -7  -8    3.34    0.65
  -3  -7   8    2.10    0.68
  -3  -7   8    1.78    0.68
   3  -7  -8    1.24    0.57
  -3   7   8    2.03    0.66
   3   7  -8    1.44    0.57
   3   7  -8    1.93    0.69
  -3   7   8    1.79    0.50
  -2  -7   8    1.55    0.61
   2  -7  -8   -0.36    0.66
  -2  -7   8    1.92    0.67
   2  -7  -8    1.86    0.52
  -2   7   8    2.09    0.45
   2   7  -8    0.59    0.54
  -2   7   8    1.16    0.58
  -1  -7   8    0.24    0.69
   1  -7  -8    1.76    0.49
   1  -7  -8   -0.33    0.70
  -1  -7   8    1.47    0.68
   1   7  -8    2.27    0.60
  -1   7   8    1.35    0.41
  -1   7   8    1.29    0.52
   0  -7   8    0.78    0.66
   0  -7  -8    1.01    0.74
   0  -7  -8    0.33    0.45
   0  -7   8   -0.11    0.68
   0   7   8    0.57    0.37
   0   7  -8   -0.51    0.58
 -11   0   9    3.02    0.65
 -11   0   9    3.30    0.72
  11   0  -9    2.14    0.81
 -11   0   9    2.45    0.77
  11   0  -9    2.18    0.80
  11   0  -9    2.83    0.69
 -10   0   9   -0.32    0.57
  10   0  -9    1.70    0.61
  10   0  -9   -0.29    0.53
  10   0  -9   -0.65    0.55
 -10   0   9    0.24    0.48
 -10   0   9    0.38    0.53
  -9   0   9    1.01    0.46
  -9   0   9    0.82    0.44
   9   0  -9    0.85    0.49
  -9   0   9    0.70    0.40
   8   0  -9    5.55    0.62
  -8   0   9    6.66    0.61
  -8   0   9    6.70    0.63
  -8   0   9    7.10    0.69
  -7   0   9   20.05    1.00
  -7   0   9   18.88    0.86
   7   0  -9   18.77    0.97
  -7   0   9   19.99    0.93
   6   0  -9   31.48    1.24
  -6   0   9   32.17    1.03
  -6   0   9   31.43    1.28
  -6   0   9   33.47    1.10
   5   0  -9   78.03    2.38
  -5   0   9   89.34    2.06
  -5   0   9   87.49    1.98
   4   0  -9   29.43    1.15
  -4   0   9   29.78    0.92
  -4   0   9   30.50    0.87
  -3   0   9   12.37    0.54
   3   0  -9   12.71    0.73
  -3   0   9   12.72    0.50
   2   0  -9   16.71    0.84
  -2   0   9   15.25    0.55
  -2   0   9   16.71    0.52
   1   0  -9   35.69    0.93
   1   0  -9   33.34    1.24
  -1   0   9   36.67    0.81
  -1   0   9   34.02    0.83
   0   0  -9   20.58    0.95
   0   0  -9   20.38    0.74
   0   0  -9   21.06    0.71
  -1   0  -9   35.08    1.29
  -1   0  -9   36.21    0.99
  -1   0  -9   36.64    1.14
  -2   0  -9    5.44    0.54
  -2   0  -9    5.61    0.45
  -2   0  -9    5.25    0.53
  -3   0  -9    0.87    0.26
  -3   0  -9    0.92    0.42
  -4   0  -9    6.57    0.71
  -5   0  -9   17.96    0.60
  -5   0  -9   17.38    1.24
   5   0   9   18.73    0.62
  -5   0  -9   18.07    0.57
   6   0   9    2.67    0.37
  -6   0  -9    2.68    0.36
  -6   0  -9    2.63    0.32
  -6   0  -9    2.39    0.78
  11  -1  -9    2.53    0.71
  11  -1  -9    3.75    0.62
 -11  -1   9    2.90    0.82
  11  -1  -9    5.11    0.78
 -11  -1   9    3.32    0.74
 -11  -1   9    5.84    0.77
  11   1  -9    2.05    0.84
 -11   1   9    3.24    0.69
 -11   1   9    3.51    0.71
  11   1  -9    2.82    0.79
 -11   1   9    3.35    0.82
  10  -1  -9   16.39    1.14
  10  -1  -9   17.29    0.93
 -10  -1   9   17.35    1.31
 -10  -1   9   16.63    1.17
 -10  -1   9   18.19    1.12
  10  -1  -9   16.04    1.26
 -10   1   9   16.22    1.09
  10   1  -9   17.30    1.34
  10   1  -9   15.90    1.31
 -10   1   9   16.28    1.07
 -10   1   9   16.87    1.28
   9  -1  -9   19.35    0.84
  -9  -1   9   21.07    1.12
   9  -1  -9   19.16    1.17
   9  -1  -9   22.13    1.14
  -9  -1   9   20.69    1.09
  -9  -1   9   20.83    1.25
   9   1  -9   22.08    1.28
  -9   1   9   21.94    1.06
  -9   1   9   22.39    1.21
  -9   1   9   22.61    1.07
   9   1  -9   19.42    1.27
  -8  -1   9    1.67    0.45
   8  -1  -9    1.56    0.44
   8  -1  -9    1.24    0.44
  -8  -1   9    1.08    0.48
   8  -1  -9    1.38    0.31
  -8  -1   9    0.58    0.41
  -8   1   9    1.26    0.38
   8   1  -9    1.52    0.46
  -8   1   9    1.55    0.43
  -8   1   9    2.29    0.43
   8   1  -9    2.53    0.59
   7  -1  -9    0.29    0.36
  -7  -1   9   -0.10    0.32
   7  -1  -9    0.42    0.22
   7  -1  -9   -0.41    0.35
  -7  -1   9    0.62    0.34
   7   1  -9    0.92    0.44
  -7   1   9    0.29    0.33
  -7   1   9   -0.03    0.32
   7   1  -9    0.17    0.33
  -7   1   9    0.26    0.36
  -6  -1   9   19.51    0.88
   6  -1  -9   16.75    0.79
   6  -1  -9   18.73    0.96
  -6  -1   9   19.61    0.83
   6   1  -9   18.99    0.93
  -6   1   9   19.17    0.96
  -6   1   9   18.29    0.81
   6   1  -9   18.70    0.78
  -6   1   9   17.24    0.76
  -5  -1   9    0.32    0.29
  -5  -1   9    0.49    0.26
   5  -1  -9    1.01    0.33
   5   1  -9    0.46    0.26
  -5   1   9    0.33    0.24
  -5   1   9    0.33    0.26
  -5   1   9    0.96    0.34
   5   1  -9    0.46    0.25
  -4  -1   9   42.93    1.16
   4  -1  -9   40.37    1.43
  -4  -1   9   42.32    1.18
  -4   1   9   42.07    1.11
   4   1  -9   43.46    1.45
   4   1  -9   42.51    1.15
  -4   1   9   43.04    1.09
  -3  -1   9    5.11    0.44
   3  -1  -9    6.50    0.32
  -3  -1   9    5.67    0.43
   3  -1  -9    5.78    0.59
   3   1  -9    5.44    0.40
  -3   1   9    5.49    0.35
  -3   1   9    5.73    0.36
   3   1  -9    6.92    0.60
  -2  -1   9   17.25    0.60
   2  -1  -9   16.07    0.84
   2  -1  -9   16.20    0.58
  -2  -1   9   16.96    0.60
   2   1  -9   16.58    0.56
  -2   1   9   15.77    0.45
   2   1  -9   18.19    0.86
  -2   1   9   16.43    0.46
   1  -1  -9    8.94    0.66
   1  -1  -9    9.14    0.53
  -1  -1   9    9.59    0.44
  -1  -1   9    9.45    0.45
   1  -1  -9   10.09    0.57
   1   1  -9    9.38    0.40
   1   1  -9    9.94    0.69
   0  -1  -9    0.97    0.30
   0  -1  -9    0.63    0.28
   0  -1   9    0.64    0.20
   0  -1  -9    1.20    0.32
   0   1  -9    0.30    0.29
   0   1  -9    0.85    0.16
   0   1  -9    1.15    0.25
   0   1  -9    0.95    0.18
   1  -1   9    3.59    0.33
   1  -1   9    3.93    0.40
  -1  -1  -9    3.04    0.45
  -1  -1  -9    3.62    0.43
  -1  -1  -9    3.86    0.41
  -1   1  -9    3.82    0.29
  -1   1  -9    4.07    0.40
   2  -1   9    4.58    0.37
  -2  -1  -9    4.29    0.44
  -2  -1  -9    4.16    0.48
   2  -1   9    4.46    0.47
  -2  -1  -9    4.58    0.53
  -2   1  -9    3.68    0.32
  -2   1  -9    4.51    0.47
   3  -1   9    8.03    0.73
  -3  -1  -9    8.87    0.77
  -3  -1  -9    8.25    0.65
  -3  -1  -9    7.60    0.73
   3  -1   9    7.82    0.48
  -3   1  -9    8.53    0.42
  -3   1  -9    8.50    0.78
  -4  -1  -9    3.85    0.52
  -4  -1  -9    4.35    0.66
   4  -1   9    3.93    0.38
   4  -1   9    3.77    0.58
  -4  -1  -9    4.36    0.48
  -4   1  -9    4.13    0.34
  -4   1  -9    4.14    0.59
  -5  -1  -9    2.59    0.72
   5  -1   9    2.76    0.62
  -5  -1  -9    1.75    0.49
   5  -1   9    2.52    0.41
  -5   1  -9    2.55    0.33
  -5   1  -9    1.44    0.62
  -5   1  -9    2.63    0.40
  -6  -1  -9    8.27    0.97
   6  -1   9    7.72    0.88
   6  -1   9    8.47    0.77
  -6   1  -9    8.74    0.96
  -6   1  -9    8.56    0.66
  -6   1  -9    7.72    0.72
  10  -2  -9    1.07    0.60
 -10  -2   9    0.72    0.54
  10  -2  -9   -0.18    0.56
  10  -2  -9    0.03    0.49
 -10  -2   9    0.03    0.54
  10   2  -9    0.13    0.68
 -10   2   9    0.39    0.56
  10   2  -9    0.67    0.68
 -10   2   9   -0.32    0.53
 -10   2   9    0.57    0.57
   9  -2  -9    1.19    0.51
  -9  -2   9    1.64    0.56
   9  -2  -9    1.33    0.46
  -9  -2   9    0.87    0.49
   9  -2  -9    1.32    0.54
   9   2  -9    1.81    0.55
  -9   2   9    0.89    0.55
   9   2  -9    1.14    0.59
  -9   2   9    1.43    0.52
  -9   2   9    0.83    0.49
   8  -2  -9    5.48    0.50
  -8  -2   9    4.84    0.57
   8  -2  -9    5.03    0.60
   8  -2  -9    4.78    0.58
  -8  -2   9    5.04    0.56
   8   2  -9    3.25    0.55
   8   2  -9    4.17    0.68
  -8   2   9    3.26    0.53
  -8   2   9    4.83    0.55
  -8   2   9    4.13    0.54
   8   2  -9    5.10    0.54
   7  -2  -9    8.85    0.75
  -7  -2   9   10.72    0.81
  -7  -2   9    7.88    0.73
   7  -2  -9    9.56    0.62
   7  -2  -9    9.00    0.89
   7   2  -9    8.00    0.67
  -7   2   9    8.03    0.67
   7   2  -9    9.70    0.86
   7   2  -9    9.81    0.91
  -7   2   9    9.13    0.71
  -7   2   9    9.47    0.83
   6  -2  -9   12.82    0.61
  -6  -2   9   13.23    0.75
   6  -2  -9   11.83    0.87
  -6  -2   9   14.20    0.80
   6  -2  -9   12.94    0.74
   6   2  -9   12.95    0.68
  -6   2   9   13.72    0.86
   6   2  -9   13.30    0.91
  -6   2   9   12.17    0.69
   6   2  -9   14.04    0.87
  -6   2   9   12.85    0.69
   5  -2  -9   45.02    1.58
   5  -2  -9   44.58    1.15
  -5  -2   9   46.36    1.32
  -5  -2   9   43.02    1.31
   5  -2  -9   43.99    1.23
   5   2  -9   44.22    1.44
  -5   2   9   43.16    1.20
  -5   2   9   45.69    1.58
  -5   2   9   44.11    1.21
   5   2  -9   46.09    1.27
   5   2  -9   43.23    1.52
  -4  -2   9   11.37    0.63
   4  -2  -9   12.16    0.80
   4  -2  -9   10.71    0.54
  -4  -2   9   10.82    0.61
   4   2  -9   10.81    0.70
  -4   2   9   11.44    0.80
  -4   2   9   12.13    0.52
   4   2  -9   12.35    0.76
   4   2  -9   12.28    0.60
  -4   2   9   11.61    0.52
  -3  -2   9   11.21    0.58
   3  -2  -9   11.13    0.73
  -3  -2   9   10.81    0.58
  -3   2   9   11.59    0.43
   3   2  -9   11.25    0.72
   3   2  -9   10.18    0.63
  -3   2   9   10.83    0.42
   3   2  -9   11.58    0.55
  -2  -2   9    8.66    0.53
  -2  -2   9    8.47    0.53
   2  -2  -9    8.12    0.67
   2  -2  -9    7.85    0.50
   2   2  -9    8.11    0.66
   2   2  -9    7.95    0.46
   2   2  -9    8.24    0.50
   1  -2  -9   16.11    0.84
   1  -2  -9   15.81    0.79
   1  -2  -9   17.62    0.72
  -1  -2   9   16.57    0.55
  -1  -2   9   16.12    0.65
   1   2  -9   16.54    0.61
   1   2  -9   16.47    0.88
   0  -2  -9    6.18    0.61
   0  -2   9    5.90    0.47
   0  -2  -9    6.12    0.57
   0  -2  -9    5.41    0.55
   0  -2   9    5.15    0.46
   0   2  -9    5.79    0.42
  -1  -2  -9   16.89    0.84
  -1  -2  -9   16.20    0.79
   1  -2   9   15.72    0.64
  -1  -2  -9   15.01    0.81
   1  -2   9   14.97    0.73
  -1   2  -9   15.88    0.61
   2  -2   9    1.73    0.30
  -2  -2  -9    1.51    0.40
  -2  -2  -9    1.90    0.38
  -2  -2  -9    2.08    0.43
   2  -2   9    1.35    0.39
  -2   2  -9    1.83    0.40
  -2   2  -9    2.14    0.29
  -3  -2  -9    0.67    0.37
  -3  -2  -9    0.26    0.49
  -3  -2  -9    1.02    0.40
   3  -2   9    0.44    0.41
   3  -2   9    1.15    0.32
  -3   2  -9    1.07    0.29
  -3   2  -9    1.18    0.44
   4  -2   9    3.88    0.45
  -4  -2  -9    4.08    0.55
  -4  -2  -9    3.52    0.67
  -4  -2  -9    3.76    0.51
   4  -2   9    2.49    0.59
  -4   2  -9    3.36    0.39
  -4   2  -9    2.74    0.58
  -5  -2  -9    8.72    0.88
  -5  -2  -9    8.78    0.90
  -5  -2  -9    9.51    0.97
   5  -2   9   10.00    0.91
   5  -2   9    9.28    0.79
  -5   2  -9    9.11    0.67
  -5   2  -9    8.03    0.88
 -10  -3   9    9.68    0.82
  10  -3  -9    8.92    0.84
  10  -3  -9   11.38    1.17
 -10  -3   9    9.56    0.87
  10  -3  -9   10.19    0.94
 -10  -3   9    9.17    0.86
 -10   3   9   13.10    1.27
 -10   3   9    9.56    0.88
 -10   3   9    9.80    0.87
  10   3  -9   11.26    1.13
  10   3  -9    9.17    1.07
   9  -3  -9   10.89    1.14
   9  -3  -9   11.59    1.05
  -9  -3   9   10.33    0.99
  -9  -3   9   10.68    1.05
   9  -3  -9   11.08    0.99
  -9  -3   9    9.98    0.65
  -9   3   9   10.06    1.02
  -9   3   9   11.55    1.08
  -9   3   9    9.94    0.99
   9   3  -9    9.33    0.93
   9   3  -9   10.36    1.02
   9   3  -9   11.85    0.96
  -8  -3   9    0.45    0.45
   8  -3  -9    1.25    0.53
  -8  -3   9    0.19    0.45
   8  -3  -9    0.98    0.46
   8  -3  -9    1.00    0.46
   8   3  -9    0.44    0.40
   8   3  -9   -0.10    0.61
  -8   3   9    0.41    0.46
   8   3  -9   -0.41    0.49
  -8   3   9    0.52    0.43
  -8   3   9    0.87    0.46
   7  -3  -9   -0.13    0.39
  -7  -3   9   -0.12    0.34
   7  -3  -9    0.00    0.44
   7  -3  -9    0.36    0.40
  -7  -3   9    0.32    0.38
   7   3  -9   -0.85    0.42
  -7   3   9    0.07    0.42
  -7   3   9    0.04    0.38
  -7   3   9    0.30    0.39
   7   3  -9   -0.25    0.52
   7   3  -9   -0.10    0.33
  -6  -3   9   12.88    0.80
  -6  -3   9   14.19    0.88
   6  -3  -9   13.99    0.99
   6  -3  -9   14.64    0.80
   6  -3  -9   13.63    0.76
  -6   3   9   12.76    0.99
  -6   3   9   13.00    0.71
   6   3  -9   11.15    0.94
   6   3  -9   14.58    0.97
   6   3  -9   14.10    0.75
  -6   3   9   14.19    0.79
   5  -3  -9    0.23    0.33
   5  -3  -9    0.57    0.31
   5  -3  -9    0.11    0.39
  -5  -3   9    0.34    0.34
  -5  -3   9    0.75    0.34
  -5   3   9    0.07    0.29
   5   3  -9    0.01    0.41
  -5   3   9    0.26    0.36
   5   3  -9    0.30    0.29
  -5   3   9   -0.23    0.26
   5   3  -9   -0.24    0.32
   4  -3  -9   22.99    0.80
   4  -3  -9   25.65    1.16
  -4  -3   9   24.69    0.93
  -4  -3   9   24.55    0.96
  -4   3   9   22.74    0.75
   4   3  -9   24.32    1.08
   4   3  -9   23.61    0.88
  -4   3   9   20.67    1.10
   4   3  -9   24.44    0.94
  -4   3   9   24.24    0.79
  -3  -3   9    3.46    0.41
   3  -3  -9    2.81    0.48
   3  -3  -9    3.51    0.29
  -3  -3   9    2.95    0.40
  -3   3   9    3.11    0.47
  -3   3   9    3.11    0.32
   3   3  -9    3.17    0.37
  -3   3   9    3.34    0.28
   3   3  -9    3.07    0.38
   3   3  -9    4.12    0.40
  -2  -3   9    6.32    0.57
   2  -3  -9    8.49    0.71
  -2  -3   9    6.84    0.37
   2   3  -9    6.83    0.43
   2   3  -9    6.31    0.50
   2   3  -9    7.10    0.64
   1  -3  -9    4.44    0.52
  -1  -3   9    5.28    0.55
   1  -3  -9    5.10    0.53
   1  -3  -9    5.47    0.57
  -1  -3   9    4.16    0.44
   1   3  -9    5.21    0.49
   0  -3  -9    0.07    0.35
   0  -3   9    0.27    0.30
   0  -3  -9   -0.13    0.31
   0  -3   9    0.40    0.31
   0  -3  -9    0.53    0.33
   0   3  -9    0.43    0.26
  -1  -3  -9    2.27    0.42
   1  -3   9    2.41    0.42
  -1  -3  -9    2.67    0.42
   1  -3   9    2.86    0.39
  -1  -3  -9    2.19    0.43
  -1   3  -9    2.60    0.35
   2  -3   9    0.91    0.42
  -2  -3  -9    1.29    0.46
  -2  -3  -9    1.74    0.38
  -2  -3  -9    2.11    0.45
   2  -3   9    1.37    0.35
  -2   3  -9    1.44    0.34
   3  -3   9    4.39    0.50
   3  -3   9    4.16    0.59
  -3  -3  -9    4.78    0.50
  -3  -3  -9    5.01    0.70
  -3  -3  -9    4.58    0.61
  -3   3  -9    4.30    0.44
  -4  -3  -9    1.31    0.61
  -4  -3  -9    2.45    0.45
   4  -3   9    2.69    0.61
   4  -3   9    2.29    0.48
  -4  -3  -9    1.75    0.58
  -4   3  -9    1.75    0.43
   5  -3   9    0.55    0.66
  -5  -3  -9    1.47    0.46
   5  -3   9    0.90    0.53
  -5  -3  -9    0.93    0.73
  -5  -3  -9    1.96    0.66
  -5   3  -9    1.69    0.46
   9  -4  -9    0.50    0.68
  -9  -4   9    0.26    0.41
   9  -4  -9    0.37    0.65
  -9  -4   9    0.87    0.63
   9  -4  -9    0.43    0.67
  -9  -4   9    0.04    0.58
   9   4  -9   -1.41    0.65
  -9   4   9    0.77    0.63
  -9   4   9    0.76    0.64
   9   4  -9    0.02    0.53
   9   4  -9    0.91    0.80
  -9   4   9    0.67    0.61
   8  -4  -9    3.63    0.66
   8  -4  -9    3.20    0.74
   8  -4  -9    2.60    0.62
  -8  -4   9    3.23    0.39
  -8  -4   9    3.63    0.59
  -8  -4   9    3.22    0.55
   8   4  -9    3.12    0.68
  -8   4   9    3.37    0.66
   8   4  -9    3.09    0.54
   8   4  -9    3.13    0.78
  -8   4   9    3.30    0.60
  -8   4   9    3.43    0.57
   7  -4  -9    7.90    0.69
  -7  -4   9    6.22    0.65
   7  -4  -9    6.92    0.81
  -7  -4   9    7.20    0.70
   7  -4  -9    6.90    0.67
  -7   4   9    6.98    0.79
  -7   4   9    7.38    0.66
   7   4  -9    8.86    0.97
   7   4  -9    8.31    0.84
  -7   4   9    9.68    0.78
   7   4  -9    7.15    0.63
   6  -4  -9   11.50    1.10
  -6  -4   9   10.17    0.80
   6  -4  -9    9.86    0.85
   6  -4  -9   10.49    0.84
  -6  -4   9    9.73    0.87
   6   4  -9    8.82    0.95
  -6   4   9   10.61    0.72
  -6   4   9   11.57    1.00
  -6   4   9   10.05    0.79
   6   4  -9   10.78    0.79
   6   4  -9   10.73    1.01
   5  -4  -9   30.85    1.09
   5  -4  -9   30.22    1.46
  -5  -4   9   31.16    1.18
  -5  -4   9   30.44    1.18
  -5   4   9   30.38    1.07
   5   4  -9   31.30    1.39
   5   4  -9   29.15    1.19
  -5   4   9   29.79    1.42
   5   4  -9   30.31    1.12
  -5   4   9   30.71    1.00
  -4  -4   9    8.65    0.74
  -4  -4   9    7.22    0.71
   4  -4  -9    7.00    0.61
   4  -4  -9    7.70    0.88
  -4   4   9    6.02    0.62
   4   4  -9    7.58    0.66
  -4   4   9    8.10    0.60
  -4   4   9    6.84    0.53
   4   4  -9    7.29    0.70
   4   4  -9    7.52    0.83
  -3  -4   9    3.59    0.34
  -3  -4   9    3.12    0.46
   3  -4  -9    3.50    0.35
   3  -4  -9    3.55    0.57
   3   4  -9    3.37    0.43
  -3   4   9    4.24    0.36
  -3   4   9    3.87    0.32
  -3   4   9    3.24    0.52
   3   4  -9    3.46    0.51
   3   4  -9    3.46    0.41
   2  -4  -9    4.69    0.59
   2  -4  -9    4.62    0.36
  -2  -4   9    5.80    0.53
  -2  -4   9    4.26    0.50
   2  -4  -9    4.83    0.58
  -2   4   9    4.27    0.35
   2   4  -9    4.35    0.50
  -2   4   9    4.27    0.30
   2   4  -9    4.48    0.45
  -2   4   9    5.26    0.56
   2   4  -9    4.90    0.41
   1  -4  -9   15.41    0.95
  -1  -4   9   14.63    0.81
  -1  -4   9   15.16    0.76
   1  -4  -9   16.16    0.95
   1   4  -9   13.96    0.74
   0  -4  -9    6.69    0.61
   0  -4  -9    5.85    0.65
   0  -4   9    6.06    0.57
   0  -4  -9    6.73    0.76
   0  -4   9    7.24    0.70
   0   4  -9    5.96    0.60
   1  -4   9   13.03    0.83
  -1  -4  -9   11.46    0.84
   1  -4   9   11.58    0.88
  -1  -4  -9   10.90    0.89
  -1  -4  -9   12.06    0.98
  -1   4  -9   11.56    0.73
  -2  -4  -9    2.94    0.45
   2  -4   9    2.50    0.55
  -2  -4  -9    2.03    0.57
  -2  -4  -9    3.46    0.57
   2  -4   9    2.53    0.48
  -2   4  -9    2.08    0.43
   3  -4   9    0.25    0.53
   3  -4   9    0.43    0.48
  -3  -4  -9    1.36    0.40
  -3  -4  -9   -0.04    0.58
  -3  -4  -9    1.02    0.56
  -3   4  -9    0.42    0.41
  -4  -4  -9    2.63    0.74
   4  -4   9    2.34    0.72
  -4  -4  -9    2.99    0.43
  -4  -4  -9    3.94    0.76
   4  -4   9    2.07    0.57
  -4   4  -9    3.07    0.53
   8  -5  -9    1.34    0.71
   8  -5  -9    1.27    0.70
  -8  -5   9    0.19    0.63
  -8  -5   9    0.19    0.49
  -8  -5   9    0.29    0.66
  -8   5   9    0.89    0.64
  -8   5   9    0.11    0.73
   8   5  -9    1.51    0.70
   8   5  -9    0.65    0.57
  -8   5   9    0.98    0.61
   8   5  -9    1.38    0.82
   7  -5  -9    0.33    0.62
  -7  -5   9    0.37    0.37
   7  -5  -9    0.52    0.61
   7  -5  -9    0.76    0.73
  -7  -5   9    0.83    0.56
  -7  -5   9    0.24    0.57
   7   5  -9    0.71    0.50
  -7   5   9    0.49    0.51
   7   5  -9    0.35    0.63
   7   5  -9    0.48    0.66
  -7   5   9    0.75    0.55
  -7   5   9    0.42    0.64
   6  -5  -9    5.46    0.87
  -6  -5   9    5.33    0.63
  -6  -5   9    4.60    0.60
  -6  -5   9    6.48    0.58
   6  -5  -9    5.90    0.73
   6  -5  -9    4.48    0.64
  -6   5   9    4.69    0.52
  -6   5   9    5.91    0.79
   6   5  -9    4.90    0.72
   6   5  -9    4.55    0.70
   6   5  -9    5.04    0.58
  -5  -5   9   -0.20    0.40
   5  -5  -9   -0.43    0.58
  -5  -5   9    0.60    0.46
   5  -5  -9   -0.02    0.48
  -5  -5   9   -0.12    0.29
  -5  -5   9   -0.43    0.34
   5   5  -9   -0.39    0.39
   5   5  -9    0.05    0.48
  -5   5   9   -0.29    0.56
   5   5  -9   -0.07    0.54
  -5   5   9   -0.55    0.35
   4  -5  -9   13.19    1.20
   4  -5  -9   11.48    0.79
  -4  -5   9   11.08    0.69
  -4  -5   9   12.64    0.90
   4   5  -9   11.78    0.81
   4   5  -9   11.82    0.83
   4   5  -9   11.57    1.09
  -4   5   9   11.30    0.70
  -4   5   9   11.54    1.06
  -3  -5   9    3.20    0.42
   3  -5  -9    3.40    0.60
   3  -5  -9    2.95    0.42
  -3  -5   9    3.11    0.54
   3  -5  -9    3.44    0.56
  -3   5   9    3.37    0.57
   3   5  -9    3.06    0.49
   3   5  -9    4.14    0.63
  -3   5   9    3.35    0.36
   3   5  -9    3.31    0.42
   2  -5  -9    4.18    0.62
   2  -5  -9    4.13    0.63
  -2  -5   9    4.03    0.48
   2  -5  -9    3.77    0.38
  -2  -5   9    4.62    0.62
  -2   5   9    3.94    0.41
   2   5  -9    3.53    0.48
  -2   5   9    3.47    0.53
   1  -5  -9    3.19    0.55
   1  -5  -9    3.00    0.59
  -1  -5   9    3.20    0.54
  -1  -5   9    3.53    0.51
   1   5  -9    3.50    0.48
   0  -5   9   -0.26    0.44
   0  -5   9    0.00    0.46
   0  -5  -9    0.64    0.46
   0  -5  -9    0.02    0.53
   0   5  -9   -0.21    0.41
  -1  -5  -9    1.75    0.55
   1  -5   9    1.80    0.51
  -1  -5  -9    1.97    0.65
   1  -5   9    2.66    0.58
  -1  -5  -9    2.24    0.45
  -1   5  -9    1.85    0.46
  -2  -5  -9    1.03    0.62
   2  -5   9    1.15    0.54
   2  -5   9    0.90    0.62
  -2  -5  -9    1.21    0.64
  -2  -5  -9    1.58    0.38
  -2   5  -9    1.20    0.49
   3  -5   9    3.49    0.68
  -3  -5  -9    3.18    0.73
  -3  -5  -9    3.58    0.77
   3  -5   9    2.86    0.71
  -3   5  -9    3.80    0.61
  -6  -6   9    1.81    0.67
  -6  -6   9    0.21    0.46
  -6  -6   9    3.24    0.68
   6  -6  -9    2.34    0.67
   6   6  -9    1.87    0.75
  -6   6   9    1.72    0.82
  -6   6   9    0.99    0.55
   6   6  -9    2.01    0.58
   6   6  -9    0.48    0.70
   5  -6  -9    5.80    0.72
  -5  -6   9    6.17    0.72
  -5  -6   9    6.29    0.72
  -5   6   9    5.91    0.61
  -5   6   9    7.62    0.89
   5   6  -9    6.46    0.78
   5   6  -9    7.21    0.75
   5   6  -9    6.64    0.82
  -4  -6   9   -0.74    0.56
   4  -6  -9   -0.03    0.49
   4  -6  -9    1.83    0.63
  -4  -6   9    0.62    0.47
   4   6  -9    1.40    0.50
  -4   6   9    0.37    0.64
   4   6  -9    0.23    0.50
   4   6  -9    1.37    0.66
  -4   6   9    1.06    0.42
  -3  -6   9    1.05    0.51
  -3  -6   9    0.75    0.57
   3  -6  -9    0.91    0.45
   3  -6  -9   -0.34    0.59
  -3   6   9    1.41    0.58
   3   6  -9    1.35    0.43
  -3   6   9    0.87    0.37
   3   6  -9    1.10    0.50
   3   6  -9    0.76    0.63
   2  -6  -9    0.57    0.61
   2  -6  -9    1.05    0.41
  -2  -6   9    0.71    0.56
  -2  -6   9    0.45    0.50
   2   6  -9    1.33    0.49
  -2   6   9    0.43    0.32
  -2   6   9    1.02    0.52
   1  -6  -9    2.00    0.70
  -1  -6   9    2.58    0.57
  -1  -6   9    2.94    0.63
   1  -6  -9    3.08    0.38
   1   6  -9    2.83    0.54
  -1   6   9    3.04    0.32
   0  -6   9    0.73    0.56
   0  -6  -9    1.05    0.68
   0  -6   9    0.70    0.61
   0   6  -9    0.62    0.53
   1  -6   9    2.17    0.71
  -1  -6  -9    1.15    0.66
  -1  -6  -9    3.50    0.83
   1  -6   9    1.61    0.67
  -1   6  -9    1.73    0.54
 -10   0  10    3.88    0.68
  10   0 -10    3.77    0.74
 -10   0  10    2.86    0.74
  10   0 -10    2.32    0.74
 -10   0  10    2.99    0.63
   9   0 -10   21.83    1.31
  -9   0  10   22.21    1.15
  -9   0  10   19.92    1.24
  -9   0  10   20.51    1.10
   8   0 -10   17.80    1.09
  -8   0  10   13.72    1.03
  -8   0  10   16.23    0.94
  -8   0  10   18.61    1.01
  -7   0  10    0.41    0.38
  -7   0  10    0.82    0.37
   7   0 -10    0.03    0.39
  -7   0  10    0.57    0.40
   6   0 -10    0.09    0.37
  -6   0  10    0.53    0.30
  -6   0  10    0.46    0.37
   5   0 -10    4.95    0.55
  -5   0  10    4.78    0.42
  -5   0  10    5.22    0.47
  -4   0  10    7.92    0.51
   4   0 -10    7.96    0.67
  -4   0  10    8.78    0.56
  -3   0  10   16.29    0.64
  -3   0  10   16.70    0.59
   3   0 -10   17.34    0.91
  -2   0  10   41.14    1.02
  -2   0  10   42.71    1.00
   2   0 -10   42.37    1.48
   1   0 -10   13.37    0.85
   1   0 -10   13.80    0.65
   1   0 -10   14.80    0.55
   0   0 -10   11.78    0.84
   0   0 -10    9.93    0.59
   0   0 -10   11.37    0.59
  -1   0 -10    1.00    0.28
  -1   0 -10    1.05    0.35
  -1   0 -10    0.98    0.38
  -2   0 -10    1.30    0.30
  -2   0 -10    1.02    0.40
  -2   0 -10    1.09    0.43
  -3   0 -10    1.17    0.48
  -3   0 -10    1.28    0.32
  -3   0 -10    0.35    0.45
  -4   0 -10   10.20    1.08
  -5   0 -10    6.79    0.85
 -10  -1  10    9.84    0.99
  10  -1 -10   11.17    0.78
  10  -1 -10    8.44    0.86
 -10  -1  10   10.28    0.89
  10  -1 -10   10.73    1.22
 -10  -1  10    9.94    0.89
  10   1 -10    9.76    1.08
 -10   1  10   10.24    0.85
  10   1 -10    8.35    0.93
 -10   1  10    9.13    0.80
 -10   1  10    8.81    0.90
   9  -1 -10    1.12    0.33
  -9  -1  10    0.33    0.57
  -9  -1  10   -0.63    0.52
   9  -1 -10    0.11    0.56
   9  -1 -10   -0.33    0.54
  -9  -1  10    0.00    0.49
  -9   1  10    0.05    0.48
   9   1 -10    0.32    0.60
  -9   1  10    0.47    0.54
  -9   1  10    0.13    0.46
   9   1 -10    0.45    0.62
   8  -1 -10   -0.52    0.41
   8  -1 -10   -0.30    0.47
  -8  -1  10   -0.28    0.43
  -8  -1  10    0.25    0.42
  -8   1  10   -0.17    0.40
  -8   1  10    0.04    0.40
   8   1 -10    0.26    0.55
   8   1 -10   -0.07    0.44
  -8   1  10   -0.41    0.43
  -7  -1  10    5.28    0.56
  -7  -1  10    5.97    0.58
   7  -1 -10    5.75    0.63
  -7   1  10    5.11    0.60
   7   1 -10    6.10    0.70
   7   1 -10    5.13    0.57
  -7   1  10    6.16    0.55
  -7   1  10    4.80    0.49
  -6  -1  10   30.58    1.04
   6  -1 -10   30.09    1.28
  -6  -1  10   28.63    1.11
  -6   1  10   30.06    1.03
  -6   1  10   29.99    1.28
   6   1 -10   30.96    1.25
  -6   1  10   27.50    0.99
  -5  -1  10   11.91    0.67
  -5  -1  10   13.01    0.74
   5  -1 -10   12.44    0.84
  -5   1  10   12.80    0.62
  -5   1  10   12.50    0.63
   5   1 -10   12.64    0.79
   5   1 -10   12.08    0.65
  -4  -1  10    7.13    0.52
  -4  -1  10    6.95    0.58
   4  -1 -10    7.31    0.72
   4   1 -10    7.36    0.52
  -4   1  10    6.74    0.45
  -4   1  10    6.44    0.46
   4   1 -10    6.92    0.64
   3  -1 -10    6.81    0.69
  -3  -1  10    6.72    0.48
  -3  -1  10    7.11    0.51
  -3   1  10    6.27    0.36
   3   1 -10    7.55    0.68
  -3   1  10    6.83    0.38
   3   1 -10    6.36    0.44
   2  -1 -10    2.20    0.39
   2  -1 -10    2.25    0.29
  -2  -1  10    2.45    0.29
  -2  -1  10    2.45    0.29
   2   1 -10    1.86    0.39
   2   1 -10    2.67    0.26
  -1  -1  10    0.70    0.23
   1  -1 -10    0.03    0.29
  -1  -1  10    0.63    0.22
   1  -1 -10    0.40    0.33
   1  -1 -10    0.55    0.33
   1   1 -10    0.10    0.36
   1   1 -10    0.89    0.20
   1   1 -10    0.54    0.23
   0  -1 -10    3.62    0.51
   0  -1 -10    3.02    0.40
   0  -1 -10    3.01    0.42
   0  -1  10    3.45    0.28
   0  -1  10    2.99    0.26
   0   1 -10    3.42    0.30
   0   1 -10    4.07    0.53
   0   1 -10    3.14    0.34
  -1  -1 -10   17.75    0.78
  -1  -1 -10   15.42    0.92
   1  -1  10   16.09    0.53
  -1  -1 -10   14.66    0.85
  -1   1 -10   15.71    0.49
  -1   1 -10   15.40    0.98
  -1   1 -10   16.87    0.76
  -2  -1 -10   14.21    0.77
   2  -1  10   14.63    0.54
  -2  -1 -10   14.62    0.93
  -2  -1 -10   16.24    0.95
  -2   1 -10   15.20    0.86
  -2   1 -10   14.80    0.48
  -3  -1 -10    6.86    0.68
   3  -1  10    6.31    0.47
  -3  -1 -10    6.99    0.73
  -3  -1 -10    6.78    0.56
  -3   1 -10    7.58    0.70
  -3   1 -10    6.47    0.38
  -4  -1 -10    2.48    0.47
   4  -1  10    1.86    0.35
  -4  -1 -10    1.91    0.54
  -4  -1 -10    1.13    0.67
   4  -1  10    0.77    0.59
  -4   1 -10    2.41    0.60
  -4   1 -10    2.04    0.31
  -4   1 -10    1.66    0.27
  -5  -1 -10   -0.22    0.58
  -5  -1 -10    0.56    0.76
  -5  -1 -10    0.69    0.53
   5  -1  10   -0.08    0.70
   5  -1  10   -0.23    0.35
  -5   1 -10    0.11    0.69
  -5   1 -10    0.64    0.36
  -5   1 -10    0.86    0.29
  10  -2 -10    1.25    0.64
 -10  -2  10    0.37    0.65
  10  -2 -10    2.52    0.67
  10  -2 -10    1.46    0.52
 -10  -2  10    2.33    0.70
  10   2 -10    0.83    0.79
 -10   2  10    1.17    0.64
 -10   2  10    1.00    0.62
 -10   2  10    0.92    0.71
  10   2 -10    0.65    0.83
  -9  -2  10   12.28    1.08
  -9  -2  10   11.14    1.04
   9  -2 -10   10.76    0.80
   9  -2 -10   11.58    1.06
   9  -2 -10   12.78    1.15
   9   2 -10   11.64    1.04
  -9   2  10   11.47    1.11
  -9   2  10   11.91    1.01
   9   2 -10   11.02    1.21
  -9   2  10   12.25    0.99
  -8  -2  10    6.67    0.65
  -8  -2  10    6.82    0.70
   8  -2 -10    6.91    0.66
   8  -2 -10    7.70    0.64
   8  -2 -10    6.09    0.65
   8   2 -10    6.91    0.63
   8   2 -10    6.78    0.82
  -8   2  10    5.75    0.63
  -8   2  10    5.75    0.61
   8   2 -10    6.78    0.76
  -8   2  10    6.94    0.67
   7  -2 -10    0.00    0.30
  -7  -2  10   -0.06    0.37
   7  -2 -10    0.15    0.41
   7  -2 -10    0.22    0.48
  -7  -2  10    0.07    0.43
   7   2 -10    0.20    0.37
   7   2 -10    0.28    0.54
  -7   2  10   -0.24    0.41
  -7   2  10   -0.28    0.37
  -7   2  10   -0.19    0.35
   7   2 -10   -0.23    0.44
  -6  -2  10   -0.12    0.38
   6  -2 -10    0.10    0.25
  -6  -2  10    0.05    0.38
   6  -2 -10    0.11    0.34
   6  -2 -10   -0.51    0.42
  -6   2  10   -0.26    0.32
  -6   2  10   -0.19    0.30
   6   2 -10   -0.13    0.30
   6   2 -10    0.64    0.37
   6   2 -10    0.22    0.48
  -6   2  10   -0.43    0.38
   5  -2 -10    3.38    0.32
  -5  -2  10    4.10    0.45
  -5  -2  10    3.67    0.44
   5  -2 -10    3.43    0.49
  -5   2  10    4.44    0.39
   5   2 -10    3.50    0.41
  -5   2  10    3.56    0.50
  -5   2  10    3.50    0.37
   5   2 -10    3.14    0.47
   5   2 -10    4.21    0.57
   4  -2 -10    2.23    0.43
  -4  -2  10    3.05    0.41
   4  -2 -10    2.95    0.29
  -4  -2  10    2.98    0.39
   4   2 -10    3.05    0.40
   4   2 -10    3.44    0.38
  -4   2  10    2.85    0.31
   4   2 -10    3.33    0.48
  -4   2  10    3.18    0.31
  -3  -2  10    5.22    0.53
   3  -2 -10    5.79    0.61
   3  -2 -10    4.90    0.45
  -3  -2  10    5.19    0.45
   3   2 -10    5.27    0.50
  -3   2  10    5.40    0.33
   3   2 -10    5.82    0.66
  -3   2  10    5.48    0.32
   3   2 -10    5.81    0.48
  -2  -2  10   19.41    0.78
  -2  -2  10   21.44    0.77
   2  -2 -10   21.08    0.78
   2  -2 -10   21.78    1.04
   2   2 -10   20.83    1.04
   2   2 -10   19.80    0.73
   2   2 -10   20.32    0.73
  -1  -2  10    5.96    0.50
  -1  -2  10    5.34    0.51
   1  -2 -10    5.72    0.59
   1  -2 -10    5.02    0.54
   1  -2 -10    5.66    0.53
   1   2 -10    4.53    0.57
   1   2 -10    5.18    0.44
   0  -2 -10    6.44    0.57
   0  -2  10    5.87    0.52
   0  -2 -10    6.90    0.66
   0  -2  10    6.50    0.51
   0  -2 -10    6.25    0.71
   0   2 -10    6.82    0.68
   0   2 -10    6.26    0.45
  -1  -2 -10    1.23    0.43
  -1  -2 -10    0.47    0.37
   1  -2  10    1.31    0.31
  -1  -2 -10    1.55    0.42
   1  -2  10    1.79    0.37
  -1   2 -10    1.03    0.28
  -2  -2 -10    2.67    0.56
  -2  -2 -10    3.03    0.50
  -2  -2 -10    2.32    0.49
   2  -2  10    2.45    0.47
   2  -2  10    2.94    0.36
  -2   2 -10    2.74    0.32
  -3  -2 -10   -0.04    0.55
  -3  -2 -10    0.49    0.47
  -3  -2 -10    0.72    0.42
   3  -2  10    0.49    0.49
   3  -2  10   -0.04    0.34
  -3   2 -10   -0.01    0.50
  -3   2 -10   -0.29    0.27
  -4  -2 -10    4.83    0.81
  -4  -2 -10    5.12    0.66
   4  -2  10    5.12    0.72
  -4  -2 -10    4.98    0.67
   4  -2  10    4.52    0.52
  -4   2 -10    4.61    0.44
  -4   2 -10    4.87    0.76
   9  -3 -10    0.20    0.55
  -9  -3  10   -0.05    0.55
   9  -3 -10    0.47    0.57
  -9  -3  10    0.18    0.61
   9  -3 -10    0.93    0.66
   9   3 -10   -0.24    0.67
   9   3 -10   -0.13    0.55
  -9   3  10    0.44    0.66
   9   3 -10   -0.71    0.78
  -9   3  10   -0.19    0.58
  -9   3  10   -0.53    0.55
  -8  -3  10    0.91    0.55
  -8  -3  10    0.10    0.49
   8  -3 -10   -0.16    0.47
   8  -3 -10   -0.21    0.45
   8  -3 -10   -0.54    0.63
  -8   3  10   -0.68    0.47
  -8   3  10   -0.73    0.59
  -8   3  10   -0.03    0.47
   8   3 -10   -0.17    0.46
   8   3 -10   -0.63    0.65
   8   3 -10   -1.18    0.52
   7  -3 -10    3.40    0.66
   7  -3 -10    3.36    0.52
   7  -3 -10    3.15    0.50
  -7  -3  10    3.23    0.51
  -7  -3  10    2.60    0.49
   7   3 -10    2.67    0.69
  -7   3  10    2.27    0.48
   7   3 -10    2.34    0.56
  -7   3  10    2.63    0.48
   7   3 -10    2.48    0.46
  -7   3  10    2.52    0.56
   6  -3 -10   14.80    0.78
   6  -3 -10   14.60    0.85
  -6  -3  10   15.41    0.89
  -6  -3  10   15.08    0.94
   6  -3 -10   14.81    1.15
   6   3 -10   15.43    1.06
  -6   3  10   14.04    1.08
  -6   3  10   14.51    0.78
   6   3 -10   13.14    1.05
  -6   3  10   15.72    0.81
   6   3 -10   15.77    0.84
   5  -3 -10    5.43    0.66
  -5  -3  10    5.39    0.54
  -5  -3  10    5.93    0.56
   5  -3 -10    5.74    0.50
   5  -3 -10    5.72    0.48
  -5   3  10    5.35    0.65
   5   3 -10    5.54    0.59
   5   3 -10    4.37    0.53
  -5   3  10    6.25    0.53
  -5   3  10    5.34    0.45
   5   3 -10    6.59    0.64
   4  -3 -10    2.61    0.55
  -4  -3  10    3.14    0.44
   4  -3 -10    4.12    0.38
  -4  -3  10    3.63    0.46
   4   3 -10    3.40    0.46
   4   3 -10    4.07    0.56
  -4   3  10    3.49    0.31
  -4   3  10    3.64    0.60
   4   3 -10    3.85    0.44
  -4   3  10    3.48    0.33
  -3  -3  10    4.09    0.45
  -3  -3  10    3.86    0.45
   3  -3 -10    4.02    0.55
  -3   3  10    3.42    0.32
   3   3 -10    4.04    0.42
   3   3 -10    4.28    0.42
  -3   3  10    3.80    0.32
   3   3 -10    3.66    0.50
  -2  -3  10    1.43    0.37
   2  -3 -10    1.21    0.44
   2  -3 -10    2.14    0.47
   2  -3 -10    1.19    0.35
   2   3 -10    1.47    0.31
   2   3 -10    1.71    0.38
   2   3 -10    1.27    0.25
   1  -3 -10    0.65    0.36
   1  -3 -10    1.12    0.43
   1  -3 -10    0.70    0.38
  -1  -3  10    0.65    0.27
  -1  -3  10    1.03    0.34
   1   3 -10    0.09    0.39
   1   3 -10    0.50    0.29
   0  -3  10    1.60    0.38
   0  -3 -10    2.42    0.45
   0  -3 -10    2.11    0.46
   0  -3  10    1.88    0.39
   0  -3 -10    1.99    0.47
   0   3 -10    1.99    0.34
   1  -3  10    6.24    0.65
  -1  -3 -10    6.72    0.78
  -1  -3 -10    8.33    0.87
   1  -3  10    6.53    0.56
  -1  -3 -10    8.13    0.69
  -1   3 -10    8.08    0.60
  -2  -3 -10    7.93    0.82
   2  -3  10    8.25    0.72
  -2  -3 -10    8.90    0.81
   2  -3  10    7.94    0.70
  -2  -3 -10    7.65    0.72
  -2   3 -10    7.56    0.65
   3  -3  10    4.02    0.69
   3  -3  10    4.68    0.53
  -3  -3 -10    3.65    0.63
  -3  -3 -10    3.89    0.56
  -3  -3 -10    4.37    0.72
  -3   3 -10    4.51    0.48
  -4  -3 -10    1.94    0.68
   4  -3  10    1.60    0.51
  -4  -3 -10    1.99    0.53
   4  -3  10    0.13    0.68
  -4  -3 -10    1.61    0.77
  -4   3 -10    1.82    0.45
  -8  -4  10    5.73    0.75
   8  -4 -10    7.71    0.78
   8  -4 -10    5.77    0.71
   8  -4 -10    6.08    0.93
  -8  -4  10    6.16    0.76
   8   4 -10    5.19    0.65
  -8   4  10    6.59    0.68
   8   4 -10    5.93    0.94
  -8   4  10    6.16    0.73
  -8   4  10    3.91    0.79
   8   4 -10    5.43    0.82
   7  -4 -10    0.02    0.46
   7  -4 -10    0.89    0.67
  -7  -4  10    1.04    0.56
  -7  -4  10    0.43    0.51
   7  -4 -10    1.11    0.56
  -7   4  10    0.56    0.52
  -7   4  10    0.40    0.65
  -7   4  10   -0.13    0.44
   7   4 -10    1.28    0.68
   7   4 -10    0.35    0.47
   7   4 -10    0.64    0.57
   6  -4 -10    0.57    0.47
  -6  -4  10    0.36    0.47
   6  -4 -10   -0.62    0.60
  -6  -4  10    0.73    0.48
   6  -4 -10    0.07    0.44
  -6   4  10    0.22    0.54
   6   4 -10   -0.03    0.53
  -6   4  10    0.88    0.44
   6   4 -10    0.60    0.58
   6   4 -10    1.02    0.44
  -6   4  10    0.33    0.38
  -5  -4  10    0.84    0.47
   5  -4 -10    1.60    0.40
  -5  -4  10    1.24    0.46
   5  -4 -10    1.37    0.61
   5   4 -10    1.65    0.50
  -5   4  10    1.25    0.37
  -5   4  10    1.06    0.55
  -5   4  10    1.40    0.41
   5   4 -10    1.01    0.54
   5   4 -10    1.15    0.43
   4  -4 -10    3.13    0.37
  -4  -4  10    2.85    0.51
   4  -4 -10    3.06    0.65
  -4  -4  10    3.01    0.50
   4   4 -10    2.70    0.53
  -4   4  10    2.91    0.39
  -4   4  10    2.61    0.57
  -4   4  10    3.18    0.35
   4   4 -10    3.53    0.47
   4   4 -10    3.74    0.49
  -3  -4  10    5.30    0.58
   3  -4 -10    5.98    0.44
   3  -4 -10    6.14    0.72
   3   4 -10    6.08    0.59
   3   4 -10    7.29    0.85
  -3   4  10    5.74    0.66
  -3   4  10    5.78    0.40
  -3   4  10    5.77    0.42
   3   4 -10    6.91    0.66
  -2  -4  10   17.48    0.94
   2  -4 -10   16.83    1.06
  -2  -4  10   15.75    0.66
   2  -4 -10   17.59    1.17
   2   4 -10   14.80    0.79
   2   4 -10   17.80    1.03
  -1  -4  10    3.44    0.50
  -1  -4  10    4.26    0.45
   1  -4 -10    6.16    0.69
   1  -4 -10    4.56    0.54
   1  -4 -10    5.23    0.66
   1   4 -10    4.75    0.51
   0  -4  10    3.17    0.53
   0  -4 -10    4.28    0.65
   0  -4 -10    3.13    0.55
   0  -4  10    4.21    0.51
   0  -4 -10    4.17    0.61
   0   4 -10    4.61    0.50
  -1  -4 -10    0.90    0.49
   1  -4  10   -0.01    0.44
  -1  -4 -10    0.97    0.46
   1  -4  10    0.19    0.47
  -1  -4 -10    0.35    0.55
  -1   4 -10    0.16    0.37
   2  -4  10    1.50    0.52
  -2  -4 -10    1.04    0.50
   2  -4  10   -0.16    0.53
  -2  -4 -10    0.84    0.58
  -2  -4 -10   -0.44    0.59
  -2   4 -10    0.54    0.41
  -3  -4 -10    1.06    0.72
   3  -4  10    0.13    0.55
   3  -4  10    1.35    0.67
  -3  -4 -10    0.91    0.71
  -3  -4 -10    1.52    0.52
  -3   4 -10    0.75    0.50
   7  -5 -10    1.42    0.69
   7  -5 -10    1.44    0.86
  -7  -5  10    1.22    0.65
  -7  -5  10    2.14    0.71
   7  -5 -10    2.37    0.67
   7   5 -10    2.75    0.65
  -7   5  10    1.80    0.62
  -7   5  10    0.66    0.78
   7   5 -10    1.79    0.78
  -7   5  10    0.49    0.56
   7   5 -10    0.49    0.73
   6  -5 -10    7.91    0.81
  -6  -5  10    6.64    0.79
   6  -5 -10    7.86    0.98
   6  -5 -10    8.09    0.76
  -6  -5  10    7.84    0.79
   6   5 -10    9.25    0.96
   6   5 -10    7.69    0.82
   6   5 -10    7.31    0.92
  -6   5  10    7.78    0.67
  -6   5  10    7.46    0.71
  -6   5  10    7.12    0.94
  -5  -5  10    3.22    0.62
   5  -5 -10    3.09    0.83
  -5  -5  10    3.08    0.68
   5  -5 -10    3.68    0.54
   5   5 -10    2.98    0.63
  -5   5  10    3.01    0.48
   5   5 -10    4.23    0.75
  -5   5  10    3.40    0.55
  -5   5  10    2.89    0.70
   5   5 -10    3.15    0.54
  -4  -5  10    2.02    0.57
  -4  -5  10    2.71    0.58
   4  -5 -10    3.03    0.47
  -4  -5  10    3.27    0.37
   4  -5 -10    3.09    0.76
  -4   5  10    3.06    0.40
   4   5 -10    2.97    0.53
  -4   5  10    2.40    0.63
   4   5 -10    2.40    0.61
  -4   5  10    3.09    0.46
   4   5 -10    2.96    0.55
   3  -5 -10    2.87    0.70
   3  -5 -10    0.80    0.61
  -3  -5  10    2.36    0.58
   3  -5 -10    1.57    0.33
  -3  -5  10    2.58    0.40
   3   5 -10    2.25    0.60
   3   5 -10    1.84    0.49
  -3   5  10    2.96    0.39
  -3   5  10    1.71    0.30
   3   5 -10    2.02    0.37
  -3   5  10    2.73    0.60
  -2  -5  10    0.98    0.44
   2  -5 -10    0.32    0.57
   2  -5 -10    1.45    0.59
  -2  -5  10    0.47    0.50
   2   5 -10    0.86    0.44
   2   5 -10    0.53    0.58
   1  -5 -10    1.18    0.62
  -1  -5  10    0.17    0.49
   1  -5 -10    0.33    0.58
  -1  -5  10   -0.01    0.51
   1   5 -10    0.48    0.45
   0  -5 -10    2.47    0.60
   0  -5  10    3.01    0.64
   0  -5  10    2.75    0.60
   0  -5 -10    2.82    0.64
   0  -5 -10    3.42    0.70
   0   5 -10    2.63    0.52
   1  -5  10    4.17    0.67
   1  -5  10    4.06    0.72
  -1  -5 -10    4.36    0.63
  -1  -5 -10    4.69    0.82
  -1  -5 -10    2.70    0.65
  -1   5 -10    4.81    0.59
   4  -6 -10    0.74    0.83
  -4  -6  10    1.35    0.69
  -4  -6  10   -0.24    0.48
   4  -6 -10    0.29    0.76
   4  -6 -10   -0.54    0.53
  -4   6  10   -0.05    0.52
   4   6 -10    0.73    0.54
  -4   6  10    0.58    0.68
   4   6 -10   -0.50    0.75
   4   6 -10    0.06    0.54
  -4   6  10    0.27    0.42
   3  -6 -10    2.42    0.79
   3  -6 -10    0.86    0.49
   3  -6 -10    1.61    0.78
  -3  -6  10    1.22    0.67
  -3  -6  10    1.43    0.56
   3   6 -10    0.88    0.75
  -3   6  10    1.27    0.66
  -3   6  10    1.04    0.48
   3   6 -10    0.99    0.58
  -3   6  10    0.40    0.36
   2  -6 -10    4.13    0.81
  -2  -6  10    4.84    0.77
   2  -6 -10    3.79    0.42
  -2  -6  10    3.81    0.66
   2  -6 -10    5.64    0.86
  -2   6  10    4.56    0.43
   2   6 -10    4.53    0.67
  -2   6  10    3.26    0.32
   2   6 -10    4.10    0.70
  -1  -6  10    0.57    0.66
  -1  -6  10    0.05    0.62
   1  -6 -10   -0.20    0.75
   1   6 -10    0.12    0.58
  -9   0  11   21.04    1.35
  -9   0  11   18.86    1.19
   9   0 -11   17.03    1.33
  -9   0  11   19.12    1.24
   8   0 -11    4.12    0.59
  -8   0  11    3.71    0.57
  -8   0  11    4.89    0.59
   7   0 -11    0.00    0.47
  -7   0  11    1.70    0.44
  -7   0  11    0.24    0.40
  -6   0  11    0.32    0.35
  -6   0  11    0.81    0.37
   6   0 -11    0.26    0.42
   5   0 -11    1.50    0.38
  -5   0  11    1.56    0.37
  -5   0  11    1.20    0.34
  -4   0  11    4.42    0.41
  -4   0  11    4.22    0.38
   4   0 -11    4.38    0.52
  -3   0  11   11.53    0.56
  -3   0  11   11.61    0.53
   3   0 -11   10.65    0.84
   2   0 -11   30.53    1.33
  -2   0  11   32.73    0.79
  -2   0  11   31.83    0.81
   1   0 -11    5.36    0.63
   1   0 -11    5.02    0.46
   1   0 -11    3.82    0.32
   0   0 -11    0.32    0.32
   0   0 -11    0.26    0.42
   0   0 -11   -0.10    0.29
  -1   0 -11    5.44    0.53
  -1   0 -11    6.60    0.57
  -1   0 -11    6.68    0.73
  -2   0 -11   10.42    1.03
  -2   0 -11    8.68    0.57
  -2   0 -11    8.66    0.87
  -3   0 -11   18.03    1.27
  -3   0 -11   19.73    1.17
  -9  -1  11    1.98    0.61
  -9  -1  11    2.35    0.64
   9  -1 -11    2.84    0.64
   9   1 -11    1.96    0.75
  -9   1  11    2.39    0.65
  -9   1  11    1.91    0.60
  -9   1  11    2.21    0.56
   9   1 -11    1.88    0.65
  -8  -1  11    4.34    0.63
   8  -1 -11    4.18    0.67
  -8  -1  11    4.15    0.58
  -8   1  11    4.20    0.57
   8   1 -11    3.32    0.59
  -8   1  11    4.35    0.57
   8   1 -11    4.02    0.80
  -8   1  11    2.76    0.54
  -7  -1  11   11.07    0.92
  -7  -1  11   11.27    0.86
   7  -1 -11   13.81    1.01
  -7   1  11   10.86    0.82
   7   1 -11   11.43    0.97
  -7   1  11   12.30    1.02
   7   1 -11   12.61    1.11
  -7   1  11   10.05    0.83
   6  -1 -11   13.52    0.97
  -6  -1  11   13.30    0.80
  -6  -1  11   14.05    0.88
  -6   1  11   11.37    0.77
  -6   1  11   12.97    0.76
   6   1 -11   12.76    0.93
  -5  -1  11    9.95    0.73
   5  -1 -11    8.98    0.88
  -5  -1  11    8.81    0.65
  -5   1  11    9.56    0.61
   5   1 -11   10.13    0.82
  -5   1  11    9.05    0.62
  -4  -1  11    5.29    0.48
  -4  -1  11    6.08    0.56
   4  -1 -11    4.51    0.60
   4   1 -11    6.01    0.54
  -4   1  11    5.31    0.48
   4   1 -11    6.05    0.68
  -4   1  11    5.48    0.46
  -3  -1  11    3.80    0.37
  -3  -1  11    3.40    0.40
   3  -1 -11    3.12    0.53
   3   1 -11    3.22    0.50
  -3   1  11    3.60    0.32
   3   1 -11    3.66    0.36
  -3   1  11    3.42    0.32
   2  -1 -11    6.26    0.68
  -2  -1  11    6.01    0.50
  -2  -1  11    6.27    0.50
   2  -1 -11    6.57    0.47
   2   1 -11    6.72    0.44
   2   1 -11    6.30    0.65
   1  -1 -11    3.91    0.41
   1  -1 -11    4.22    0.48
   1  -1 -11    2.81    0.50
  -1  -1  11    4.04    0.41
  -1  -1  11    3.88    0.32
   1   1 -11    3.41    0.34
   1   1 -11    3.35    0.54
   1   1 -11    3.85    0.34
   0  -1  11    6.29    0.39
   0  -1  11    7.44    0.41
   0  -1 -11    6.92    0.68
   0  -1 -11    7.14    0.69
   0  -1 -11    6.23    0.64
   0   1 -11    6.44    0.35
   0   1 -11    6.21    0.66
  -1  -1 -11    4.21    0.49
  -1  -1 -11    4.04    0.61
  -1  -1 -11    2.95    0.52
  -1   1 -11    4.12    0.61
  -1   1 -11    4.60    0.48
  -2  -1 -11    2.70    0.58
  -2  -1 -11    1.32    0.59
  -2  -1 -11    3.04    0.50
  -2   1 -11    2.77    0.62
  -2   1 -11    2.59    0.51
  -3  -1 -11    0.05    0.45
  -3  -1 -11   -0.04    0.61
  -3  -1 -11   -0.74    0.53
  -3   1 -11    0.41    0.57
   9  -2 -11   11.95    0.94
   9  -2 -11   13.38    1.30
  -9  -2  11   12.63    1.21
   9  -2 -11   11.44    0.72
  -9  -2  11   12.07    1.16
   9   2 -11   11.22    1.10
  -9   2  11   12.46    1.27
  -9   2  11   10.69    1.07
   9   2 -11   10.11    0.97
  -9   2  11   13.52    1.10
  -8  -2  11    2.04    0.59
   8  -2 -11    2.69    0.59
  -8  -2  11    2.20    0.61
   8  -2 -11    3.45    0.68
  -8   2  11    1.42    0.57
  -8   2  11    2.57    0.55
   8   2 -11    2.60    0.73
   8   2 -11    2.02    0.63
  -8   2  11    2.72    0.56
   7  -2 -11    1.42    0.59
  -7  -2  11    0.65    0.52
   7  -2 -11    0.86    0.47
  -7  -2  11    0.07    0.44
   7   2 -11    1.10    0.54
  -7   2  11    0.63    0.44
   7   2 -11    0.68    0.42
   7   2 -11    0.54    0.62
  -7   2  11    0.17    0.51
  -7   2  11    0.59    0.44
   6  -2 -11    1.07    0.54
  -6  -2  11    0.99    0.41
  -6  -2  11    1.19    0.46
  -6   2  11    1.19    0.40
  -6   2  11    0.97    0.37
   6   2 -11    0.88    0.41
  -6   2  11    0.75    0.50
   6   2 -11    1.11    0.46
   6   2 -11    0.91    0.58
  -5  -2  11    0.04    0.36
   5  -2 -11    0.65    0.49
  -5  -2  11    0.58    0.41
   5   2 -11   -0.35    0.47
   5   2 -11    0.06    0.31
   5   2 -11   -0.29    0.43
  -5   2  11    0.15    0.30
  -5   2  11    0.20    0.30
  -4  -2  11    0.87    0.37
   4  -2 -11    1.15    0.49
   4  -2 -11    1.15    0.26
  -4  -2  11    0.84    0.35
   4   2 -11    0.48    0.39
  -4   2  11    1.02    0.25
   4   2 -11    0.96    0.32
   4   2 -11    0.42    0.45
  -4   2  11    0.59    0.23
  -3  -2  11    6.44    0.52
   3  -2 -11    5.75    0.52
   3  -2 -11    5.32    0.62
  -3  -2  11    6.97    0.55
   3   2 -11    5.76    0.52
   3   2 -11    4.72    0.51
   3   2 -11    5.71    0.53
   2  -2 -11   24.06    1.07
  -2  -2  11   23.29    0.88
  -2  -2  11   23.46    0.88
   2  -2 -11   24.65    0.91
   2  -2 -11   25.07    1.20
   2   2 -11   24.93    0.83
   2   2 -11   24.38    0.80
   2   2 -11   26.55    1.24
   1  -2 -11    5.28    0.56
  -1  -2  11    4.82    0.44
  -1  -2  11    5.17    0.45
   1  -2 -11    5.14    0.60
   1  -2 -11    5.32    0.51
   1   2 -11    4.82    0.46
   1   2 -11    5.46    0.65
   0  -2  11    2.00    0.34
   0  -2 -11    1.57    0.46
   0  -2 -11    0.83    0.46
   0  -2 -11    1.44    0.45
   0  -2  11    1.31    0.33
   0   2 -11    0.79    0.52
   0   2 -11    1.52    0.29
   1  -2  11    1.53    0.34
  -1  -2 -11    1.70    0.50
  -1  -2 -11    1.20    0.52
  -1  -2 -11    2.23    0.50
  -1   2 -11    1.47    0.55
  -1   2 -11    2.05    0.30
  -2  -2 -11    3.30    0.68
  -2  -2 -11    3.64    0.59
  -2  -2 -11    3.17    0.59
   2  -2  11    3.59    0.40
   2  -2  11    3.31    0.55
  -2   2 -11    3.70    0.37
   3  -2  11   13.05    1.09
  -3  -2 -11   11.59    1.05
  -3  -2 -11   11.39    1.01
   3  -2  11   12.18    0.75
  -3  -2 -11   11.67    1.10
  -3   2 -11   11.99    0.64
  -8  -3  11    1.31    0.57
   8  -3 -11    2.00    0.62
   8  -3 -11    1.95    0.54
   8  -3 -11    1.76    0.70
  -8  -3  11    2.14    0.68
   8   3 -11    0.78    0.69
  -8   3  11    1.38    0.56
   8   3 -11    2.50    0.60
  -8   3  11    0.90    0.69
  -8   3  11    2.19    0.58
   8   3 -11    0.73    0.78
   7  -3 -11    7.43    0.69
   7  -3 -11    6.08    0.55
   7  -3 -11    6.57    0.87
  -7  -3  11    7.24    0.75
  -7  -3  11    6.58    0.73
  -7   3  11    5.92    0.85
  -7   3  11    6.45    0.60
   7   3 -11    7.06    0.80
  -7   3  11    6.91    0.65
   7   3 -11    5.86    0.86
   7   3 -11    5.68    0.60
  -6  -3  11    8.65    0.85
   6  -3 -11    8.24    0.84
  -6  -3  11    9.07    0.76
   6  -3 -11    8.57    0.71
   6  -3 -11    8.31    0.78
   6   3 -11    7.53    0.82
  -6   3  11    7.05    0.82
  -6   3  11    8.35    0.72
  -6   3  11    7.08    0.70
   6   3 -11    8.48    0.82
   6   3 -11    7.72    0.78
  -5  -3  11    5.41    0.61
  -5  -3  11    5.11    0.62
   5  -3 -11    4.89    0.49
   5  -3 -11    5.71    0.77
   5   3 -11    5.17    0.68
  -5   3  11    5.96    0.47
  -5   3  11    5.52    0.44
   5   3 -11    5.64    0.51
   5   3 -11    6.09    0.66
  -5   3  11    5.26    0.71
  -4  -3  11    2.66    0.46
   4  -3 -11    3.75    0.61
   4  -3 -11    3.37    0.43
  -4  -3  11    3.16    0.50
   4   3 -11    2.97    0.51
   4   3 -11    2.58    0.48
  -4   3  11    3.31    0.32
  -4   3  11    3.41    0.32
   4   3 -11    3.01    0.45
   3  -3 -11    1.04    0.52
  -3  -3  11    0.68    0.41
  -3  -3  11    0.88    0.41
   3  -3 -11    0.98    0.39
   3   3 -11    1.63    0.38
   3   3 -11    1.62    0.35
   3   3 -11    1.39    0.43
   2  -3 -11    2.64    0.54
   2  -3 -11    3.55    0.48
  -2  -3  11    2.35    0.45
   2  -3 -11    3.80    0.65
  -2  -3  11    3.48    0.47
   2   3 -11    3.70    0.58
   2   3 -11    3.42    0.42
   1  -3 -11    2.11    0.52
   1  -3 -11    1.95    0.46
  -1  -3  11    1.98    0.43
   1  -3 -11    2.03    0.55
   1   3 -11    1.41    0.47
   1   3 -11    1.99    0.35
   0  -3 -11    3.56    0.65
   0  -3  11    4.34    0.46
   0  -3  11    4.07    0.50
   0  -3 -11    4.26    0.60
   0  -3 -11    3.93    0.59
   0   3 -11    2.48    0.54
   0   3 -11    3.81    0.43
   1  -3  11    2.79    0.48
  -1  -3 -11    1.89    0.58
  -1  -3 -11    3.20    0.65
  -1  -3 -11    2.87    0.62
   1  -3  11    2.77    0.49
  -1   3 -11    2.48    0.40
  -2  -3 -11    1.91    0.66
  -2  -3 -11    2.06    0.63
   2  -3  11    2.92    0.60
   2  -3  11    2.67    0.50
  -2  -3 -11    2.38    0.61
  -2   3 -11    2.13    0.42
  -7  -4  11   -0.36    0.62
   7  -4 -11   -0.21    0.56
   7  -4 -11    0.11    0.54
  -7  -4  11   -0.40    0.56
   7  -4 -11    0.81    0.82
   7   4 -11   -0.15    0.68
   7   4 -11    0.04    0.77
  -7   4  11    0.20    0.50
  -7   4  11   -0.43    0.71
   7   4 -11   -0.23    0.54
  -7   4  11   -0.31    0.53
   6  -4 -11   -0.23    0.50
   6  -4 -11    0.17    0.48
  -6  -4  11   -0.42    0.52
   6  -4 -11   -0.28    0.67
  -6  -4  11   -0.38    0.57
   6   4 -11    0.17    0.51
  -6   4  11    0.31    0.44
   6   4 -11   -0.63    0.57
  -6   4  11   -0.56    0.65
  -6   4  11    0.22    0.47
   6   4 -11   -0.54    0.64
  -5  -4  11    0.23    0.52
   5  -4 -11    0.97    0.41
   5  -4 -11    1.68    0.70
  -5  -4  11    0.61    0.52
   5   4 -11    1.20    0.60
  -5   4  11    0.60    0.38
  -5   4  11    0.64    0.38
   5   4 -11    0.33    0.53
   5   4 -11    0.24    0.46
  -5   4  11    0.50    0.59
   4  -4 -11    1.54    0.70
  -4  -4  11    2.42    0.57
   4  -4 -11    1.58    0.33
  -4  -4  11    1.49    0.52
  -4   4  11    2.16    0.30
   4   4 -11    1.72    0.46
  -4   4  11    1.61    0.31
   4   4 -11    1.47    0.60
  -4   4  11    1.86    0.62
   4   4 -11    1.93    0.48
  -3  -4  11    5.54    0.60
   3  -4 -11    4.76    0.71
  -3  -4  11    4.53    0.62
   3  -4 -11    4.64    0.75
   3   4 -11    4.39    0.54
   3   4 -11    4.23    0.42
   3   4 -11    3.17    0.60
   2  -4 -11   10.98    0.92
  -2  -4  11   11.20    0.90
   2  -4 -11   11.99    1.18
   2  -4 -11   13.45    1.12
   2   4 -11   12.81    1.06
   2   4 -11    9.83    0.82
   1  -4 -11    1.53    0.62
   1  -4 -11    0.67    0.60
  -1  -4  11    1.07    0.39
  -1  -4  11    1.23    0.52
   1  -4 -11    1.34    0.52
   1   4 -11    0.40    0.54
   1   4 -11    1.07    0.41
   0  -4  11   -0.29    0.47
   0  -4 -11    0.50    0.62
   0  -4 -11    1.07    0.60
   0  -4  11    0.01    0.44
   0  -4 -11    0.04    0.56
   0   4 -11    0.23    0.41
  -1  -4 -11    2.62    0.64
  -1  -4 -11    2.85    0.63
   1  -4  11    2.61    0.56
  -1  -4 -11    2.26    0.75
   1  -4  11    2.86    0.61
  -1   4 -11    2.41    0.51
   5  -5 -11    3.32    0.90
  -5  -5  11    1.62    0.67
  -5  -5  11    1.54    0.65
   5  -5 -11    1.91    0.53
  -5   5  11    0.87    0.77
  -5   5  11    2.13    0.46
   5   5 -11    2.40    0.65
   5   5 -11    2.87    0.61
   5   5 -11    1.16    0.79
  -5   5  11    1.95    0.50
   4  -5 -11    0.67    0.40
   4  -5 -11    1.74    0.74
   4  -5 -11    1.25    0.83
  -4  -5  11    1.30    0.64
  -4  -5  11    0.90    0.66
  -4   5  11    0.38    0.37
   4   5 -11    0.75    0.51
  -4   5  11    0.51    0.68
   4   5 -11    0.94    0.68
   4   5 -11    1.07    0.54
  -4   5  11    0.87    0.35
   3  -5 -11    0.41    0.71
   3  -5 -11    1.00    0.74
  -3  -5  11    0.82    0.62
   3   5 -11    0.69    0.52
   3   5 -11    1.50    0.69
   2  -5 -11    2.06    0.74
   2  -5 -11    1.59    0.70
  -2  -5  11    1.76    0.43
   2  -5 -11    2.27    0.60
  -2  -5  11    2.58    0.67
   2   5 -11    1.85    0.55
   2   5 -11    3.07    0.69
  -1  -5  11    1.15    0.52
   1  -5 -11    0.85    0.62
  -1  -5  11    0.68    0.62
   1  -5 -11    1.76    0.79
   1  -5 -11    1.91    0.73
   1   5 -11    2.03    0.55
   1   5 -11   -0.19    0.63
   8   0 -12    1.32    0.62
  -8   0  12    0.91    0.53
  -8   0  12    0.90    0.58
  -7   0  12    2.71    0.53
  -7   0  12    1.96    0.50
   7   0 -12    3.12    0.61
  -6   0  12   17.66    0.93
   6   0 -12   19.17    1.16
  -6   0  12   17.72    0.90
  -5   0  12    7.69    0.68
  -5   0  12    6.25    0.51
   5   0 -12    6.73    0.71
  -4   0  12   11.39    0.65
   4   0 -12   11.71    0.99
  -4   0  12   10.18    0.62
  -3   0  12    3.80    0.34
   3   0 -12    2.86    0.58
  -3   0  12    3.67    0.33
   2   0 -12   -0.05    0.38
   2   0 -12    0.23    0.46
   1   0 -12   -0.15    0.51
   1   0 -12    0.08    0.36
   0   0 -12    1.36    0.38
   0   0 -12    0.37    0.36
   0   0 -12    0.53    0.57
  -1   0 -12    7.12    0.62
  -1   0 -12    5.89    0.80
  -1   0 -12    5.99    0.61
  -2   0 -12    1.93    0.61
  -2   0 -12    2.07    0.72
  -8  -1  12   13.14    1.10
  -8  -1  12   11.86    1.13
   8  -1 -12   10.59    1.01
  -8   1  12   10.60    1.04
  -8   1  12   13.20    1.28
   8   1 -12   11.98    1.06
  -8   1  12   11.45    1.05
   8   1 -12   12.73    1.19
  -7  -1  12    4.70    0.64
   7  -1 -12    3.56    0.68
  -7  -1  12    3.99    0.58
   7   1 -12    4.84    0.81
   7   1 -12    1.93    0.55
  -7   1  12    3.17    0.57
  -7   1  12    3.00    0.53
   6  -1 -12    6.59    0.77
  -6  -1  12    6.20    0.64
  -6  -1  12    6.67    0.62
   6   1 -12    5.94    0.62
  -6   1  12    6.81    0.56
  -6   1  12    6.44    0.56
  -5  -1  12    1.87    0.42
   5  -1 -12    2.21    0.50
  -5  -1  12    2.47    0.45
  -5   1  12    2.41    0.40
  -5   1  12    2.17    0.38
   5   1 -12    2.13    0.48
   4  -1 -12   -0.24    0.49
  -4  -1  12    1.29    0.42
  -4  -1  12    1.15    0.37
  -4   1  12    1.14    0.29
  -4   1  12    1.46    0.29
   4   1 -12    1.07    0.48
   3  -1 -12    6.05    0.70
  -3  -1  12    6.09    0.58
  -3  -1  12    6.23    0.62
   3   1 -12    5.72    0.76
   2  -1 -12   16.58    1.11
   2  -1 -12   14.83    0.92
  -2  -1  12   15.92    0.67
  -2  -1  12   16.14    0.70
   2  -1 -12   16.08    0.58
   2   1 -12   15.38    0.75
   2   1 -12   16.59    1.17
   1  -1 -12   11.84    0.70
   1  -1 -12   12.06    0.83
   1  -1 -12   10.32    1.00
  -1  -1  12   11.38    0.56
  -1  -1  12   11.32    0.51
   1   1 -12   11.97    1.10
   1   1 -12   12.26    0.59
   0  -1 -12    3.97    0.53
   0  -1 -12    3.78    0.55
   0  -1 -12    3.39    0.63
   0   1 -12    5.47    0.78
  -1  -1 -12    0.26    0.50
  -1  -1 -12    0.65    0.59
  -1  -1 -12    1.15    0.48
  -1   1 -12    1.15    0.64
  -2  -1 -12   -0.06    0.51
  -2  -1 -12    0.45    0.65
  -2  -1 -12   -0.26    0.57
  -2   1 -12    0.51    0.54
  -2   1 -12   -0.29    0.68
   8  -2 -12    1.82    0.76
  -8  -2  12    0.07    0.63
   8   2 -12   -0.78    0.77
   7  -2 -12    1.58    0.72
  -7  -2  12    0.48    0.53
  -7  -2  12   -0.51    0.57
  -7   2  12    1.11    0.71
   7   2 -12   -0.46    0.62
  -7   2  12    1.30    0.49
  -7   2  12    0.98    0.49
   7   2 -12   -0.09    0.49
   7   2 -12    0.71    0.76
  -6  -2  12   10.34    0.99
  -6  -2  12   11.97    0.91
   6  -2 -12   13.41    1.26
  -6   2  12   10.51    0.76
   6   2 -12   11.69    1.04
   6   2 -12   10.64    0.93
  -6   2  12    9.93    0.76
   6   2 -12    9.03    0.86
   5  -2 -12    4.43    0.74
  -5  -2  12    3.92    0.58
  -5  -2  12    2.99    0.52
  -5   2  12    4.24    0.41
   5   2 -12    4.75    0.57
   5   2 -12    4.36    0.71
   5   2 -12    4.66    0.52
  -5   2  12    4.20    0.41
  -4  -2  12    9.72    0.78
  -4  -2  12   10.95    0.82
   4  -2 -12    8.83    0.86
   4   2 -12    8.64    0.97
  -4   2  12    9.91    0.46
   4   2 -12    8.78    0.88
  -4   2  12    9.63    0.47
   4   2 -12    8.81    0.71
  -3  -2  12    5.49    0.52
   3  -2 -12    5.16    0.43
   3  -2 -12    4.50    0.68
  -3  -2  12    4.93    0.51
   3   2 -12    4.70    0.45
   3   2 -12    4.63    0.54
   3   2 -12    5.29    0.67
   2  -2 -12    1.21    0.41
   2  -2 -12    1.68    0.54
  -2  -2  12    1.91    0.42
   2  -2 -12    0.65    0.58
  -2  -2  12    1.45    0.39
   2   2 -12    2.27    0.34
   2   2 -12    2.12    0.57
   1  -2 -12    0.26    0.48
   1  -2 -12    0.79    0.54
   1  -2 -12    0.03    0.46
  -1  -2  12    0.19    0.36
  -1  -2  12    0.04    0.34
   1   2 -12    1.05    0.30
   1   2 -12    0.92    0.61
   0  -2  12    0.39    0.35
   0  -2 -12    0.18    0.53
   0  -2 -12    0.53    0.56
   0  -2  12   -0.39    0.33
   0  -2 -12   -0.53    0.54
   0   2 -12    0.55    0.30
   0   2 -12    0.13    0.61
   1  -2  12    4.86    0.43
  -1  -2 -12    4.30    0.68
  -1  -2 -12    4.64    0.70
  -1  -2 -12    3.46    0.70
   1  -2  12    5.27    0.45
  -1   2 -12    4.05    0.74
  -1   2 -12    4.81    0.48
   7  -3 -12    2.92    0.90
  -7  -3  12    2.31    0.66
  -7  -3  12    3.35    0.72
   7  -3 -12    2.73    0.47
  -7   3  12    2.28    0.55
   7   3 -12    2.05    0.71
   7   3 -12    2.75    0.61
  -7   3  12    3.15    0.79
  -7   3  12    3.39    0.57
   7   3 -12    3.03    0.85
  -6  -3  12    4.07    0.66
   6  -3 -12    5.29    0.50
  -6  -3  12    4.20    0.66
   6  -3 -12    4.75    0.86
   6   3 -12    4.49    0.60
   6   3 -12    4.87    0.74
  -6   3  12    4.22    0.51
   6   3 -12    4.30    0.78
  -6   3  12    4.77    0.85
  -6   3  12    4.22    0.50
  -5  -3  12    1.55    0.54
   5  -3 -12    1.23    0.39
   5  -3 -12    1.65    0.41
  -5  -3  12    1.59    0.56
   5  -3 -12    1.60    0.68
   5   3 -12    1.31    0.58
   5   3 -12    1.20    0.60
  -5   3  12    1.78    0.36
   5   3 -12    1.22    0.47
  -5   3  12    1.38    0.37
   4  -3 -12    0.64    0.40
  -4  -3  12    0.66    0.51
  -4  -3  12    0.70    0.48
   4  -3 -12    1.32    0.63
   4   3 -12    0.47    0.48
   4   3 -12    0.53    0.42
   4   3 -12    0.63    0.55
   3  -3 -12    4.20    0.49
  -3  -3  12    3.83    0.59
   3  -3 -12    4.06    0.68
  -3  -3  12    4.34    0.58
   3  -3 -12    4.06    0.71
   3   3 -12    3.64    0.42
   3   3 -12    3.19    0.48
   3   3 -12    5.01    0.64
  -2  -3  12    8.49    0.84
   2  -3 -12   11.02    1.08
   2  -3 -12    9.13    0.91
  -2  -3  12    8.93    0.84
   2  -3 -12    9.11    0.88
   2   3 -12    8.38    0.82
   2   3 -12   11.17    0.76
   1  -3 -12    7.49    0.80
  -1  -3  12    8.40    0.83
   1  -3 -12    7.88    0.74
   1  -3 -12    6.79    0.81
  -1  -3  12    7.12    0.64
   1   3 -12    8.19    0.71
   1   3 -12    7.06    0.77
   0  -3  12    2.09    0.51
   0  -3 -12    3.15    0.70
   0  -3 -12    3.16    0.68
   0  -3 -12    3.22    0.66
   0   3 -12    2.91    0.69
   0   3 -12    3.64    0.47
   4  -4 -12    4.01    0.60
  -4  -4  12    3.76    0.65
   4  -4 -12    4.92    0.93
  -4  -4  12    4.21    0.71
   4   4 -12    5.28    0.56
   4   4 -12    4.72    0.64
   4   4 -12    3.31    0.65
   3  -4 -12    1.64    0.73
   3  -4 -12    1.84    0.81
  -3  -4  12    0.98    0.58
   3  -4 -12    0.62    0.56
  -3  -4  12    1.36    0.60
   3   4 -12    1.22    0.63
   3   4 -12    1.31    0.51
   2  -4 -12   -0.06    0.71
   2  -4 -12    0.42    0.73
  -2  -4  12    1.25    0.57
  -2  -4  12    0.51    0.56
   2  -4 -12    0.79    0.58
   2   4 -12    0.72    0.67
   2   4 -12    0.17    0.49
  -6   0  13    1.71    0.52
   6   0 -13    2.36    0.69
  -6   0  13    2.44    0.50
   5   0 -13    0.55    0.58
  -5   0  13    0.52    0.41
  -5   0  13    0.73    0.41
  -4   0  13    2.61    0.39
  -4   0  13    2.84    0.40
   4   0 -13    1.46    0.67
   3   0 -13    0.40    0.62
   2   0 -13    0.34    0.47
   2   0 -13    0.74    0.61
   1   0 -13    0.75    0.66
   1   0 -13    2.18    0.51
   6  -1 -13    0.94    0.70
  -6  -1  13   -0.11    0.49
  -6  -1  13    1.09    0.55
   6   1 -13    0.60    0.71
  -6   1  13   -0.31    0.43
   6   1 -13   -1.00    0.62
  -6   1  13   -0.56    0.45
  -5  -1  13    4.62    0.61
   5  -1 -13    4.42    0.73
  -5  -1  13    3.92    0.54
  -5   1  13    4.08    0.42
   5   1 -13    5.02    0.76
  -5   1  13    3.78    0.44
   5   1 -13    4.77    0.70
  -4  -1  13    1.99    0.45
   4  -1 -13    0.98    0.68
  -4  -1  13    2.41    0.48
  -4   1  13    1.97    0.30
  -4   1  13    1.98    0.28
   4   1 -13    2.17    0.61
  -3  -1  13    6.50    0.63
  -3  -1  13    6.43    0.52
   3  -1 -13    6.33    0.80
   3  -1 -13    5.64    0.68
   3   1 -13    4.72    0.71
   2  -1 -13    5.97    0.79
   2  -1 -13    4.95    0.64
  -2  -1  13    5.25    0.40
  -2  -1  13    5.01    0.42
   2   1 -13    4.79    0.74
   2   1 -13    5.21    0.57
   2   1 -13    5.12    0.47
   1  -1 -13    1.26    0.38
   1  -1 -13    0.68    0.71
   1  -1 -13    1.21    0.56
   1   1 -13    1.10    0.67
  -5  -2  13    1.05    0.58
   5  -2 -13    1.30    0.72
  -5  -2  13    0.80    0.54
   5   2 -13    0.87    0.67
  -5   2  13    1.23    0.33
   5   2 -13    1.67    0.49
   5   2 -13    0.55    0.63
  -5   2  13    1.47    0.35
  -4  -2  13    3.28    0.55
   4  -2 -13    3.49    0.76
  -4  -2  13    4.21    0.60
   4   2 -13    3.33    0.66
   4   2 -13    3.83    0.52
   4   2 -13    3.43    0.66
   3  -2 -13    0.46    0.64
  -3  -2  13   -0.59    0.45
  -3  -2  13   -0.13    0.45
   3  -2 -13   -0.17    0.61
   3   2 -13   -0.29    0.46
   3   2 -13   -0.18    0.39
   3   2 -13   -0.35    0.63
   2  -2 -13   -0.29    0.68
  -2  -2  13    0.72    0.43
  -2  -2  13    1.02    0.44
   2  -2 -13    0.20    0.63
   2  -2 -13    0.55    0.41
   2   2 -13    0.82    0.67
   2   2 -13   -0.20    0.36
   0   0   0    0.00    0.00
;
_shelx_hkl_checksum              74362
loop_
_space_group_symop_operation_xyz
'x, y, z'
'-x, y+1/2, -z'
'-x, -y, -z'
'x, -y-1/2, z'
loop_
_atom_site_label
_atom_site_type_symbol
_atom_site_fract_x
_atom_site_fract_y
_atom_site_fract_z
_atom_site_U_iso_or_equiv
_atom_site_adp_type
_atom_site_occupancy
_atom_site_site_symmetry_order
_atom_site_calc_flag
_atom_site_refinement_flags_posn
_atom_site_refinement_flags_adp
_atom_site_refinement_flags_occupancy
Zn1 Zn 0.42478(4) 0.2500 0.38844(4) 0.0377(2) Uani 1 2 d S T P
O4 O 0.6199(3) 0.2500 0.5083(3) 0.0433(7) Uani 1 2 d S T P
O5 O 0.7013(3) 0.2500 0.3382(3) 0.0589(10) Uani 1 2 d S T P
O2 O 0.3712(3) 0.2500 0.6146(5) 0.0746(12) Uani 1 2 d S T P
O3 O -0.1632(3) 0.2500 0.9251(3) 0.0717(13) Uani 1 2 d S T P
N1 N 0.0574(4) 0.2500 0.9000(3) 0.0456(9) Uani 1 2 d S T P
H1N H 0.1462 0.2500 0.9429 0.055 Uiso 1 2 calc R U P
C10 C 0.7200(4) 0.2500 0.4555(4) 0.0369(9) Uani 1 2 d S T P
C4 C -0.1305(4) 0.2500 0.5464(4) 0.0319(8) Uani 1 2 d S T P
O1 O 0.2322(4) 0.2500 0.4162(4) 0.0759(12) Uani 1 2 d S T P
C1 C 0.2512(5) 0.2500 0.5359(6) 0.0520(12) Uani 1 2 d S T P
C2 C 0.1221(4) 0.2500 0.5833(4) 0.0373(9) Uani 1 2 d S T P
C7 C 0.1424(4) 0.2500 0.7146(4) 0.0407(9) Uani 1 2 d S T P
H7 H 0.2344 0.2500 0.7709 0.049 Uiso 1 2 calc R U P
C6 C 0.0273(4) 0.2500 0.7638(4) 0.0363(9) Uani 1 2 d S T P
C8 C -0.0334(5) 0.2500 0.9721(4) 0.0471(11) Uani 1 2 d S T P
C5 C -0.1097(4) 0.2500 0.6787(4) 0.0339(8) Uani 1 2 d S T P
H5 H -0.1876 0.2500 0.7108 0.041 Uiso 1 2 calc R U P
C3 C -0.0149(4) 0.2500 0.4976(4) 0.0354(8) Uani 1 2 d S T P
H3 H -0.0287 0.2500 0.4088 0.042 Uiso 1 2 calc R U P
O6 O 0.4097(3) 0.0236(4) 0.2787(3) 0.0629(7) Uani 1 1 d . . .
H6A H 0.4714 -0.0496 0.3156 0.094 Uiso 1 1 calc R U .
O7 O 0.3779(3) 0.2500 0.0300(3) 0.0575(9) Uani 1 2 d S T P
C11 C 0.4823(5) 0.2500 -0.0092(4) 0.0483(11) Uani 1 2 d S T P
H11 H 0.4657 0.2500 -0.0983 0.058 Uiso 1 2 calc R U P
N2 N 0.6153(4) 0.2500 0.0621(4) 0.0581(11) Uani 1 2 d S T P
H2A H 0.6357 0.2500 0.1450 0.070 Uiso 1 2 calc R U P
H2B H 0.6824 0.2500 0.0260 0.070 Uiso 1 2 calc R U P
C9 C 0.0342(6) 0.2500 1.1160(5) 0.0582(13) Uani 1 2 d DS T P
H6B H 0.392(5) 0.054(7) 0.181(4) 0.087 Uiso 1 1 d . U .
H9A H 0.132(3) 0.2500 1.130(7) 0.087 Uiso 1 2 d DS U P
H9B H 0.011(5) 0.143(4) 1.152(4) 0.087 Uiso 1 1 d D U .
loop_
_atom_site_aniso_label
_atom_site_aniso_U_11
_atom_site_aniso_U_22
_atom_site_aniso_U_33
_atom_site_aniso_U_23
_atom_site_aniso_U_13
_atom_site_aniso_U_12
Zn1 0.0216(2) 0.0633(4) 0.0291(3) 0.000 0.00867(17) 0.000
O4 0.0221(13) 0.080(2) 0.0285(13) 0.000 0.0086(10) 0.000
O5 0.0356(16) 0.116(3) 0.0246(14) 0.000 0.0081(12) 0.000
O2 0.0224(16) 0.077(3) 0.130(4) 0.000 0.0309(19) 0.000
O3 0.0330(17) 0.150(4) 0.0335(16) 0.000 0.0118(13) 0.000
N1 0.0275(17) 0.071(3) 0.0318(17) 0.000 -0.0011(13) 0.000
C10 0.0274(18) 0.055(2) 0.0297(19) 0.000 0.0102(15) 0.000
C4 0.0224(17) 0.042(2) 0.0319(18) 0.000 0.0098(14) 0.000
O1 0.058(2) 0.107(3) 0.083(3) 0.000 0.053(2) 0.000
C1 0.039(2) 0.047(3) 0.084(4) 0.000 0.039(2) 0.000
C2 0.0256(18) 0.040(2) 0.051(2) 0.000 0.0187(17) 0.000
C7 0.0205(17) 0.052(2) 0.047(2) 0.000 0.0053(16) 0.000
C6 0.0271(18) 0.048(2) 0.0325(19) 0.000 0.0061(15) 0.000
C8 0.037(2) 0.068(3) 0.034(2) 0.000 0.0077(18) 0.000
C5 0.0209(16) 0.052(2) 0.0319(18) 0.000 0.0123(14) 0.000
C3 0.0313(19) 0.045(2) 0.0345(19) 0.000 0.0166(15) 0.000
O6 0.0527(15) 0.0668(16) 0.0664(15) 0.0023(14) 0.0134(12) 0.0004(13)
O7 0.0413(18) 0.092(3) 0.0390(17) 0.000 0.0108(14) 0.000
C11 0.047(3) 0.067(3) 0.030(2) 0.000 0.0091(18) 0.000
N2 0.042(2) 0.100(3) 0.0330(19) 0.000 0.0124(16) 0.000
C9 0.055(3) 0.080(4) 0.034(2) 0.000 0.005(2) 0.000
loop_
_atom_type_symbol
_atom_type_description
_atom_type_scat_dispersion_real
_atom_type_scat_dispersion_imag
_atom_type_scat_source
C C 0.0033 0.0016 'International Tables Vol C Tables 4.2.6.8 and 6.1.1.4'
H H 0.0000 0.0000 'International Tables Vol C Tables 4.2.6.8 and 6.1.1.4'
N N 0.0061 0.0033 'International Tables Vol C Tables 4.2.6.8 and 6.1.1.4'
O O 0.0106 0.0060 'International Tables Vol C Tables 4.2.6.8 and 6.1.1.4'
Zn Zn 0.2839 1.4301 'International Tables Vol C Tables 4.2.6.8 and 6.1.1.4'
loop_
_geom_angle_atom_site_label_1
_geom_angle_atom_site_label_2
_geom_angle_atom_site_label_3
_geom_angle
_geom_angle_site_symmetry_3
O4 Zn1 O1 132.85(15) .
O4 Zn1 O6 105.99(9) .
O1 Zn1 O6 100.33(11) .
O4 Zn1 O6 105.99(9) 4_565
O1 Zn1 O6 100.33(11) 4_565
O6 Zn1 O6 110.35(17) 4_565
C10 O4 Zn1 115.7(2) .
C8 N1 C6 129.2(4) .
C8 N1 H1N 115.4 .
C6 N1 H1N 115.4 .
O5 C10 O4 124.3(4) .
O5 C10 C4 119.6(3) 1_655
O4 C10 C4 116.1(3) 1_655
C5 C4 C3 120.3(3) .
C5 C4 C10 119.5(3) 1_455
C3 C4 C10 120.1(3) 1_455
C1 O1 Zn1 107.2(3) .
O2 C1 O1 122.2(4) .
O2 C1 C2 119.8(5) .
O1 C1 C2 118.0(5) .
C7 C2 C3 120.4(3) .
C7 C2 C1 118.2(4) .
C3 C2 C1 121.5(4) .
C2 C7 C6 120.7(4) .
C2 C7 H7 119.7 .
C6 C7 H7 119.7 .
C7 C6 C5 119.2(4) .
C7 C6 N1 117.2(3) .
C5 C6 N1 123.6(4) .
O3 C8 N1 123.1(4) .
O3 C8 C9 121.2(4) .
N1 C8 C9 115.7(4) .
C4 C5 C6 120.2(3) .
C4 C5 H5 119.9 .
C6 C5 H5 119.9 .
C4 C3 C2 119.2(4) .
C4 C3 H3 120.4 .
C2 C3 H3 120.4 .
Zn1 O6 H6A 109.5 .
Zn1 O6 H6B 112(3) .
H6A O6 H6B 121.1 .
O7 C11 N2 126.4(4) .
O7 C11 H11 116.8 .
N2 C11 H11 116.8 .
C11 N2 H2A 120.0 .
C11 N2 H2B 120.0 .
H2A N2 H2B 120.0 .
C8 C9 H9A 107(4) .
C8 C9 H9B 110(3) .
H9A C9 H9B 108(4) .
loop_
_geom_bond_atom_site_label_1
_geom_bond_atom_site_label_2
_geom_bond_distance
_geom_bond_site_symmetry_2
Zn1 O4 1.974(3) .
Zn1 O1 2.003(4) .
Zn1 O6 2.019(3) .
Zn1 O6 2.019(3) 4_565
O4 C10 1.276(5) .
O5 C10 1.228(5) .
O2 C1 1.235(7) .
O3 C8 1.227(6) .
N1 C8 1.348(6) .
N1 C6 1.416(5) .
N1 H1N 0.8600 .
C10 C4 1.509(5) 1_655
C4 C5 1.385(5) .
C4 C3 1.388(5) .
C4 C10 1.509(5) 1_455
O1 C1 1.253(7) .
C1 C2 1.503(5) .
C2 C7 1.375(6) .
C2 C3 1.392(6) .
C7 C6 1.386(6) .
C7 H7 0.9300 .
C6 C5 1.390(5) .
C8 C9 1.502(6) .
C5 H5 0.9300 .
C3 H3 0.9300 .
O6 H6A 0.8200 .
O6 H6B 1.04(4) .
O7 C11 1.222(6) .
C11 N2 1.308(6) .
C11 H11 0.9300 .
N2 H2A 0.8600 .
N2 H2B 0.8600 .
C9 H9A 0.93(2) .
C9 H9B 0.930(19) .
loop_
_geom_hbond_atom_site_label_D
_geom_hbond_atom_site_label_H
_geom_hbond_atom_site_label_A
_geom_hbond_distance_DH
_geom_hbond_distance_HA
_geom_hbond_distance_DA
_geom_hbond_angle_DHA
_geom_hbond_site_symmetry_A
N1 H1N O7 0.86 2.19 3.050(5) 173.2 1_556
C5 H5 O3 0.93 2.26 2.866(5) 122.2 .
O6 H6A O2 0.82 2.10 2.919(4) 172.2 3_656
N2 H2A O5 0.86 2.00 2.855(5) 174.9 .
N2 H2B O3 0.86 2.12 2.974(5) 176.2 1_654
O6 H6B O7 1.04(4) 2.15(5) 3.096(4) 150(4) .
