#------------------------------------------------------------------------------
#$Date: 2019-12-02 13:46:09 +0200 (Mon, 02 Dec 2019) $
#$Revision: 244843 $
#$URL: file:///home/coder/svn-repositories/cod/cif/4/51/38/4513834.cif $
#------------------------------------------------------------------------------
#
# This file is available in the Crystallography Open Database (COD),
# http://www.crystallography.net/
#
# All data on this site have been placed in the public domain by the
# contributors.
#
data_4513834
loop_
_publ_author_name
'Sobczak, Szymon'
'Katrusiak, Andrzej'
_publ_section_title
;
 Singularities in Molecular Conformation
;
_journal_coden_ASTM              CGDEFU
_journal_issue                   11
_journal_name_full               'Crystal Growth & Design'
_journal_page_first              5530
_journal_page_last               5534
_journal_paper_doi               10.1021/acs.cgd.5b01156
_journal_volume                  15
_journal_year                    2015
_chemical_formula_moiety         'C6 H12 O'
_chemical_formula_sum            'C6 H12 O'
_chemical_formula_weight         100.16
_chemical_melting_point          220.65
_chemical_name_common            pinacolone
_chemical_name_systematic        3,3-Dimethyl-2-butanone
_space_group_crystal_system      monoclinic
_space_group_IT_number           11
_space_group_name_Hall           '-P 2yb'
_space_group_name_H-M_alt        'P 1 21/m 1'
_symmetry_space_group_name_Hall  '-P 2yb'
_symmetry_space_group_name_H-M   'P 1 21/m 1'
_atom_sites_solution_hydrogens   difmap
_atom_sites_solution_primary     direct
_atom_sites_solution_secondary   difmap
_audit_block_doi                 10.5517/cc13lkcm
_audit_update_record
;
2015-10-05 deposited with the CCDC.
2016-03-01 downloaded from the CCDC.
;
_cell_angle_alpha                90
_cell_angle_beta                 108.21(2)
_cell_angle_gamma                90
_cell_formula_units_Z            2
_cell_length_a                   5.7250(10)
_cell_length_b                   8.6801(17)
_cell_length_c                   6.9895(12)
_cell_measurement_reflns_used    2083
_cell_measurement_temperature    160
_cell_measurement_theta_max      28.6040
_cell_measurement_theta_min      3.7340
_cell_volume                     329.94(11)
_computing_cell_refinement
;
CrysAlisPro, Agilent Technologies,
Version 1.171.37.31 (release 14-01-2014 CrysAlis171 .NET)
(compiled Jan 14 2014,18:38:05)
;
_computing_data_collection
;
CrysAlisPro, Agilent Technologies,
Version 1.171.37.31 (release 14-01-2014 CrysAlis171 .NET)
(compiled Jan 14 2014,18:38:05)
;
_computing_data_reduction
;
CrysAlisPro, Agilent Technologies,
Version 1.171.37.31 (release 14-01-2014 CrysAlis171 .NET)
(compiled Jan 14 2014,18:38:05)
;
_computing_molecular_graphics    'Olex2 (Dolomanov et al., 2009)'
_computing_publication_material  'Olex2 (Dolomanov et al., 2009)'
_computing_structure_refinement  'ShelXL (Sheldrick, 2008)'
_computing_structure_solution    'ShelXS (Sheldrick, 2008)'
_diffrn_ambient_temperature      160
_diffrn_detector                 'CCD plate'
_diffrn_detector_area_resol_mean 16.1544
_diffrn_detector_type            Eos
_diffrn_measured_fraction_theta_full 0.836
_diffrn_measured_fraction_theta_max 0.837
_diffrn_measurement_device       'four-circle diffractometer'
_diffrn_measurement_device_type  'Xcalibur, Eos'
_diffrn_measurement_method       '\w scans'
_diffrn_orient_matrix_UB_11      -0.0808552000
_diffrn_orient_matrix_UB_12      -0.0365087000
_diffrn_orient_matrix_UB_13      -0.0861824000
_diffrn_orient_matrix_UB_21      -0.0398994000
_diffrn_orient_matrix_UB_22      -0.0506747000
_diffrn_orient_matrix_UB_23      0.0630727000
_diffrn_orient_matrix_UB_31      -0.0944055000
_diffrn_orient_matrix_UB_32      0.0526241000
_diffrn_orient_matrix_UB_33      0.0009717000
_diffrn_radiation_monochromator  graphite
_diffrn_radiation_probe          x-ray
_diffrn_radiation_type           MoK\a
_diffrn_radiation_wavelength     0.71073
_diffrn_reflns_av_R_equivalents  0.0601
_diffrn_reflns_av_unetI/netI     0.0343
_diffrn_reflns_Laue_measured_fraction_full 0.836
_diffrn_reflns_Laue_measured_fraction_max 0.837
_diffrn_reflns_limit_h_max       7
_diffrn_reflns_limit_h_min       -7
_diffrn_reflns_limit_k_max       11
_diffrn_reflns_limit_k_min       -11
_diffrn_reflns_limit_l_max       9
_diffrn_reflns_limit_l_min       -9
_diffrn_reflns_number            6290
_diffrn_reflns_point_group_measured_fraction_full 0.836
_diffrn_reflns_point_group_measured_fraction_max 0.837
_diffrn_reflns_theta_full        25.242
_diffrn_reflns_theta_max         25.997
_diffrn_reflns_theta_min         3.068
_diffrn_source                   'Enhance (Mo) X-ray Source'
_exptl_absorpt_coefficient_mu    0.066
_exptl_absorpt_correction_T_max  1.00000
_exptl_absorpt_correction_T_min  0.71399
_exptl_absorpt_correction_type   multi-scan
_exptl_absorpt_process_details
;
CrysAlisPro, Agilent Technologies,
Version 1.171.37.31 (release 14-01-2014 CrysAlis171 .NET)
(compiled Jan 14 2014,18:38:05)
Empirical absorption correction using spherical harmonics,
 implemented in SCALE3 ABSPACK scaling algorithm.
;
_exptl_crystal_colour            'clear whiteish colourless'
_exptl_crystal_colour_lustre     clear
_exptl_crystal_colour_modifier   whiteish
_exptl_crystal_colour_primary    colourless
_exptl_crystal_density_diffrn    1.008
_exptl_crystal_density_method    'not measured'
_exptl_crystal_description       cylinder
_exptl_crystal_F_000             112
_exptl_crystal_preparation
'The low temperature experiment was performed using OxfordCryo system.'
_exptl_crystal_size_max          0.95
_exptl_crystal_size_mid          0.49
_exptl_crystal_size_min          0.49
_refine_diff_density_max         0.141
_refine_diff_density_min         -0.120
_refine_diff_density_rms         0.026
_refine_ls_extinction_coef       .
_refine_ls_extinction_method     none
_refine_ls_goodness_of_fit_ref   1.086
_refine_ls_hydrogen_treatment    refxyz
_refine_ls_matrix_type           full
_refine_ls_number_parameters     67
_refine_ls_number_reflns         582
_refine_ls_number_restraints     3
_refine_ls_restrained_S_all      1.084
_refine_ls_R_factor_all          0.0479
_refine_ls_R_factor_gt           0.0401
_refine_ls_shift/su_max          0.000
_refine_ls_shift/su_mean         0.000
_refine_ls_structure_factor_coef Fsqd
_refine_ls_weighting_details
'w=1/[\s^2^(Fo^2^)+(0.0456P)^2^+0.0375P] where P=(Fo^2^+2Fc^2^)/3'
_refine_ls_weighting_scheme      calc
_refine_ls_wR_factor_gt          0.0918
_refine_ls_wR_factor_ref         0.0963
_reflns_Friedel_coverage         0.000
_reflns_Friedel_fraction_full    .
_reflns_Friedel_fraction_max     .
_reflns_number_gt                495
_reflns_number_total             582
_reflns_threshold_expression     'I > 2\s(I)'
_cod_data_source_file            1030727-1030734.cif
_cod_data_source_block           pin_lt160
_cod_depositor_comments
;
 Updated bibliographic information.

 Antanas Vaitkus,
 2019-12-02
;
_cod_database_code               4513834
_shelxl_version_number           2013-4
_chemical_oxdiff_formula         C6H12O1
_shelx_space_group_comment
;
The symmetry employed for this shelxl refinement is uniquely defined
by the following loop, which should always be used as a source of
symmetry information in preference to the above space-group names.
They are only intended as comments.
;
_reflns_odcompleteness_completeness 95.46
_reflns_odcompleteness_iscentric 1
_reflns_odcompleteness_theta     28.73
_shelx_res_file
;
TITL lt160 in P21/m #11
REM reset to P21/m #11
CELL 0.71073 5.725017 8.68008 6.989471 90 108.2086 90
ZERR 2 0.001023 0.001662 0.001214 0 0.0197 0
LATT 1
SYMM -X,0.5+Y,-Z
SFAC C H O
UNIT 12 24 2
DFIX 0.97 H1c C1
DFIX 0.97 C1 H1a
DFIX 0.97 C1 H1b

L.S. 90
PLAN  5
TEMP -113.15
BOND
MORE -1
CONF
fmap 2
acta
OMIT 0 52
OMIT -2 0 6
OMIT 5 1 2
OMIT 6 2 1
OMIT 6 3 1
OMIT 3 2 4
OMIT -1 1 8
OMIT 4 1 3
OMIT 6 0 1
OMIT -2 10 2
OMIT 0 3 7
OMIT 1 3 6
OMIT 3 4 4
OMIT -1 5 1
OMIT 3 6 4
OMIT -1 9 1
OMIT -1 10 1
OMIT -2 2 2
OMIT -3 6 3
OMIT -3 8 3
OMIT 0 6 0
OMIT -2 4 2
OMIT 0 8 0
OMIT -1 4 1
OMIT 0 4 0
OMIT -1 3 1
OMIT -1 7 1
OMIT -1 2 5
OMIT -1 2 1
OMIT -1 1 1
OMIT 2 3 5
OMIT -4 7 4
OMIT -4 4 4
OMIT -4 2 4
OMIT 0 0 7
OMIT -4 3 4
OMIT -4 5 4
OMIT -3 2 3
OMIT -4 0 4
OMIT -3 0 3
OMIT -5 6 5
OMIT 2 5 5
OMIT -5 2 5
OMIT 2 1 5
OMIT 5 5 2
OMIT -6 0 6
OMIT 0 5 7
OMIT -1 4 2
OMIT -5 0 5
OMIT -2 6 6
OMIT -1 5 5
OMIT -1 3 5
OMIT -3 3 3
OMIT 3 0 4
OMIT 5 3 0
OMIT -1 0 1
OMIT 3 1 4
OMIT -1 6 5
OMIT 1 9 0
OMIT 4 6 3
OMIT 1 2 6
OMIT 1 4 6
OMIT 3 1 3
OMIT -2 3 2
OMIT -1 1 5
OMIT -1 4 6
OMIT 1 4 7
OMIT -1 9 4
OMIT -4 7 1
OMIT -1 2 8
OMIT 6 2 0
OMIT -4 1 4
OMIT 3 3 4
OMIT -5 5 5
OMIT -1 6 4
OMIT 0 10 0
OMIT -3 5 7
OMIT -3 6 2
OMIT -3 7 3
OMIT -4 5 7
OMIT -6 2 5
OMIT -3 6 6
OMIT 5 6 1
OMIT 1 2 1
OMIT -4 5 1
OMIT -3 1 3
OMIT -2 5 2
OMIT 0 2 4
OMIT -2 0 2
OMIT -5 4 1
OMIT 1 8 3
OMIT 0 9 4
OMIT -2 4 1
OMIT -5 1 5
OMIT 3 8 1
OMIT -1 4 5
OMIT 0 7 2
OMIT 0 4 4
OMIT -1 7 5
OMIT 1 5 3
OMIT -2 0 1
OMIT 0 1 4
OMIT -3 8 2
OMIT -5 7 3
OMIT 0 2 7
OMIT 0 10 1
OMIT 4 8 0
OMIT 2 3 0
OMIT 0 3 4
OMIT -2 2 7
OMIT 5 3 2
OMIT -2 2 6
OMIT -1 0 8
REM <olex2.extras>
REM <HklSrc "%.\\lt160.hkl">
REM </olex2.extras>

WGHT    0.045600    0.037500
FVAR      24.56673
C3    1    0.599756    0.250000    0.276925    10.50000    0.02615    0.02937 =
         0.02540    0.00000    0.00732    0.00000
C2    1    0.579259    0.250000    0.489608    10.50000    0.03358    0.03057 =
         0.03204    0.00000    0.01199    0.00000
C1    1    0.810020    0.250000    0.664411    10.50000    0.04391    0.09650 =
         0.02944    0.00000    0.01016    0.00000
H1A   2    0.783353    0.250000    0.792293    10.50000   -1.50000
H1B   2    0.826822    0.144106    0.716004    10.50000   -1.50000
C4    1    0.345127    0.250000    0.121232    10.50000    0.03318    0.05993 =
         0.03655    0.00000    0.00577    0.00000
H4A   2    0.365840    0.250000   -0.014782    10.50000    0.04476
H4B   2    0.252475    0.342290    0.137469    11.00000    0.05327
O1    3    0.382642    0.250000    0.518560    10.50000    0.03809    0.09170 =
         0.04698    0.00000    0.02416    0.00000
C5    1    0.741882    0.393769    0.251829    11.00000    0.04326    0.03242 =
         0.03973    0.00206    0.01686   -0.00261
H5A   2    0.912991    0.394551    0.343667    11.00000    0.04531
H5B   2    0.662523    0.485397    0.274439    11.00000    0.05483
H5C   2    0.745624    0.401843    0.111829    11.00000    0.06348
H1C   2    0.964559    0.250000    0.633370    10.50000    0.06101
HKLF 4

REM  lt160 in P21/m #11
REM R1 =  0.0401 for     495 Fo > 4sig(Fo)  and  0.0479 for all     582 data
REM     67 parameters refined using      3 restraints

END

WGHT      0.0452      0.0381

REM Highest difference peak  0.141,  deepest hole -0.120,  1-sigma level  0.026
Q1    1   0.5958  0.2500  0.3806  10.50000  0.05    0.14
Q2    1   0.1622  0.2500 -0.1832  10.50000  0.05    0.13
Q3    1   0.9331  0.1478  0.6398  11.00000  0.05    0.10
Q4    1   0.2590  0.2500  0.2501  10.50000  0.05    0.10
Q5    1   0.6931  0.1992  0.2743  11.00000  0.05    0.09
;
_shelx_res_checksum              97196
_shelx_hkl_file
;
   0   0   1 290976. 3239.43   7
   0   0   1 290635. 2989.35  12
   0   0  -1 288507. 3009.56  12
   0   0  -2 93650.4 2388.97  12
   0   0   2 88625.2 2626.42   5
   0   0  -2 92080.8 2587.00   7
   0   0   2 91443.2 2400.69  12
   0   0   2 92566.4 2589.99   7
   0   0  -2 95929.8 2689.84   5
   0   0  -3 24435.4 1670.47   7
   0   0  -3 26480.4 1673.37  12
   0   0  -3 24611.9 1450.52   8
   0   0   3 24440.4 1728.97   5
   0   0   3 25246.2 1572.15  12
   0   0  -4 90427.0 3206.23   8
   0   0   4 95899.7 3484.54  12
   0   0   4 91382.1 3865.05   5
   0   0  -4 90054.2 3753.76   7
   0   0  -5 93926.8 3671.21   8
   0   0  -5 95003.2 4364.91   7
   0   0   5 91785.0 4417.39   5
   0   0   5 83329.5 3959.80   9
   0   0   5 93271.7 3928.86  12
   0   0   6 859.778 519.476   5
   0   0   6 933.329 337.031  12
   0   0  -6 1227.11 550.820   7
   0   0  -6 807.495 513.732  10
   0   0  -6 823.011 487.438   8
   0   0   6 659.720 457.533   6
   0   0   6 1079.58 727.395   9
   0   0   7 2396.09 824.455  12
   0   0  -7 5897.80 1117.46   8
   0   0   7 1797.21 1153.04   6
   0   0  -7 3560.12 1308.97  10
   0   0  -7 6763.17 1501.56   7
   0   0   7 3252.04 1080.83   9
   0   0  -8 14815.3 2293.40  11
   0   0   8 13021.1 1978.44   9
   0   0   8 13862.9 1966.29  12
   0   0   8 13682.7 2191.73   6
   0   0  -8 13748.5 2264.20   7
   0   0  -8 12777.7 2044.99  10
   0   0  -9-195.481 448.532  10
   0   0   9 1033.30 696.693   9
   0   1  -1 265461. 2875.31  11
   0  -1   1 232772. 2952.31   2
   0   1   1 273234. 3514.35   4
   0  -1   1 278642. 3266.18   5
   0  -1  -1 256736. 3282.84   7
   0  -1  -1 260622. 3375.37   8
   0   1  -1 286528. 3155.26   7
   0   1   1 256354. 3266.32  12
   0  -1   1 266527. 2877.41  11
   0  -1  -1 282359. 3559.70   4
   0  -1   1 271196. 3137.01   7
   0   1   1 264579. 3474.97   8
   0   1   1 267548. 3317.18   7
   0   1  -1 264556. 3183.78   5
   0   1   1 266191. 3189.13   5
   0   1   1 253884. 2967.58   9
   0  -1  -1 265062. 3063.13   9
   0  -1  -1 255306. 3100.55   5
   0  -1  -1 264151. 3275.96  12
   0   1   2 167711. 3530.52   8
   0  -1  -2 168750. 3608.32   4
   0   1   2 155202. 3488.09   7
   0  -1  -2 161740. 3470.26   5
   0   1  -2 154999. 3338.51   7
   0   1   2 150921. 3073.67   9
   0   1   2 149501. 3118.38  12
   0   1   2 155992. 3512.97   5
   0  -1   2 167458. 3524.10   7
   0  -1  -2 150462. 3285.68   8
   0  -1   2 141181. 2966.13   2
   0   1  -2 150200. 2996.99   2
   0  -1  -2 155754. 3464.37   7
   0   1  -2 162757. 3539.16   5
   0  -1  -2 161643. 3255.61  12
   0  -1   2 153589. 3275.78  12
   0   1  -2 154231. 3109.01  11
   0  -1   2 155397. 3435.93   5
   0  -1   3 33174.7 963.179  14
   0  -1  -3 36710.8 1846.53  12
   0  -1  -3 39104.3 2082.01   4
   0   1   3 36515.3 1878.95   9
   0  -1   3 34519.6 2033.00   5
   0   1  -3 35281.8 1978.21   7
   0   1  -3 37318.7 1948.14  11
   0  -1   3 34433.1 1852.98  12
   0  -1  -3 36561.1 2048.14   7
   0  -1  -3 35915.5 1163.78  14
   0   1   3 37491.2 2112.54   5
   0   1  -3 35238.8 1768.39   2
   0  -1  -3 35835.9 1858.22   8
   0   1   3 34483.7 1832.01  12
   0   1   4 39304.7 2626.08   9
   0   1  -4 3320.27 886.710  11
   0  -1  -4 1401.27 509.097   7
   0  -1   4 24500.6 1894.01  12
   0  -1   4 971.469 462.210   5
   0   1   4 1277.51 511.070   5
   0  -1  -4 1088.66 401.849   8
   0  -1  -4 1026.72 210.352  14
   0   1   4 36884.8 2233.03  12
   0   1  -4 1432.62 546.362   7
   0   1   5 11302.0 1336.49  12
   0  -1  -5 10725.4 1474.72   7
   0   1  -5 11500.4 1513.10   7
   0   1  -5 12146.4 1591.24  10
   0  -1   5 10388.5 1437.59   5
   0   1   5 8625.90 1252.50   9
   0   1  -5 11603.6 1245.62   8
   0  -1  -5 10699.0 1304.61   8
   0  -1   5 11279.2 1380.65  12
   0   1   5 9946.82 1410.87   5
   0   1  -5 11903.1 1492.25  11
   0   1   6 10091.9 1397.20  12
   0  -1   6 7775.31 1401.33   6
   0   1  -6 10685.4 1605.18  10
   0   1  -6 9100.91 1207.41   8
   0  -1  -6 9952.13 1427.82  10
   0  -1  -6 10386.1 1409.95   8
   0   1  -6 9832.71 1561.77   7
   0   1   6 9442.13 1543.26   6
   0   1  -6 9838.72 1451.24  11
   0  -1   6 9876.79 1571.61   5
   0   1   6 9677.28 1397.56   9
   0  -1   6 10251.8 1447.30  12
   0  -1  -6 10843.5 1649.25   7
   0   1  -7 20565.0 2307.21  11
   0   1  -7 19573.3 2467.60   7
   0  -1  -7 17761.5 2363.97   7
   0   1   7 19080.6 2394.05   6
   0  -1  -7 19289.6 2065.32   8
   0   1  -7 19164.7 2299.91  10
   0   1  -7 20153.8 1980.00   8
   0   1   7 16285.7 2012.83   9
   0   1   7 18647.3 2099.77  12
   0  -1   7 17022.1 2281.84   6
   0  -1  -7 17132.4 2063.34  10
   0  -1   7 14907.4 2095.25   9
   0  -1   7 19421.5 2206.54  12
   0   1   8 4511.90 1344.06   6
   0  -1   8 5235.13 1362.62   9
   0  -1   8 4707.82 1294.15   6
   0   1   8 3803.87 1046.14  12
   0   1   8 3489.37 974.105   9
   0   1  -8 4137.37 1243.39  10
   0   1  -8 5550.34 1385.33   7
   0  -1   8 4203.71 1125.47  12
   0  -1  -8 4614.85 1205.79  10
   0  -2  -1 205387. 3709.43   4
   0  -2  -1 198169. 3490.09   1
   0   2  -1 193951. 2758.31   8
   0   2  -1 201462. 3029.42  11
   0   2   1 206177. 3380.20   9
   0   2   1 203707. 3746.06   4
   0  -2  -1 191493. 3574.63  13
   0  -2   1 204148. 3123.64  11
   0   2  -1 199047. 3546.85  10
   0  -2   1 216411. 2828.73   7
   0  -2  -1 202056. 1940.46  10
   0   2   1 206652. 3720.82   8
   0  -2  -1 201315. 3462.69  12
   0  -2   1 206360. 3372.92   3
   0  -2  -1 194679. 2631.68   5
   0  -2  -1 194063. 3611.50   8
   0   2   1 205720. 2878.04   5
   0   2   1 189618. 3498.27  13
   0   2  -1 201784. 2751.16   5
   0   2   1 212098. 3244.67   7
   0  -2   1 200605. 2780.70   5
   0  -2  -1 192531. 3248.00   9
   0   2  -1 214808. 2804.74   7
   0   2   2 84954.2 3008.72  13
   0   2   2 84361.5 2613.00   5
   0   2   2 86304.2 2922.80   4
   0   2  -2 80971.5 2898.50  10
   0  -2   2 85123.7 2501.27   7
   0  -2  -2 84465.6 2640.96  12
   0   2   2 79798.6 2396.85   9
   0  -2  -2 80447.9 2686.27   8
   0  -2   2 82430.0 2527.15   5
   0   2   2 80956.9 2600.85  12
   0  -2  -2 82067.2 2459.23   5
   0  -2   2 72706.3 2352.94   2
   0  -2  -2 92358.7 2892.56   4
   0  -2   2 82366.5 2294.42  11
   0  -2  -2 87174.8 2696.54   7
   0   2  -2 85935.4 2558.05   5
   0  -2  -2 85336.9 2503.82   9
   0   2  -2 85468.1 2450.70   7
   0   2   2 86781.9 2850.52   8
   0   2  -2 82061.3 2251.76  11
   0   2   2 83946.9 2649.74   7
   0   2   3 35830.4 1844.27   9
   0  -2   3 37891.8 2100.54  12
   0   2  -3 39438.3 1948.47  11
   0  -2  -3 34839.4 2013.37   8
   0  -2   3 34226.9 1796.80   2
   0  -2  -3 33074.4 2125.65   7
   0   2  -3 36915.2 2008.34   7
   0   2   3 36468.7 1978.91  12
   0   2  -3 38736.5 2324.45  10
   0   2   3 36468.6 2124.55   5
   0   2  -3 34162.6 1847.12   2
   0  -2   3 36666.9 2063.70   5
   0   2  -4 9034.04 1168.67   7
   0  -2  -4 9321.23 791.780  14
   0  -2  -4 8074.33 1190.41   7
   0   2  -4 11457.9 1230.32  11
   0  -2   4 29704.3 2109.88  12
   0   2   4 7932.74 1166.75   5
   0   2   4 45601.0 2639.62   9
   0   2  -4 11973.6 2794.98  10
   0  -2   4 9148.10 1252.69   5
   0  -2  -4 9029.97 1155.71   8
   0   2   4 51063.7 2658.82  12
   0  -2   5 53490.9 3074.64  12
   0  -2   5 55233.2 3353.08   5
   0   2   5 45873.6 2836.47   9
   0  -2   5 50422.6 1309.58  14
   0  -2  -5 51956.1 3058.70   8
   0  -2  -5 55903.6 3370.06   7
   0   2  -5 56822.2 3042.88  11
   0   2  -5 54820.7 3305.96   7
   0   2  -5 51647.8 3389.85  10
   0   2   5 57286.5 3530.41   5
   0   2   5 51625.7 2947.92  12
   0   2   6 15633.3 1808.07  12
   0   2  -6 16845.8 1846.04  11
   0  -2   6 11547.2 1863.67   6
   0   2   6 14722.9 1677.64   9
   0   2   6 13760.0 1885.35   6
   0   2  -6 17021.9 1603.47   8
   0   2  -6 17353.3 2055.20   7
   0  -2  -6 14580.7 1743.63   8
   0  -2  -6 17071.2 1800.07  10
   0  -2   6 14626.2 1768.16  12
   0   2  -6 17324.3 2099.62  10
   0  -2  -6 16267.4 2021.71   7
   0  -2   7 952.298 488.951  12
   0   2  -7 1957.92 627.468  11
   0  -2  -7 1758.86 659.965   8
   0   2  -7 2759.79 1034.93  10
   0  -2  -7 2101.21 876.462   7
   0   2  -7 1458.74 691.264   7
   0  -2  -7 1716.33 794.907  10
   0   2   7 810.684 466.811  12
   0   2   7 1142.75 710.921   6
   0   2   7-181.097 430.367   9
   0  -2   7 1244.69 807.977   6
   0   2  -8 1879.14 928.134  10
   0   2   8 2499.85 758.439  12
   0  -2   8 3698.64 1170.17   9
   0  -2   8 2838.86 1019.05   6
   0  -2   8 1858.24 797.327  12
   0   2   8 2416.66 836.550   9
   0  -2  -8 3081.30 920.269   8
   0   2  -8 4189.86 1169.67   7
   0   2   8 4254.65 1217.56   6
   0  -3   0 368.976 228.904   9
   0  -3   0 232.068 175.849   8
   0   3   0 260.159 169.847   8
   0   3   0 729.879 330.504   4
   0   3   0 519.804 184.777  10
   0   3   0 389.539 181.899   3
   0  -3   0 798.831 235.182  10
   0   3   0 237.204 236.262   1
   0   3  -1 68886.6 2318.61   3
   0  -3   1 69821.5 2039.08   8
   0   3  -1 70976.6 2404.34  10
   0   3   1 74386.7 2129.45   7
   0  -3  -1 65873.4 2215.64   9
   0   3   1 74612.8 2518.52   9
   0  -3  -1 70502.6 2555.56   8
   0   3  -1 78172.2 1821.57   7
   0  -3   1 77687.3 2313.65  11
   0  -3  -1 69126.0 1373.28  10
   0   3   1 77477.4 2666.65   8
   0   3  -1 73189.4 1635.90   5
   0  -3  -1 77406.0 2693.91   4
   0  -3  -1 68511.4 2451.04  13
   0   3  -1 73077.6 2111.13   8
   0  -3  -1 74271.0 2566.03   1
   0  -3  -1 72064.0 1562.23   5
   0   3   1 74730.3 1630.56   6
   0   3   1 74435.9 2666.17   4
   0  -3   1 74989.8 2456.85   3
   0  -3  -2 42755.7 2208.65   8
   0   3   2 43571.1 2030.37   9
   0  -3  -2 44044.6 1762.27   5
   0   3  -2 41828.2 2200.83  10
   0   3  -2 44220.0 1795.04   7
   0  -3   2 42317.7 1860.39   3
   0   3   2 43834.3 2001.84   7
   0   3   2 44532.7 1945.97   5
   0  -3   2 46405.8 1878.58   7
   0  -3  -2 43212.3 1961.00   9
   0   3  -2 42099.0 1773.20  11
   0   3  -2 45627.2 1871.67   5
   0  -3  -2 45316.6 2139.37  12
   0  -3   2 44728.5 1853.73   5
   0  -3   2 47190.6 1938.90  11
   0  -3   2 41326.4 2064.90   2
   0   3   2 43655.7 2298.29   4
   0   3  -2 40132.8 1519.81   8
   0  -3  -2 44490.3 2116.34   1
   0  -3   3 11808.0 1152.56   5
   0   3  -3 13247.8 1141.87  11
   0  -3   3 9810.86 1190.42  12
   0   3   3 9781.82 1047.52   9
   0   3   3 12223.6 1251.22  12
   0   3  -3 11122.7 1114.26   7
   0  -3   3 10782.1 1083.68  11
   0  -3  -3 9584.30 1144.10   8
   0  -3   3 10707.2 1092.94   2
   0   3  -3 10704.5 1342.98  10
   0   3   3 10788.0 1146.47   5
   0   3   3 10357.5 1257.93   4
   0   3  -4 130.379 187.961  11
   0  -3   4 5038.27 940.213  12
   0  -3   4 2221.05 751.172   2
   0   3   4 6716.75 985.100   9
   0  -3   4 98.0830 203.029   5
   0   3   4-34.8552 162.033   5
   0   3  -4-74.2912 181.790   7
   0  -3  -4-194.682 291.698   8
   0  -3  -4 174.749 254.615   7
   0   3  -4 469.528 531.573  10
   0   3   4 10364.2 1270.44  12
   0   3   5 2798.69 687.675  12
   0  -3  -5 2581.55 781.783   7
   0   3  -5 2589.57 832.395  10
   0   3  -5 3343.81 762.129  11
   0  -3   5 3213.06 788.485  12
   0  -3   5 2555.27 729.651   5
   0   3   5 2105.83 700.495   9
   0  -3  -5 1555.82 488.697   8
   0   3  -5 2239.03 617.701   7
   0   3   5 2970.55 864.974   6
   0  -3   5 1935.76 740.731   6
   0   3  -6 6033.80 1243.27   7
   0   3  -6 6414.00 1138.05  11
   0   3   6 6119.84 1118.95   9
   0   3  -6 5370.84 1293.37  10
   0   3   6 4075.55 1072.21   6
   0  -3   6 4963.83 1070.84   6
   0  -3  -6 5620.85 991.819  10
   0   3  -6 5443.91 854.248   8
   0  -3  -6 5563.46 1108.94   8
   0  -3   6 4908.99 1077.47  12
   0   3   6 5319.46 1068.39  12
   0   3   7 6890.55 1507.14  12
   0   3   7 6295.13 1347.44   9
   0   3  -7 16077.8 2366.01   7
   0   3   7 13005.7 2173.07   6
   0  -3   7 8156.40 1637.70   6
   0  -3  -7 15847.6 2127.37   8
   0  -3   7 4341.88 1265.82  12
   0   3  -7 23267.0 2803.29  10
   0  -3   8 2839.91 1010.75   6
   0   3  -8 2231.88 988.729  10
   0   3  -8 3875.13 1178.22   7
   0  -3  -8 3015.59 928.888   8
   0   3   8 2874.73 1099.02   6
   0  -3   8 3123.11 1170.32  12
   0   4   0 420412. 5306.00  10
   0   4   0 430522. 6605.14   8
   0  -4   0 437879. 6514.68   8
   0  -4  -1 80620.3 3000.13  13
   0  -4  -1 87920.5 1678.79   5
   0  -4  -1 84658.9 3187.65   8
   0  -4  -1 83024.8 1777.15  10
   0  -4  -1 86592.8 3213.22   1
   0   4  -1 90729.1 2799.38   8
   0   4  -1 86127.6 2915.11  10
   0   4   1 80182.1 1533.55   6
   0   4  -1 98190.7 2212.06   7
   0   4   1 96584.9 3194.20   9
   0   4   1 90267.1 2518.84   7
   0   4  -1 85054.5 1715.26   5
   0  -4   1 85636.6 1640.40   6
   0   4   1 96771.6 1953.67  10
   0  -4   1 84376.9 3033.25   3
   0  -4   1 85880.0 2693.38   8
   0   4   1 94240.7 3434.95   4
   0  -4   1 88951.5 2874.26  11
   0  -4   2 83929.8 3090.44   3
   0   4   2 88444.0 3568.06   4
   0   4   2 92208.8 3258.89   9
   0  -4   2 80757.2 2394.36   6
   0   4  -2 84038.1 3361.38  10
   0  -4  -2 86278.1 2438.26   5
   0  -4  -2 81205.9 3352.76   8
   0  -4   2 86105.0 2921.51  11
   0   4  -2 84951.4 2559.19   5
   0   4   2 83643.3 2524.69   6
   0  -4  -2 74344.1 1502.27  10
   0   4  -2 90219.4 2643.84   7
   0   4  -2 79997.0 2506.59   8
   0  -4   2 95402.9 2755.03   7
   0  -4  -2 85270.1 3318.95   1
   0   4   3 14550.8 1646.86   4
   0  -4   3 12443.0 1211.12   5
   0   4   3 11896.6 1292.74   9
   0   4  -3 13426.7 1179.51  11
   0   4  -3 13556.6 1204.67   7
   0  -4  -3 11820.2 1350.22   1
   0   4  -3 11401.2 979.387   8
   0   4  -3 9698.35 1404.59  10
   0  -4   3 12919.7 1406.67   2
   0   4   3 11548.4 1185.38   6
   0  -4   3 12320.0 1173.08   6
   0  -4  -3 12839.6 1483.62   8
   0  -4   3 11758.0 1169.97   3
   0  -4   4 19712.6 2289.23  12
   0  -4  -4 365.003 306.840   8
   0   4  -4 760.941 588.335   7
   0  -4  -4 24.3882 130.357   1
   0   4  -4 208.955 301.716  11
   0  -4   4 1424.46 709.684   6
   0   4   4 4580.08 1696.74   6
   0   4   4 39246.7 2765.71   9
   0   4  -4 54411.9 3385.36  10
   0  -4   4 777.855 761.833   3
   0  -4   4 6649.33 1494.43   2
   0   4  -4 403.466 252.426   8
   0   4  -5 33206.2 2522.77   7
   0  -4   5 30344.4 2371.48   6
   0   4  -5 34653.5 2283.17  11
   0   4   5 28786.8 2546.90   6
   0  -4  -5 33052.4 2715.33   8
   0   4   5 33182.2 2645.55  12
   0  -4   5 33807.9 2741.04  12
   0  -4   5 31370.1 2003.46   3
   0   4  -5 30855.2 2866.79  10
   0   4   5 31555.9 2402.98   9
   0  -4   5 30521.1 2462.42   2
   0   4   6 18837.6 2214.57   6
   0   4   6 17946.8 1970.01   9
   0   4   6 19511.1 2156.82  12
   0  -4   6 17291.4 2078.54   6
   0   4  -6 19692.3 2185.81   7
   0   4  -6 18606.6 2420.76  10
   0   4  -6 20223.4 1936.18  11
   0  -4  -6 20110.4 2295.38   8
   0  -4   6 20619.3 2284.17  12
   0   4   7 1304.40 648.972   6
   0   4   7 647.338 496.212  12
   0   4  -7 195.578 245.241   7
   0   4   7 191.351 257.863   9
   0  -4   7 292.889 485.826  12
   0   4  -7 559.216 261.510  10
   0  -4  -7 1357.42 819.018   8
   0  -4   7 1138.89 517.887   6
   0  -4   8 639.536 436.077  12
   0  -4   8 265.249 333.152   6
   0  -4  -8-107.354 179.551   8
   0   4  -8 115.411 137.013   7
   0  -5   0 66.2725 66.9015   8
   0   5   0 176.173 127.858  10
   0   5  -1 1631.43 412.166  10
   0  -5  -1 2411.66 562.886   8
   0   5  -1 1508.04 201.787   5
   0  -5  -1 2078.58 346.423  10
   0  -5   1 1807.13 202.982   6
   0   5   1 1586.93 200.614   6
   0  -5  -1 1448.97 201.378   5
   0   5  -1 2097.85 624.311   4
   0  -5   1 1963.56 501.131   8
   0   5  -1 2118.24 329.512   7
   0   5   1 1964.33 320.477  10
   0  -5  -1 2001.04 499.981  13
   0   5   1 1843.87 413.191   7
   0   5   1 2022.16 559.424   4
   0   5  -2 7771.08 790.804   7
   0  -5   2 8277.08 765.748   6
   0   5  -2 9268.25 814.834   5
   0  -5  -2 8169.35 1183.74   8
   0  -5  -2 5275.86 416.433  10
   0   5  -2 7799.53 1102.15  10
   0  -5  -2 9982.18 1385.34  13
   0  -5  -2 7866.25 1109.69   1
   0  -5  -2 8231.33 742.210   5
   0   5   2 7852.18 749.720   6
   0   5   2 8649.80 1084.33   9
   0   5   2 9007.13 1280.90   4
   0  -5   2 7226.64 1019.81   3
   0  -5   3 564.279 387.169   2
   0   5   3 796.263 445.293   4
   0  -5   3 763.922 307.322   3
   0  -5   3 386.002 247.766   6
   0  -5  -3 478.462 406.222   8
   0   5   3 631.648 301.714   6
   0  -5  -3 396.021 107.870  10
   0   5  -3 719.726 294.357   7
   0   5   3 730.422 386.700   9
   0   5  -3 277.824 231.565  10
   0  -5  -3 472.785 202.939   1
   0   5   4 2745.57 1067.51   9
   0   5   4 2613.87 811.872   6
   0   5  -4 1208.87 481.183   7
   0   5  -4 637.806 323.337  11
   0   5   4 1030.10 693.679   4
   0  -5   4 1030.28 585.792   3
   0  -5   4 2111.03 742.412   2
   0  -5  -4 830.555 406.403   8
   0  -5   4 1093.60 589.199   6
   0  -5  -4 396.053 195.831   1
   0  -5  -5 414.543 248.839   1
   0   5   5 447.659 369.068   9
   0  -5   5 346.490 264.054   3
   0  -5  -5 892.342 530.083   8
   0  -5   5 182.438 210.730   6
   0  -5   5 586.348 375.904   2
   0   5  -5 237.013 395.973  10
   0   5  -5-15.4087 171.163   7
   0   5  -5 332.122 268.923  11
   0  -5   5 447.962 423.343  12
   0   5   5 524.665 310.417   6
   0  -5  -6 4190.67 1058.30   8
   0  -5  -6 3403.03 979.008   1
   0   5  -6 3910.94 1088.49  10
   0   5  -6 4742.82 1040.64   7
   0  -5   6 5627.77 1132.02   6
   0  -5   6 4473.92 1121.01  12
   0   5   6 4799.88 1059.25   9
   0   5   6 4698.16 1093.59   6
   0   5   7 3640.91 1143.95   6
   0  -5   7 2567.56 854.849  12
   0   5  -7 2917.62 1339.34  10
   0   5  -7 6716.20 1459.29   7
   0  -5  -7 6497.71 1510.56   8
   0  -5  -7 5136.86 1242.67   1
   0  -5   7 3087.78 1208.81   6
   0   5  -8 1294.23 662.149   7
   0  -6   0 544923. 9012.19   8
   0  -6   0 515763. 8619.40  13
   0   6   0 477931. 9594.95   4
   0   6   0 507564. 7136.93  10
   0  -6  -1 17998.1 1764.09  13
   0  -6  -1 18515.7 1802.74   8
   0  -6   1 18594.1 1594.59   8
   0   6   1 21835.1 1220.92  10
   0   6   1 20022.9 1970.03   4
   0   6   1 19866.9 1375.42   7
   0   6  -1 18027.9 1617.19  10
   0   6  -1 20468.7 1886.03   4
   0   6  -1 22609.0 1148.57   7
   0   6   2 933.566 440.418   9
   0   6  -2 729.971 234.318   5
   0  -6  -2 1394.22 684.976   8
   0   6  -2 1049.51 294.173   7
   0  -6  -2 1632.79 705.675   1
   0  -6   2 906.618 424.046   3
   0   6   2 827.596 223.249   6
   0   6  -2 505.701 345.009  10
   0  -6  -2 1520.38 710.991  13
   0   6   2 1003.90 512.638   4
   0  -6   2 759.909 221.322   6
   0  -6  -2 684.368 193.604   5
   0  -6   3 4070.71 843.140   3
   0  -6  -3 3268.71 894.300   1
   0  -6   3 3628.20 598.659   6
   0   6   3 3734.79 668.128   6
   0   6   3 3204.96 891.793   4
   0   6  -3 3271.27 916.536  10
   0  -6  -3 3936.78 1033.26   8
   0   6   3 2889.58 835.853   9
   0  -6   3 3578.41 913.546   2
   0   6  -3 3205.12 570.120   7
   0  -6   4 16834.0 1586.77   6
   0  -6   4 15824.9 1679.50   3
   0  -6   4 14433.3 1867.72   2
   0   6   4 15969.6 1622.23   6
   0   6  -4 17215.0 1593.39   7
   0  -6  -4 16072.1 2003.68   8
   0   6   4 13686.5 2024.62   4
   0  -6  -4 15395.8 1830.68   1
   0   6  -4 16821.5 2183.46  10
   0   6   4 16194.8 1863.94   9
   0  -6  -5 18545.2 2145.12   1
   0   6  -5 20003.2 1948.56   7
   0  -6   5 18351.9 2067.33   2
   0  -6  -5 18871.1 2335.95   8
   0  -6   5 20281.1 2372.54  12
   0   6  -5 16910.9 2377.18  10
   0  -6   5 18587.1 1881.88   6
   0   6   5 20114.7 2127.42   9
   0  -6   5 20332.8 1929.95   3
   0   6   5 16384.0 1892.23   6
   0  -6   6-89.2751 358.249  12
   0   6   6 120.799 177.136   9
   0   6  -6 314.685 247.051   7
   0  -6  -6 229.942 384.746   1
   0   6   6-475.089 353.568   6
   0  -6   6-75.3217 84.5051   6
   0  -6  -6 419.921 472.541   8
   0  -6   6-331.634 451.592   2
   0   6  -6 73.3411 67.1582  10
   0  -6   7 231.376 549.842   6
   0  -6  -7 467.352 578.494   8
   0   6   7 33.6380 183.988   6
   0  -6   7 1027.26 700.063  12
   0   7   0-213.467 261.786   4
   0  -7   0-292.236 386.468  13
   0  -7   0 375.430 239.621   8
   0   7   0 256.539 204.771  10
   0   7   0-15.0050 41.0724   7
   0   7  -1 36743.6 2761.88   4
   0  -7  -1 31717.6 2551.95  13
   0  -7  -1 36351.4 2670.45   8
   0   7  -1 34819.2 2353.29  10
   0   7   1 36860.4 2896.25   4
   0   7   1 39993.3 1818.51  10
   0  -7   1 34164.9 2356.64   8
   0   7  -1 37567.0 1513.35   7
   0   7  -2 2382.46 705.514   4
   0   7   2 2628.27 779.553   4
   0  -7  -2 1867.75 576.109   8
   0   7  -2 2167.04 414.608   7
   0   7  -2 2451.22 691.421  10
   0  -7  -2 2586.65 889.903  13
   0   7  -3 14835.6 1859.41  10
   0   7   3 13740.5 1840.76   9
   0  -7   3 14099.9 1854.67   2
   0  -7  -3 14114.9 1922.00   8
   0  -7  -3 14739.8 1914.06   1
   0   7   3 15947.2 2083.23   4
   0   7   4 3923.21 1692.77   4
   0  -7  -4 302.894 516.423   1
   0  -7  -4 1393.36 1196.60   8
   0  -7   4 1690.56 949.113   3
   0   7   4 2593.47 1639.29   9
   0  -7   5 8748.46 1643.25  12
   0  -7   5 8478.71 1482.87   2
   0   7   5 9476.84 1560.64   9
   0  -7  -5 9015.20 1564.64   1
   0  -7  -5 9623.88 1775.40   8
   0   7  -5 7760.51 1660.85  10
   0  -7   5 8261.16 1341.47   3
   0  -7  -6 3000.80 1027.19   8
   0  -7   6 2113.52 946.663  12
   0   7  -6 1293.84 612.664  10
   0  -7   6 2797.53 928.517   2
   0  -7  -6 3030.62 973.419   1
   0  -8   0 186717. 6167.17  13
   0  -8   0 179053. 6100.77   8
   0   8   0 156174. 4562.29  10
   0   8   0 146779. 6316.73   4
   0   8   1 4269.49 1062.21   4
   0  -8   1 3748.78 813.772   8
   0  -8  -1 3338.06 1053.03  13
   0  -8  -1 4659.79 1050.45   8
   0   8  -1 4983.05 928.810  10
   0   8  -1 4207.11 1073.53   4
   0   8   2 2109.94 852.369   4
   0   8  -2 1024.16 621.097   4
   0  -8  -2 1195.30 559.127   8
   0   8  -2 1321.72 461.802  10
   0   8  -3 804.823 535.123   4
   0   8   3 1836.39 770.298   4
   0   8  -3 970.216 558.366  10
   0  -8  -3 813.776 644.534   8
   0  -8   3 1144.59 713.034   2
   0  -8  -4 6553.32 1521.52   8
   0   8   4 10363.1 1692.41   9
   0   8   4 9436.85 1827.32   4
   0   8  -4 8759.51 1644.11  10
   0  -8   4 9090.59 1628.69   2
   0  -8  -5 8204.72 1688.99   8
   0  -8   5 8231.24 1643.54  12
   0   8  -5 6499.29 1520.56  10
   0  -8   5 6990.03 1528.56   2
   0  -8  -5 8660.47 1657.43   1
   0  -8  -6-175.473 234.100   1
   0  -8   6-54.1332 204.021   2
   0   9   0 256.751 379.944   4
   0  -9   0 228.709 83.5941  13
   0  -9   0-221.109 116.625   8
   0  -9  -1 1367.43 657.887  13
   0  -9   1 605.767 240.881   8
   0   9   1 886.993 359.439   4
   0  -9   1 228.092 234.701  13
   0   9  -1 585.418 474.474   4
   0  -9  -1 901.140 673.838   8
   0  -9  -2 407.394 438.604   8
   0   9  -2 164.573 195.577  10
   0   9   2 78.1823 273.838   4
   0   9  -2 865.794 560.445   4
   0   9  -3 0.46245 365.828  10
   0   9   3-3.70508 193.958   4
   0  -9  -3 116.611 172.604   8
   0   9  -3 306.335 326.363   4
   0  -9   3 344.929 415.065   2
   0  -9   4 1384.36 1007.37   2
   0  -9  -4 609.186 907.663   8
   0   9  -4 670.298 724.453   4
   0   9  -4 966.397 743.483  10
   0   9   4 1051.26 1197.98   4
   0  -9   5 282.925 466.013   2
   0   9  -5-555.848 665.363  10
   0  10   0 2817.36 1056.52   4
   0 -10   0 3319.25 953.744   8
   0 -10   0 4049.96 1110.49  13
   0 -10  -1 1796.66 754.024   8
   0 -10   1 225.037 225.591   8
   0 -10   1-60.1387 210.583  13
   0  10   1 1295.76 585.165   4
   0 -10  -1 1588.61 860.828  13
   0  10  -1 758.953 562.372   4
   0  10  -2 3111.88 1035.34   4
   0 -10   2 2300.01 848.656  13
   0 -10  -2 3331.35 992.072   8
   0  10   2 4206.47 1251.66   4
   0 -10   3-0.60154 488.132   2
   0  10  -3 504.980 486.627   4
   0  10  -3 817.075 524.982  10
   0  10   3 1300.43 796.358   4
   0 -10  -3 299.141 1072.59   8
   0  10  -4 1703.06 1268.21   4
   0  10  -4 11262.8 2151.51  10
   0 -11   0-555.188 407.042   8
   0  11   0-391.043 399.981   4
   0 -11  -1 539.215 504.182  13
   0 -11  -1 200.496 336.757   8
   0 -11   1 1022.05 670.546  13
   0  11  -1 40.3450 99.4769   4
   0  11  -2-493.812 486.019   4
   0 -11   2 184.898 278.172  13
   0 -11  -2 53.6440 269.977   8
   1   0  -9 1825.23 931.418  10
  -1   0   9 1054.79 612.815   9
   1   0  -8 17270.8 2481.85   7
   1   0  -8 16034.8 2028.87   8
  -1   0   8 14416.2 2110.34   9
  -1   0   8 10459.3 2076.88   6
   1   0  -7 4843.71 1186.86   7
  -1   0   7 3512.15 1072.53   6
  -1   0   7 3672.62 1042.23   9
   1   0  -7 4431.80 1008.84   8
  -1   0   7 3951.52 833.737  12
  -1   0   6 1203.42 548.759   6
  -1   0   6 313.325 483.766   9
   1   0  -6 1228.32 472.274   8
   1   0  -6 1180.73 557.722   7
   1   0  -5 19054.1 1903.67   7
  -1   0   5 27285.6 1849.47  12
  -1   0   5 20505.2 1217.58  14
  -1   0   5 15893.2 1828.51   6
  -1   0   5 26281.4 2378.92   9
  -1   0   4 51922.5 2816.14   9
   1   0  -4 53513.8 2162.91  12
  -1   0   4 52805.0 2187.33  12
   1   0  -4 52266.0 2785.75   7
  -1   0   4 52205.1 1864.82  14
  -1   0   4 52665.4 2751.98   6
   1   0  -3 547071. 7687.97   7
  -1   0   3 526780. 7524.25   6
  -1   0   3 546476. 5905.19  14
  -1   0   3 547563. 5633.29  12
   1   0  -3 543351. 5517.74  12
   1   0  -3 558284. 5980.04  14
  -1   0   3 535178. 7895.91   9
   1   0  -2 21315.7 1101.88  14
  -1   0   2 23016.2 1125.98  14
  -1   0   2 22086.3 1347.96   9
  -1   0   2 25459.1 1446.95   7
  -1   0   2 22632.8 980.718  13
   1   0  -2 21025.4 1209.80   6
   1   0  -2 21863.1 1272.52   7
  -1   0   2 19831.0 1166.27   6
  -1   0   2 21428.7 757.934  12
   1   0  -1 16649.6 871.594   9
  -1   0   1 9119.80 773.260   7
   1   0  -1 9674.05 563.933  11
   1   0  -1 11520.6 750.004   7
   1   0  -1 17107.7 907.046  14
   1   0  -1 12584.5 801.312   6
  -1   0   1 14839.3 857.557  14
  -1   0   1 12958.4 821.014   6
  -1   0   1 16304.1 840.606   9
  -1   0   0 452567. 4380.41  11
   1   0   0 471131. 4350.40  14
  -1   0   0 460252. 4122.41  12
   1   0   0 467425. 4453.05  11
  -1   0   0 475575. 4424.91  10
   1   0   0 465845. 4547.55   5
   1   0   0 477893. 4546.08   6
   1   0   0 464321. 4273.09  10
   1   0   0 455057. 4084.18  12
  -1   0   0 461465. 4368.87  14
   1   0   1 291965. 4090.92  10
  -1   0  -1 277559. 3093.69   8
  -1   0  -1 268641. 4493.65  11
  -1   0  -1 284152. 4438.55   5
   1   0   1 283434. 3161.29   8
  -1   0  -1 277537. 2999.74  14
   1   0   1 276536. 4391.92   5
  -1   0  -1 282200. 2398.00   4
  -1   0  -1 280420. 4381.24  12
   1   0   1 271049. 4327.51  12
  -1   0  -1 280032. 4033.48  10
   1   0   2 107241. 3294.99   5
   1   0   2 116242. 3358.95   7
  -1   0  -2 112230. 1537.37  14
  -1   0  -2 110113. 2407.35   8
  -1   0  -2 124016. 2453.81   4
  -1   0  -2 105731. 2977.29  10
  -1   0  -2 114122. 3364.04   5
  -1   0  -2 105226. 1785.26   2
  -1   0  -2 114637. 3477.74  12
   1   0   2 114452. 3138.12  10
   1   0   2 113495. 3352.98  12
   1   0   2 115493. 2495.51   8
  -1   0  -3 540.841 280.705   4
  -1   0  -3 1644.37 574.604  10
  -1   0  -3 2444.26 693.636   2
   1   0   3 1330.20 642.570   5
  -1   0  -3 801.375 311.717   8
  -1   0  -4 59653.3 2472.83   8
  -1   0  -4 60507.9 2313.29   2
  -1   0  -4 59820.5 3013.00  10
   1   0   4 61549.5 3395.38   5
   1   0   4 55299.6 3241.90  12
  -1   0  -5 172698. 6519.80  11
  -1   0  -5 162181. 4689.24   8
  -1   0  -5 152272. 5427.05  10
   1   0   5 167045. 6230.55   5
   1   0   5 158794. 5769.80  12
  -1   0  -6 1708.93 572.817  10
   1   0   6 2376.93 922.801   5
   1   0   6 1085.10 590.065  12
  -1   0  -6 1800.18 555.224   8
  -1   0  -6 2993.22 1186.70  11
   1   0   6 2273.23 881.947   9
  -1   0  -7 2250.62 770.012  10
   1   0   7 4046.51 1072.95  12
   1   0   7 2813.17 888.621   9
   1   0   7 2869.43 1031.62   5
  -1   0  -7 4054.86 1136.46  11
  -1   0  -8 196.077 106.825  10
  -1   0  -8 456.620 547.161  11
   1   0   8 1044.79 631.919  12
   1  -1  -9 2174.42 953.408  10
  -1   1   9-405.799 556.566   9
  -1  -1   8 4900.97 1419.92   9
   1  -1  -8 8552.77 1616.58   8
   1   1  -8 9006.80 1740.86   7
   1   1  -8 7269.17 1379.58   8
   1   1  -8 11338.2 2050.08  10
  -1  -1   8 2248.65 894.663   6
  -1   1   8 3078.31 1015.13   6
   1  -1  -8 6789.59 1712.46   7
  -1   1   8 3288.29 1084.66   9
  -1   1   7-90.5711 404.096   6
   1   1  -7 834.805 558.536  11
  -1  -1   7 298.033 336.450   6
  -1  -1   7 129.703 416.651  12
   1   1  -7 84.8818 67.5992   8
  -1   1   7-34.0095 245.719  12
   1  -1  -7 190.868 162.613   7
  -1   1   7-594.630 552.733   9
   1   1  -7 295.523 284.901   7
   1  -1  -7 337.123 392.292   8
  -1  -1   7 1011.04 709.723   9
   1   1  -6 254.320 290.936   7
  -1   1   6 287.323 449.159   6
  -1  -1   6-130.884 64.1842  12
   1  -1  -6 89.0577 31.4478   8
  -1  -1   6 281.049 269.364   6
  -1   1   6 216.939 124.812  12
   1  -1  -6-143.449 113.465   7
  -1   1   6 88.1747 303.811   9
  -1   1   5 28207.7 2384.75   9
   1  -1  -5 187.519 264.610  14
  -1   1   5 24536.7 1685.48  12
  -1  -1   5 15751.5 1418.01  12
   1  -1  -5 240.978 378.257   8
  -1  -1   5 6453.38 757.480  14
   1  -1  -5 180.807 362.708   7
  -1   1   5 1821.37 1607.48   6
   1   1  -5 863.543 733.383   7
  -1  -1   5 600.020 1143.68   6
   1  -1  -4 1274.74 465.967   7
  -1   1   4 1967.18 533.586   6
   1  -1  -4 1893.70 411.609  12
  -1   1   4 1696.50 391.836  12
  -1   1   4 1510.08 512.151   9
  -1  -1   4 1846.79 545.951   6
   1   1  -4 1656.30 486.023   7
  -1  -1   4 1990.38 398.891  12
  -1  -1   4 2042.08 421.963  14
   1  -1  -4 2335.14 469.482  14
   1  -1  -3 199080. 3822.46  14
   1  -1  -3 190821. 3276.14  12
   1  -1  -3 185783. 4422.57   7
  -1  -1   3 188096. 3644.63  12
  -1  -1   3 180785. 3458.19  14
   1   1  -3 195761. 4713.49   7
  -1   1   3 190847. 3274.95  12
  -1   1   3 181142. 4455.27   9
  -1   1   3 182196. 4422.35   6
  -1   1   3 187795. 3716.71  14
  -1   1   3 194099. 4345.77  13
  -1   1   3 188900. 2979.01   3
  -1  -1   3 181895. 4422.16   6
   1  -1  -2 366765. 5197.83   7
  -1   1   2 366986. 3810.79   3
  -1   1   2 361091. 3214.69  12
   1   1  -2 346449. 5203.64   2
   1  -1  -2 352487. 4748.31  13
   1  -1  -2 349276. 4988.00   6
   1   1  -2 352258. 4935.60   6
  -1   1   2 326262. 4251.33  13
  -1  -1   2 385530. 5651.79   7
   1  -1  -2 363147. 3225.78  12
   1  -1  -2 361615. 5412.45   9
  -1  -1   2 341709. 4841.37   6
  -1   1   2 332825. 4773.77   6
  -1   1   2 339181. 5090.44   9
   1  -1  -2 354969. 4811.92  14
  -1   1   2 392189. 5456.51   7
  -1   1   2 381183. 5024.80  14
   1   1  -2 377455. 5447.88   7
   1  -1  -1 783186. 6619.83   9
  -1  -1   1 845621. 6405.42   2
   1  -1  -1 800696. 6577.55  14
  -1   1   1 704207. 6649.36  14
   1   1  -1 627254. 5610.67   6
  -1   1   1 765474. 6622.41   9
   1   1  -1 744849. 6742.38   7
   1  -1  -1 753008. 6570.80  10
   1  -1  -1 726964. 5907.80   6
  -1  -1   1 748367. 6230.95   6
   1   1   0 139850. 2671.59  12
  -1  -1   0 142448. 2698.38  12
   1  -1   0 139901. 2492.06   5
   1  -1   0 137047. 2381.03  12
  -1  -1   0 130337. 2489.97   8
  -1   1   0 140320. 2726.52  10
   1   1   0 149450. 2252.51  10
  -1   1   0 147049. 2721.36  14
  -1   1   0 142239. 2529.15   9
   1   1   0 141118. 2540.22   5
   1  -1   0 141402. 2505.57   6
   1  -1   0 138469. 2452.57   9
  -1   1   0 139595. 2734.47  11
  -1  -1   0 123345. 2041.59   2
   1  -1   0 143437. 2737.38  10
   1   1   0 141369. 2657.31   8
  -1   1   0 152649. 1906.40   4
   1   1   0 137489. 2518.10   6
   1  -1   0 148000. 1827.91   4
   1  -1   0 146532. 2794.84  11
   1  -1   0 138658. 2528.96  14
  -1  -1  -1 18649.3 869.230  10
   1  -1   1 19189.0 1172.29  10
   1  -1   1 18607.1 1122.47   5
   1   1   1 17829.6 890.412   4
   1   1   1 18726.2 1076.13   8
   1   1   1 18387.8 1142.84   5
   1  -1   1 18824.8 1171.74  11
   1   1   1 17105.9 556.768   9
   1  -1   1 18361.3 821.334  14
  -1   1  -1 18211.1 1153.54  10
   1   1   1 16953.8 1098.45  12
  -1   1  -1 18824.4 1135.58   5
   1   1   1 18057.5 864.997  10
   1  -1   1 16677.5 1086.79  12
   1  -1   1 18337.0 1003.20   7
  -1  -1  -1 17425.3 1011.96   8
  -1  -1  -1 17934.1 924.580   4
  -1  -1  -1 18448.2 1122.03   5
  -1   1  -1 18018.3 1143.90  11
  -1  -1  -1 18535.9 1184.86  12
  -1   1  -1 18677.9 727.911   1
  -1   1  -1 18226.1 1172.16  12
  -1   1  -2 219492. 4706.60   5
   1  -1   2 205600. 4566.57   5
   1  -1   2 200369. 2848.13   2
   1   1   2 209810. 3730.84   4
  -1  -1  -2 206025. 4000.24   8
  -1   1  -2 209156. 2478.70   8
   1   1   2 209389. 4613.87  12
   1  -1   2 212609. 2549.97  14
   1  -1   2 206243. 4583.26  12
   1   1   2 212829. 4635.79   5
   1   1   2 212149. 4082.95   8
   1  -1   2 223719. 4784.93  10
   1   1   2 207847. 3337.83   9
  -1   1  -2 213632. 4723.51  11
  -1  -1  -2 205421. 3672.23  10
  -1   1  -2 206904. 4590.95  10
  -1  -1  -2 221228. 3809.27   4
   1  -1   2 216867. 4370.82   7
  -1  -1  -2 216665. 4640.23   5
  -1   1  -3 39064.7 1456.46   8
  -1   1  -3 35822.6 1523.03   2
  -1   1  -3 39543.3 2225.63   7
   1  -1   3 39608.2 2368.76   5
  -1   1  -3 38588.6 2253.72  10
  -1  -1  -3 42862.5 2023.94   4
  -1  -1  -3 38203.5 1946.89   8
  -1   1  -3 42968.0 2473.43  11
   1   1   3 40728.4 2441.37   5
  -1  -1  -3 38808.8 1940.51  10
   1  -1   3 131095. 4200.68  12
  -1  -1  -4 40073.1 2351.52  10
   1   1   4 42566.7 2848.29   5
   1   1   4 41052.5 2293.75   9
  -1   1  -4 41483.3 1864.02   8
   1  -1   4 43732.8 2848.56   5
  -1  -1  -4 40638.9 2278.40   8
  -1   1  -4 34604.2 1768.67   2
  -1   1  -4 42479.8 2705.93  10
  -1   1  -4 44641.2 2830.86  11
  -1   1  -4 41633.2 2617.33   7
   1   1   4 38317.8 2681.22  12
   1  -1   4 43616.2 2773.27  12
   1   1   5 468.592 384.275  12
   1   1   5 315.962 312.760   9
  -1  -1  -5 406.424 336.385  10
  -1  -1  -5 554.740 375.379   8
  -1   1  -5 915.145 560.758  11
   1   1   5 629.997 461.529   5
  -1   1  -5 365.509 257.516   7
  -1   1  -5 611.997 307.043   8
   1  -1   5 183.849 245.385  12
   1  -1   5 940.670 483.985   5
  -1   1  -5 343.684 338.534  10
  -1   1  -6 5461.96 1149.57  10
   1   1   6 5385.15 1025.09   9
  -1  -1  -6 5652.04 1011.28   8
   1   1   6 5568.83 1180.28  12
  -1   1  -6 7127.59 1379.41  11
   1  -1   6 5731.12 1299.08  12
   1  -1   6 6724.24 1420.77   5
   1   1   6 6698.77 1430.05   5
  -1  -1  -6 5988.05 1137.73  10
   1  -1   7 2006.08 779.935   9
   1   1   7 1184.01 580.048   9
   1   1   7 1715.25 665.700  12
   1  -1   7 1671.40 783.636   5
  -1   1  -7 1245.40 523.594  10
   1   1   7 868.909 694.134   5
  -1   1  -7 1527.80 763.492  11
  -1  -1  -7 866.422 387.244  10
   1  -1   7 1322.56 517.735  12
  -1   1  -8 28.1030 300.273  10
  -1  -1  -8 1210.40 925.724  11
   1  -1   8-259.343 399.318  12
  -1   1  -8 358.713 447.946  11
   1  -1   8 1122.62 714.980   9
   1   1   8 344.903 356.621  12
   1  -2  -9 2566.20 930.576   8
  -1   2   9 1946.43 855.547   9
   1   2  -8 16976.7 2412.67   7
  -1   2   8 12126.5 1954.06   9
  -1   2   8 8284.59 1861.87   6
   1  -2  -8 14915.1 2162.81   8
  -1  -2   8 14887.7 2380.89   9
   1   2  -8 15161.4 2461.38  10
  -1  -2   8 9959.99 2003.35   6
   1  -2  -8 16836.8 2498.77   7
  -1  -2   7 981.258 650.666   6
  -1   2   7 762.172 337.578   9
  -1   2   7 1470.39 578.761  12
   1  -2  -7 491.931 159.892   8
   1   2  -7 1511.00 720.862   7
   1  -2  -7 712.025 510.944   7
  -1  -2   7 1342.85 513.519  12
  -1   2   7 998.761 557.625   6
  -1  -2   6 379.073 460.031   6
  -1   2   6-640.514 367.323   9
  -1  -2   6 575.248 340.781  12
   1  -2  -6 639.998 393.838   8
   1   2  -6 813.007 521.167   7
  -1   2   6 466.996 359.420  12
  -1   2   6 613.938 411.654   6
   1  -2  -6 419.817 273.305   7
   1   2  -6 188.027 91.9275  11
  -1   2   5 49826.0 2566.74  12
  -1   2   5 27195.0 2549.56   6
   1  -2  -5 1930.61 1068.58   7
   1   2  -5 1884.82 824.248   7
  -1  -2   5 29296.6 2276.82   6
  -1  -2   5 29460.4 2079.49  12
  -1  -2   5 14392.7 1187.25  14
  -1   2   5 58498.0 3262.93   9
  -1   2   4 11096.4 1216.62   9
   1  -2  -4 10605.2 1260.29   8
   1  -2  -4 10955.3 1319.19   7
  -1   2   4 10928.6 1262.62   6
  -1  -2   4 12231.3 1206.50  12
  -1   2   4 11981.5 1100.91  12
  -1  -2   4 11505.4 1005.87  14
  -1  -2   4 10366.6 1219.38   6
   1  -2  -4 11472.4 1050.17  14
   1   2  -4 14098.7 1046.70  11
   1  -2  -4 11369.3 1055.19  12
   1   2  -4 11987.2 1317.82   7
  -1  -2   4 10643.1 697.054   3
   1  -2  -3 89341.7 2846.82  14
   1  -2  -3 90535.2 2534.08  12
   1  -2  -3 88177.6 3316.66   8
   1   2  -3 93874.0 1996.33  11
  -1   2   3 87815.3 2579.41   3
  -1  -2   3 80347.3 2860.43   6
  -1   2   3 85822.6 3116.71   9
   1   2  -3 91404.9 3260.66   7
  -1   2   3 79569.4 2873.58   6
   1  -2  -3 87867.6 3049.71   7
  -1  -2   3 78838.4 3034.59   2
   1  -2  -2 31307.4 1791.99   4
   1  -2  -2 31599.9 1504.53   6
   1  -2  -2 32166.4 1492.48   7
   1  -2  -2 32498.2 1717.85   9
   1  -2  -2 32878.3 1667.98  14
   1   2  -2 31708.5 1494.40   6
  -1   2   2 33263.6 1536.17   3
   1  -2  -2 32130.2 1273.93  12
  -1   2   2 34003.9 1624.99   7
  -1   2   2 28979.4 1411.85   6
  -1  -2   2 35679.5 1807.68   7
  -1  -2   2 29921.0 1425.24   6
   1   2  -2 34747.8 1757.39   7
  -1   2   2 31232.7 1738.44   9
   1  -2  -2 28526.1 1541.82  13
   1   2  -2 28906.3 1562.51   2
  -1  -2   2 25362.2 1516.11   2
   1   2  -2 33080.9 1169.06   3
   1  -2  -2 32246.3 1723.11   8
   1  -2  -1 814373. 7651.75   9
  -1  -2   1 933494. 7996.95   2
  -1   2   1 776558. 5589.50   7
   1  -2  -1 800251. 7475.62   4
   1  -2  -1 836684. 7725.90  14
  -1  -2   1 899189. 6927.91   6
  -1   2   1 742887. 7476.18   4
   1  -2  -1 806851. 7296.85   8
   1  -2  -1 776674. 5357.56   7
  -1  -2   1 835636. 4653.88  13
   1  -2  -1 712232. 5611.23   6
   1  -2  -1 823975. 6853.72  10
   1   2  -1 804487. 7619.57   7
  -1   2   1 800981. 7229.47  10
  -1   2   1 805252. 8008.86   9
   1  -2  -1 766960. 7168.29   3
   1   2  -1 867099. 7531.53   8
   1   2  -1 823524. 6076.64   6
  -1   2   1 763965. 6452.63   6
   1  -2   0 310280. 3772.52   4
  -1   2   0 318891. 3862.36   4
   1   2   0 317367. 3845.40   5
  -1  -2   0 296156. 4712.00   8
   1  -2   0 304432. 3349.93   8
   1   2   0 301738. 4660.46   8
   1   2   0 310084. 3658.32   6
   1  -2   0 291746. 4118.84   1
   1   2   0 311083. 4125.21  13
   1  -2   0 297193. 3672.77   5
   1  -2   0 301032. 3634.91   6
  -1  -2   0 295526. 4546.06  12
   1  -2   0 304782. 4491.88  10
   1  -2   0 311233. 4788.82  11
   1  -2   0 296369. 4523.68   9
  -1   2   0 319005. 4728.87  10
   1  -2   1 2114.36 370.658  12
  -1  -2  -1 2750.63 466.916   4
   1   2   1 2681.31 283.167   9
  -1  -2  -1 2762.78 290.493   9
   1  -2   1 2623.14 334.287   7
   1   2   1 2760.89 514.048   8
  -1   2  -1 2837.11 521.425  10
   1  -2   1 2698.23 431.457   5
  -1  -2  -1 3305.54 557.072  12
   1   2   1 2693.16 451.742   5
  -1   2  -1 2611.68 426.648   5
   1  -2   1 3203.73 536.091  11
  -1  -2  -1 2124.15 433.214   8
  -1   2  -1 2427.34 462.083  11
   1   2   1 2534.41 479.883  12
  -1  -2  -1 2300.95 388.776   5
   1   2   1 1907.01 227.803  10
   1   2   1 2380.95 339.574   1
   1   2   1 2197.94 412.871   4
   1  -2   1 2572.86 443.117  10
  -1  -2  -1 2725.23 251.211  10
   1  -2   2 82134.7 2875.89   5
  -1  -2  -2 85725.4 2796.44   4
   1   2   2 91081.0 2838.89   4
  -1  -2  -2 84802.2 2352.96   1
  -1  -2  -2 83230.8 2924.82   8
  -1  -2  -2 87304.0 2924.23   5
  -1   2  -2 86842.2 2652.44   7
  -1  -2  -2 86211.4 2019.90  10
   1  -2   2 82828.0 2320.07   2
   1   2   2 84386.8 2068.25   9
  -1   2  -2 88590.0 3050.75  11
   1  -2   2 85110.9 3111.51  12
   1  -2   2 85586.2 2674.51   7
  -1   2  -2 83552.1 3153.06  10
   1   2   2 81517.8 3126.89  12
   1   2   2 88415.6 2974.40   5
   1   2   3 42823.7 2507.56   9
  -1  -2  -3 36641.8 1675.45  10
  -1   2  -3 37654.9 1191.97   8
  -1  -2  -3 35847.8 2122.17   8
  -1   2  -3 37675.8 2387.66  10
  -1   2  -3 36629.7 2092.42   7
   1   2   3 38498.4 2392.33   5
   1  -2   3 38187.7 1332.10  14
   1  -2   3 41379.8 2290.15   2
   1  -2   3 38505.7 2315.84   5
  -1   2  -3 39400.8 2372.97  11
   1   2   4 44906.2 2241.82   9
  -1   2  -4 50883.3 3009.61  11
  -1  -2  -4 47326.2 2666.13   8
   1  -2   4 40630.6 989.419  14
   1   2   4 51216.3 3095.65   5
  -1   2  -4 52525.8 2893.69   7
   1   2   4 48709.8 2917.36  12
   1  -2   4 47325.6 2962.14   5
  -1  -2  -4 46280.6 2291.53  10
  -1   2  -4 50327.9 1776.74   8
  -1   2  -4 48817.2 3050.15  10
   1  -2   4 47787.4 2909.66  12
   1   2   5 54268.8 2855.42   9
   1  -2   5 57958.3 3517.41  12
  -1  -2  -5 59383.8 3261.63   8
   1   2   5 60348.9 3841.88   5
  -1   2  -5 59153.5 2289.54   8
   1   2   5 57174.3 3502.98  12
  -1   2  -5 61233.2 3590.21   7
  -1   2  -5 61015.9 3679.93  11
  -1   2  -5 58319.9 3716.98  10
  -1  -2  -5 53621.6 2862.37  10
   1  -2   5 60423.2 3770.87   5
   1   2   6 2765.71 976.609   5
   1  -2   6 2745.91 936.238  12
   1   2   6 2016.11 616.679   9
   1  -2   6 2909.84 1023.46   5
  -1   2  -6 6541.28 1284.87  11
  -1  -2  -6 4817.96 1077.03   8
   1   2   6 2526.74 839.946  12
  -1   2  -6 4616.53 1191.40  10
  -1  -2  -6 4137.38 1007.12  10
   1  -2   7-162.616 88.1887   5
  -1  -2  -7 556.431 499.854   8
  -1   2  -7 657.746 563.745  10
   1   2   7 112.088 405.681  12
   1  -2   7 443.456 438.813  12
  -1   2  -7-39.9839 414.680  11
   1   2   7 423.599 404.315   5
   1  -2   8 879.898 684.877  12
   1   2   8 1525.40 779.835  12
  -1   2  -8 308.687 210.463  10
   1   3  -8 8390.83 1701.94   7
   1  -3  -8 6878.22 1510.90   8
  -1   3   8 8165.49 1590.49   9
   1  -3  -8 8046.64 1669.25   7
   1   3  -8 7853.43 1734.71  10
  -1  -3   8 7224.45 1502.74   6
  -1   3   8 6208.83 1388.53   6
  -1  -3   8 8249.69 1533.38  12
  -1  -3   7 124.164 120.089  12
  -1   3   7 283.959 283.495   9
   1  -3  -7 66.5913 188.577   7
   1  -3  -7-147.866 285.386   8
  -1   3   7-109.937 395.497   6
   1   3  -7 445.714 366.094   7
  -1   3   7-62.3374 119.807  12
  -1  -3   7 9.73884 128.734   6
  -1   3   6 20359.5 2237.36   9
   1  -3  -6 22512.6 2297.86   8
   1   3  -6 24395.4 1775.39  11
   1  -3  -6 20374.0 2265.53   7
  -1   3   6 21432.3 2047.77  12
  -1   3   6 19884.1 2178.21   6
   1   3  -6 22216.4 2277.30   7
  -1  -3   6 19810.5 2069.55   6
  -1  -3   6 23353.7 2157.21  12
   1   3  -5 4156.86 995.016   7
  -1  -3   5 10032.9 1168.76  14
  -1  -3   5 3066.73 558.854   3
   1  -3  -5 3099.19 858.917   8
  -1   3   5 32084.0 2191.05  12
  -1  -3   5 18558.2 1786.43  12
  -1   3   5 40833.9 2820.20   9
  -1  -3   5 8529.72 1754.16   6
   1  -3  -5 3528.73 1099.67   7
   1   3  -5 3577.94 621.888  11
  -1   3   5 21808.8 2171.59   6
   1   3  -4 38404.3 1600.47  11
   1  -3  -4 36423.2 2528.07   8
  -1   3   4 34853.9 2314.31   9
   1   3  -4 37467.2 2417.11   7
  -1   3   4 33295.5 2179.93   6
  -1  -3   4 34555.8 2316.29   2
  -1  -3   4 35300.3 2225.04   6
  -1  -3   4 35623.5 2265.04  12
  -1  -3   4 35835.2 1506.01   3
   1  -3  -4 36839.1 2343.49   7
  -1   3   3 52022.9 2619.55   9
   1  -3  -3 52722.1 2196.89  12
  -1   3   3 49347.0 2264.46   6
  -1  -3   3 50209.4 2266.58   6
  -1  -3   3 46609.8 2419.29   2
   1  -3  -3 48504.2 2367.10   7
   1   3  -3 54560.6 2520.73   7
   1  -3  -3 50630.8 2653.59   8
   1  -3  -2 4833.64 682.572  13
   1   3  -2 5161.44 665.139   8
   1  -3  -2 5996.20 833.353   8
  -1  -3   2 5486.93 472.886  11
   1  -3  -2 5186.02 634.601   6
   1   3  -2 5949.70 632.492   3
  -1  -3   2 4934.87 598.684   6
   1  -3  -2 5446.66 655.259   7
  -1   3   2 5644.23 683.192   7
  -1  -3   2 7346.89 887.181   7
   1   3  -2 6370.73 784.436   7
  -1  -3   2 4896.81 788.697   2
   1   3  -2 5032.07 633.856   6
  -1   3   2 6286.28 878.170   9
   1  -3  -2 5445.58 643.542  10
  -1   3   2 5119.32 838.508   4
  -1   3   2 5827.89 776.303   3
  -1   3   2 4135.60 545.386   6
   1   3  -1 357732. 5555.21   8
  -1  -3   1 324671. 5401.94   8
  -1   3   1 288076. 5258.25   4
   1   3  -1 342293. 3800.87   6
  -1   3   1 285576. 4550.55  10
  -1   3   1 290201. 3867.14   6
   1  -3  -1 324755. 5159.50   8
  -1   3   1 310439. 5136.86   8
  -1   3   1 298643. 5654.88   9
  -1  -3   1 332261. 4034.99  13
   1  -3  -1 332300. 5695.73   1
   1  -3  -1 319231. 5250.32   4
   1  -3  -1 311237. 3276.08   7
  -1   3   1 299172. 3309.55   7
  -1   3   1 355911. 5792.49   3
   1   3  -1 328597. 5192.81   7
   1  -3  -1 330129. 5437.35   9
  -1  -3   1 335059. 4015.42   6
   1  -3  -1 332796. 5578.61   3
   1  -3  -1 309459. 4586.40  10
   1  -3  -1 308958. 3697.25   6
   1  -3   0 117166. 2239.46   6
   1   3   0 124086. 2312.82   6
   1  -3   0 121697. 2939.92   4
  -1   3   0 124290. 2675.59   8
   1   3   0 125339. 2365.78   5
  -1  -3   0 113843. 3328.36   8
   1  -3   0 117209. 2621.21   8
   1   3   0 108978. 2689.29  13
   1  -3   0 115994. 3177.88   1
  -1   3   0 122358. 3006.56   4
   1   3   0 123973. 3463.89   8
   1  -3   0 117563. 2246.73   5
   1  -3   0 110427. 3192.47   3
   1  -3   0 119627. 3397.77  11
   1  -3   0 121002. 3158.35  10
  -1   3   0 127971. 3325.23  10
  -1   3   0 123886. 3367.61   1
   1  -3   0 119556. 3347.31   9
  -1   3  -1 10907.5 1040.65  11
  -1  -3  -1 12294.1 807.899   9
  -1   3  -1 11169.6 897.365   4
   1  -3   1 11892.1 1120.49  11
   1   3   1 11605.7 815.669   9
  -1   3  -1 12140.7 1133.58  10
  -1   3  -1 12611.9 930.324   5
   1  -3   1 12679.2 675.055   7
   1   3   1 11320.4 887.836   5
  -1  -3  -1 10606.8 1087.41   8
   1   3   1 11145.0 1112.42  13
   1   3   1 11141.3 1063.35   4
  -1  -3  -1 11749.6 886.732   5
   1   3   1 11946.5 994.766   1
   1  -3   1 11616.8 857.918   5
  -1   3  -1 11818.5 1007.74   1
   1  -3   1 11415.6 617.853   8
  -1   3  -1 11580.2 624.860   8
  -1   3  -2 44.0634 46.1992   7
  -1   3  -2 139.455 58.0990   8
   1   3   2 171.861 218.755  12
  -1  -3  -2-2.11757 25.8284   9
  -1   3  -2 393.696 198.626  10
   1  -3   2-133.706 114.299  12
  -1  -3  -2 254.403 244.217   8
  -1  -3  -2 115.483 51.7969  10
   1   3   2 221.492 119.890   4
   1   3   2 88.2725 115.564   9
   1  -3   2 159.424 128.330   7
  -1  -3  -2-213.862 192.495   5
  -1   3  -2 163.420 159.134  11
   1  -3   2 207.935 139.173   5
   1   3   2 396.429 209.638   5
  -1  -3  -2 75.9474 175.169   1
   1   3   3 16489.0 1209.50   9
   1   3   3 16964.5 1624.98   4
   1  -3   3 17032.9 1526.06   5
   1   3   3 17444.4 1604.28   5
  -1  -3  -3 16561.0 1585.59   8
  -1   3  -3 15350.4 684.428   8
  -1  -3  -3 16432.9 1314.39   1
  -1   3  -3 14347.6 640.807   8
  -1  -3  -3 16785.7 979.035  10
   1  -3   3 17697.1 1403.58   2
  -1   3  -3 17118.0 1416.92   7
  -1   3  -3 15301.7 1626.98  10
  -1   3  -3 18559.8 1607.33  11
  -1  -3  -4-47.7078 233.877  10
   1  -3   4 29.6416 133.199  14
  -1  -3  -4 58.1000 152.488   8
  -1   3  -4 84.2311 11.0847   7
   1   3   4 230.103 154.004   9
  -1   3  -4 196.326 146.325   8
   1  -3   4 50.0501 29.8311  12
  -1   3  -4 172.621 353.742  11
  -1   3  -4-205.588 163.902  10
  -1  -3  -4 392.151 247.897   1
   1   3   4 155.140 425.026   5
   1   3   4-166.938 265.598  12
   1  -3   4 377.836 309.504   5
   1  -3   4-8.74282 81.0190   2
   1  -3   5 1014.28 463.995  12
   1   3   5 326.969 218.101   9
   1   3   5 103.312 160.279   5
  -1  -3  -5 163.102 110.767  10
  -1  -3  -5 374.738 287.196   8
   1  -3   5-76.6505 254.307   5
  -1   3  -5-2.77628 338.936   7
  -1   3  -5 560.274 437.392  11
   1   3   5 596.793 465.287  12
  -1   3  -5 631.726 159.279  10
  -1  -3  -5 245.913 197.038   1
   1  -3   6 10673.4 1766.08   5
  -1   3  -6 13995.5 2023.86  11
   1   3   6 4795.83 1009.05   9
  -1  -3  -6 9626.54 1728.30   8
   1  -3   6 4957.36 1248.47  12
   1   3   6 5490.38 1330.60  12
  -1   3  -6 7838.12 1653.77   7
   1   3   6 7898.28 1759.58   5
  -1   3  -6 7222.61 1647.64  10
   1  -3   7 910.187 569.251  12
   1   3   7 820.975 598.954  12
  -1   3  -7-82.6850 554.039  10
  -1   3  -7 1365.74 665.328  11
   1  -3   7 1206.44 656.718   5
   1   3   7 801.475 664.807   5
  -1  -3  -7 270.748 156.132   8
   1   3   8 2919.23 1078.89  12
  -1   4   8 8953.73 1678.12   9
  -1   4   8 6378.35 1491.77   6
   1  -4  -8 10229.8 1834.81   8
   1   4  -8 11555.2 1993.37   7
  -1  -4   8 7972.21 1558.32  12
  -1  -4   8 8326.51 1722.32   6
   1  -4  -7 4537.31 1158.72   8
  -1   4   7 5015.87 1231.30   6
   1   4  -7 4093.08 1055.51   7
  -1  -4   7 5483.62 1191.86  12
  -1  -4   7 5751.82 1178.68   6
   1  -4  -7 3225.69 1039.47   7
  -1   4   7 5579.26 1201.51   9
   1   4  -7 4821.39 1337.66  10
   1  -4  -6-288.689 355.867   8
  -1  -4   6 1062.06 594.985  12
   1  -4  -6 28.3099 262.689   7
  -1  -4   6 504.668 433.989   6
   1   4  -6 536.895 385.705   7
  -1   4   6 242.976 391.855   9
  -1   4   6 310.724 114.732   6
   1   4  -6 313.349 644.639  10
  -1  -4   5 15856.2 1269.55   3
   1  -4  -5 13180.1 1806.19   7
   1  -4  -5 12961.7 1775.23   8
  -1  -4   5 16053.7 1854.44   6
  -1  -4   5 22763.3 2288.97   2
  -1  -4   5 40203.1 2938.61  12
   1   4  -5 14287.2 1150.70  11
   1   4  -5 13838.4 1704.55   7
  -1   4   5 47610.9 3258.54   6
   1   4  -4 8679.26 1193.39   7
  -1   4   4 6632.83 1127.78   9
  -1   4   4 6899.13 1005.87   6
   1  -4  -4 6951.98 1141.78   8
   1  -4  -4 7430.19 1090.17   7
  -1  -4   4 7511.18 1051.39   6
  -1  -4   4 6930.37 1095.30   2
  -1   4   3 6853.02 1037.02   9
   1  -4  -3 6338.45 1123.02  13
   1  -4  -3 6103.06 740.712  10
   1  -4  -3 6274.49 1011.93   8
  -1   4   3 6438.80 1097.63   4
  -1   4   3 6387.02 833.372   6
   1  -4  -3 5867.94 855.710   7
  -1  -4   3 6281.66 990.474   2
  -1  -4   3 6463.94 665.215  11
  -1  -4   3 6624.70 780.889   6
   1   4  -3 6148.41 887.386   7
   1  -4  -2 1960.42 410.111  10
  -1   4   2 1915.34 640.352   4
  -1   4   2 2717.23 657.507   9
  -1  -4   2 2348.69 397.229   6
  -1   4   2 2155.69 384.444   6
  -1  -4   2 1930.35 504.184   2
   1  -4  -2 1966.37 484.340  13
  -1  -4   2 2593.33 396.236  11
  -1   4   2 2071.48 425.663   7
   1   4  -2 2729.10 469.689   5
   1  -4  -2 2516.47 558.870   8
   1  -4  -2 2067.97 464.141   7
   1  -4  -2 2550.24 631.005   1
   1   4  -2 2664.52 516.083   7
   1  -4  -2 2504.41 421.301   5
  -1   4   1 395908. 3817.36   7
  -1  -4   1 469061. 7226.66   8
  -1   4   1 433481. 7717.41   9
   1  -4  -1 469245. 7000.07   8
   1   4  -1 459241. 6679.06   7
  -1  -4   1 484242. 5906.35  13
   1  -4  -1 468614. 6177.04  10
   1  -4  -1 414603. 4142.33   6
   1   4  -1 504539. 4483.17   6
   1  -4  -1 474006. 7786.33   1
  -1   4   1 426069. 6084.65  10
  -1   4   1 410852. 7135.84   4
  -1   4   1 449307. 4708.43   6
   1  -4  -1 499981. 7710.72   3
  -1  -4   1 463109. 4534.50   6
   1   4   0 188062. 2881.86   6
   1  -4   0 162706. 2619.67   5
   1  -4   0 165072. 4504.44   3
  -1  -4   0 160785. 4434.35   8
  -1  -4   0 164243. 3735.39   9
  -1   4   0 167849. 3708.72   8
   1   4   0 167388. 2651.43   5
  -1   4   0 178716. 4316.26  10
   1  -4   0 165475. 3670.74   8
   1  -4   0 174257. 2713.64   6
   1   4   0 167107. 4665.92   4
   1  -4   0 166595. 4082.77  10
   1   4   0 158719. 2654.63  10
  -1  -4   0 154253. 3897.49  13
  -1   4   0 169373. 4213.54   4
  -1  -4  -1 4373.80 560.221   9
  -1   4  -1 4290.40 672.614   4
  -1  -4  -1 3718.61 717.988   8
  -1  -4  -1 4801.19 563.440   5
   1   4   1 4495.48 772.774   4
   1  -4   1 4750.12 352.477   7
  -1   4  -1 4752.02 560.397   5
   1  -4   1 4170.13 686.785   3
  -1   4  -1 4191.67 486.186   8
   1  -4   1 4407.14 529.130   5
  -1   4  -1 4692.16 768.478  10
   1   4   1 3995.41 513.125   5
   1  -4   1 4647.36 503.616   8
  -1  -4  -2 24925.9 1562.32   5
  -1  -4  -2 26624.5 1508.32   9
  -1  -4  -2 24612.5 1745.81   1
   1   4   2 24395.9 1927.02   4
   1   4   2 25528.6 1580.16   9
  -1   4  -2 25324.1 1043.52   8
  -1   4  -2 27348.7 1921.18  11
   1   4   2 25082.4 1619.69   5
   1  -4   2 27044.6 1348.78   7
   1  -4   2 25609.9 1604.54   5
  -1  -4  -2 24349.0 1905.99   8
  -1   4  -2 24332.5 1984.75  10
  -1   4  -2 26013.7 1318.62   7
   1   4   3 32810.7 2333.73   4
  -1   4  -3 31024.4 1080.05   8
  -1  -4  -3 32882.1 2412.78   8
  -1   4  -3 33345.5 2558.37  10
  -1   4  -3 33554.6 2259.64  11
   1  -4   3 31322.9 2124.16   2
  -1   4  -3 34949.5 1958.63   7
   1  -4   3 32486.0 2107.33   5
   1  -4   3 39585.5 2708.24  12
   1   4   3 33628.2 1935.04   9
   1   4   3 32986.0 2225.84   5
  -1  -4  -3 32870.4 2090.93   1
  -1  -4  -4 24072.2 1905.17   1
  -1  -4  -4 24825.8 1274.76  10
   1   4   4 24315.8 2299.70  12
  -1   4  -4 23535.8 997.263   8
  -1  -4  -4 24714.5 2250.34   8
   1  -4   4 22403.9 1824.04   2
   1  -4   4 24726.8 2287.86  12
   1   4   4 23629.7 2130.72   4
   1  -4   4 27634.0 2232.18   5
   1   4   4 24799.7 2203.95   5
   1   4   4 24060.6 1775.70   9
  -1   4  -4 21734.4 2302.10  10
  -1   4  -4 26621.1 2024.37   7
  -1   4  -4 25556.9 2131.60  11
   1   4   5 20235.5 2275.80   5
   1   4   5 19161.0 1732.20   9
  -1   4  -5 21735.4 2121.76  11
   1  -4   5 21149.8 2237.17   5
   1   4   5 18126.8 2146.64  12
  -1  -4  -5 18015.9 2048.32   8
   1  -4   5 20078.0 2230.20  12
  -1   4  -5 20612.6 2047.05   7
  -1  -4  -5 19167.2 1821.44   1
  -1   4  -5 17210.1 2223.22  10
   1  -4   6 3618.99 1072.29   5
   1  -4   6 1282.55 638.123  12
  -1   4  -6 4107.83 1057.56  10
  -1  -4  -6 3509.32 1047.23   8
  -1   4  -6 4768.96 1105.69  11
  -1   4  -6 3001.51 984.357   7
   1   4   6 2072.88 759.534  12
   1   4   6 2476.74 952.228   5
   1  -4   7 829.296 516.648   5
  -1  -4  -7 1202.87 589.168   8
  -1   4  -7 863.444 34.8383  10
   1  -4   7 1498.33 661.215  12
   1  -4   7 2412.19 981.568   6
   1   4   7 1836.41 897.857   6
   1   4   7 1921.64 765.075  12
  -1   5   8 1458.54 734.824   6
  -1   5   8 1533.23 670.782   9
   1   5  -8 1262.15 582.242   7
  -1  -5   8 1223.76 606.999   6
  -1  -5   8 888.580 270.742  12
  -1   5   7 681.006 493.489   6
   1   5  -7 373.215 382.869   7
  -1  -5   7 26.6435 465.229  12
  -1   5   7-137.523 204.336   9
   1  -5  -7 70.3532 148.510   8
   1   5  -7 754.755 793.426  10
  -1  -5   7 182.821 274.018   6
  -1  -5   6 6191.19 1153.24   6
   1  -5  -6 5930.31 1280.03   8
  -1   5   6 5797.04 1125.41   6
   1   5  -6 6236.60 1191.97   7
  -1  -5   6 6378.99 1304.34  12
   1   5  -6 6134.09 1515.21  10
  -1   5   6 6273.20 1350.95   9
  -1   5   5 19934.7 2185.64   9
   1  -5  -5 929.614 748.348   8
  -1  -5   5 5544.32 1441.40  12
  -1  -5   5 2129.66 823.802   2
   1   5  -5 21234.6 2695.37  10
  -1  -5   5 5887.62 1326.60   6
  -1   5   5 5557.62 1168.36   6
  -1  -5   4 3172.82 802.053   2
  -1   5   4 2805.36 593.183   6
  -1   5   4 2586.19 840.211   9
   1  -5  -4 1678.01 561.910   8
   1  -5  -4 1973.85 767.416   1
  -1  -5   4 2452.84 610.843   6
   1   5  -4 2573.00 660.224   7
   1   5  -4 2364.37 844.781  10
   1  -5  -3 21365.7 2042.45  13
  -1  -5   3 21202.9 1381.17  11
  -1   5   3 21183.7 2145.20   4
   1  -5  -3 18794.6 1866.40   8
   1  -5  -3 19051.6 1844.36   1
  -1  -5   3 20514.6 1421.74   6
  -1  -5   3 20169.2 1960.94   2
   1   5  -3 19711.8 1579.83   7
   1  -5  -3 17688.1 1227.44  10
   1   5  -3 16506.2 1790.77  10
  -1   5   3 19688.9 1413.10   6
  -1   5   3 20148.9 1916.11   9
   1  -5  -2 5189.84 618.967   5
   1   5  -2 4345.47 701.438   7
   1  -5  -2 3838.17 787.987   8
  -1  -5   2 3454.87 814.602   2
   1  -5  -2 4457.01 880.342  13
  -1   5   2 4910.35 952.754   4
  -1  -5   2 5094.58 612.942   6
  -1  -5   2 3793.91 596.805  11
   1  -5  -2 3878.57 838.477   1
   1   5  -2 4769.05 607.713   5
   1  -5  -2 3913.22 575.905  10
   1   5  -2 4545.92 830.415  10
  -1   5   2 5278.28 652.019   6
  -1   5   2 4689.69 646.131   7
  -1   5   2 5495.53 1081.13   9
  -1  -5   1 98558.3 1958.92   6
  -1   5   1 93588.6 2030.60   6
  -1   5   1 92435.4 3781.55   4
  -1  -5   1 102246. 3701.19   8
   1  -5  -1 105471. 3700.03   8
  -1  -5   1 114333. 3349.46  13
  -1   5   1 85203.8 1801.39   7
  -1   5   1 92456.5 3927.66   9
  -1   5   1 85108.1 2933.45  10
   1  -5  -1 113114. 3272.19  10
   1   5  -1 108685. 3437.32   7
   1  -5  -1 117179. 4182.09   1
   1  -5  -1 99402.1 1998.85   6
   1   5  -1 140974. 3660.90  10
   1  -5  -1 111417. 4074.55   3
   1  -5   0-135.553 214.539   8
   1   5   0 36.0956 62.2576   6
   1  -5   0 372.409 200.840   3
  -1   5   0 41.0649 62.7403   4
   1   5   0 51.0950 131.142   4
  -1  -5   0 470.152 281.628   8
   1  -5   0-14.2593 51.6043   6
   1  -5   0 8.42844 53.4215   5
  -1   5   0 67.5509 88.6032  10
   1   5   0 67.8108 62.4164   5
   1   5   0-31.6231 124.758  10
   1   5   1 5161.21 600.031   6
   1  -5   1 5541.87 670.841   8
  -1   5  -1 5562.91 864.401   4
  -1   5  -1 5211.31 662.576   8
  -1  -5  -1 5125.71 947.888   8
   1   5   1 5249.44 582.096   5
   1  -5   1 5172.37 894.389   3
  -1   5  -1 5356.54 897.981  10
   1  -5   1 5359.05 592.948   5
   1   5   1 5064.65 946.628   4
  -1  -5  -2 4782.93 665.231   5
  -1   5  -2 4589.93 795.800   4
   1  -5   2 4551.71 880.294   3
  -1   5  -2 5170.92 737.399   5
   1   5   2 5285.97 968.856   4
  -1   5  -2 4583.41 558.820   8
   1   5   2 5079.47 815.865   9
  -1  -5  -2 5296.75 1023.18   8
  -1   5  -2 5270.54 564.540   7
   1  -5   2 5307.18 562.490   7
  -1   5  -2 4992.67 963.469  10
   1  -5   2 5242.92 713.716   5
   1   5   2 5178.58 741.942   5
  -1  -5  -3 4664.56 901.826   1
  -1   5  -3 4955.66 910.213  11
   1   5   3 3825.91 735.868   9
   1  -5   3 5223.06 903.023   5
  -1   5  -3 3741.67 449.500   8
  -1  -5  -3 4013.62 902.217   8
   1   5   3 3771.27 826.834   4
   1  -5   3 5105.35 1087.68   3
  -1   5  -3 4684.73 702.432   7
   1  -5   3 4192.49 873.626   2
  -1   5  -3 5211.13 1136.86  10
   1   5   3 3888.01 784.635   5
  -1  -5  -4 4704.65 886.936   1
  -1  -5  -4 4252.08 981.573   8
  -1   5  -4 3974.25 769.476   7
   1  -5   4 4071.03 944.141  12
   1   5   4 4709.76 844.146   9
   1   5   4 5125.60 1065.27   4
   1  -5   4 4346.18 864.604   3
  -1   5  -4 4234.19 876.391  11
   1  -5   4 4204.88 840.363   5
   1  -5   4 4071.59 856.041   2
  -1   5  -4 3644.97 884.557  10
   1   5   4 4866.01 967.420   5
   1   5   5 645.047 273.411   9
  -1   5  -5 270.962 218.197  11
  -1   5  -5 485.123 332.997   7
   1  -5   5-62.1035 219.636  12
   1  -5   5 290.050 108.780   3
   1  -5   5 99.5038 175.609   2
  -1  -5  -5 857.989 561.552   8
  -1   5  -5-418.002 302.521  10
  -1  -5  -5 468.198 394.665   1
   1  -5   5 422.282 32.0143   5
   1   5   5-38.1253 413.417   5
   1  -5   6 1064.71 548.032   5
   1   5   6 948.552 705.584   5
  -1  -5  -6 1302.78 761.193   8
  -1   5  -6 4.25552 482.262  10
   1  -5   6 282.190 291.238  12
  -1   5  -6 529.682 130.487  11
   1   5   7 959.922 584.490   6
   1  -5   7 889.589 523.004   6
  -1  -5  -7 392.616 437.565   8
   1  -5   7-537.011 661.856  12
  -1  -6   8 5303.70 1317.93   6
  -1  -6   8 5459.01 1429.41  12
  -1   6   8 4291.55 1385.35   6
   1  -6  -8 4020.56 1351.68   1
  -1  -6   7 787.143 431.906   6
  -1   6   7 508.523 509.563   6
  -1   6   7 20.2611 151.335   9
   1  -6  -7 640.330 515.962   8
  -1  -6   7-204.483 482.009  12
   1   6  -7 647.834 361.910   7
   1   6  -7 461.070 481.848  10
   1  -6  -7-40.3996 118.411   1
  -1   6   6 167.992 172.636   6
  -1   6   6-140.729 320.904   9
   1  -6  -6-101.408 133.230   8
   1  -6  -6 310.228 852.620   1
  -1  -6   6 377.062 486.571   2
  -1  -6   6 469.127 406.112  12
  -1  -6   6 324.593 383.402   6
   1   6  -6 291.419 310.349   7
   1   6  -6 523.344 465.642  10
  -1   6   5 3085.64 919.448   6
   1  -6  -5 1110.96 558.897   1
   1  -6  -5 324.809 479.857   8
  -1  -6   5 2340.59 924.319   2
   1   6  -5 1263.12 543.232   7
  -1  -6   5 2239.34 941.488   6
  -1   6   5 4444.82 1175.05   9
   1   6  -5 1549.50 1054.32  10
   1  -6  -4 3890.46 998.260   1
  -1  -6   4 6084.06 929.033   6
  -1  -6   4 5285.02 1061.94   2
  -1   6   4 4178.39 1168.40   9
   1  -6  -4 4833.42 1124.11   8
  -1   6   4 5264.28 879.702   6
   1   6  -4 5401.15 931.616   7
   1   6  -4 2278.14 818.160  10
   1  -6  -3 40669.6 2984.41   1
   1  -6  -3 41827.6 2980.70   8
  -1  -6   3 47030.1 2162.69   6
   1   6  -3 43168.6 2442.88   7
   1  -6  -3 40579.4 2954.67  13
  -1   6   3 46089.8 2212.13   6
   1  -6  -3 41288.5 1906.12  10
  -1   6   3 45757.8 3292.65   4
  -1  -6   3 44163.9 3155.63   2
   1   6  -3 35447.6 2664.15  10
  -1   6   3 47156.3 3245.36   9
   1  -6  -2 1647.76 577.730   8
  -1   6   2 2382.51 658.111   9
   1  -6  -2 1693.66 342.869   5
  -1   6   2 1849.74 387.577   6
  -1  -6   2 1558.34 322.576   6
  -1   6   2 1618.18 652.373   4
  -1   6   2 1490.82 372.197   7
   1  -6  -2 1172.08 554.985  13
   1  -6  -2 1537.24 454.776  10
   1   6  -2 1385.56 350.632   7
   1  -6  -2 1442.38 613.957   1
   1   6  -2 1371.97 330.057   5
   1   6  -2 1410.84 488.710  10
   1   6  -1-257.507 232.535   4
   1  -6  -1-3.55095 28.6639   5
  -1   6   1 255.962 303.888  10
   1  -6  -1 891.803 451.496   1
  -1  -6   1 688.110 256.369   8
   1  -6  -1 293.326 355.300   8
  -1   6   1 1604.64 242.067   7
  -1  -6   1-152.006 262.821  13
  -1   6   1 409.358 306.411   4
   1  -6  -1 477.552 476.609  13
   1   6  -1 166.520 122.060   7
   1  -6  -1 29.8543 42.8258   5
   1   6  -1-198.172 159.924  10
   1   6   0 39567.5 2767.72   4
   1  -6   0 35479.6 2144.73   8
  -1  -6   0 34962.7 2559.10   8
  -1   6   0 36396.5 2558.92   4
  -1  -6   0 37248.0 2388.97  13
  -1   6   0 39209.4 2442.74  10
   1   6   0 39318.5 1634.84  10
   1  -6   0 36715.4 2563.34   3
   1  -6   1 26133.9 1170.30   6
  -1   6  -1 28046.7 2152.20   4
  -1   6  -1 28873.1 2217.79  10
   1   6   1 26462.1 2306.19   4
   1  -6   1 26592.0 1696.11   8
  -1  -6  -1 24163.3 2177.98   8
   1  -6   1 26857.6 1199.29   5
   1   6   1 27043.5 1270.56   6
   1   6   1 26112.1 1238.76   5
   1  -6   1 24867.8 2126.41   3
   1   6   2 8103.68 1318.29   4
  -1   6  -2 6113.22 1053.63   4
  -1  -6  -2 7802.81 1335.54   8
  -1   6  -2 7038.96 815.482   8
  -1   6  -2 7355.13 832.481   5
   1  -6   2 6379.64 785.871   5
  -1   6  -2 7133.84 1169.12  10
   1  -6   2 6713.91 1135.02   3
   1   6   2 6462.75 824.652   5
  -1   6  -3 184.576 152.579   7
   1  -6   3 3442.79 939.038   3
   1   6   3 483.436 328.055   4
   1   6   3 550.636 545.684   9
  -1  -6  -3 532.675 778.458   8
   1  -6   3 16728.7 2240.64   2
  -1   6  -3 15977.4 2488.41  10
   1  -6   3 930.404 601.094   5
   1   6   3 65.7365 393.576   5
  -1  -6  -4 9397.04 1433.79   1
  -1  -6  -4 10447.0 1644.85   8
   1   6   4 9675.42 1613.86   4
   1  -6   4 7935.64 1343.81   2
   1  -6   4 11267.6 1415.61   5
   1  -6   4 10000.4 1669.17  12
   1  -6   4 9519.63 1428.03   3
   1   6   4 9052.30 1340.81   5
  -1   6  -4 10539.4 1729.26  10
   1   6   4 11772.2 1442.25   9
  -1  -6  -5 34814.2 3213.31   8
  -1   6  -5 35697.3 2894.04  11
   1  -6   5 35661.5 3352.93  12
  -1  -6  -5 33507.1 2758.92   1
   1  -6   5 32629.6 2722.69   3
  -1   6  -5 34671.9 3416.19  10
   1   6   5 35654.2 2981.76   5
   1  -6   5 30836.0 2620.19   2
   1  -6   5 37867.6 2972.14   5
   1  -6   6 278.402 440.757   6
   1   6   6 378.602 335.894   6
  -1  -6  -6 636.928 425.332   8
  -1   6  -6 725.149 583.992  10
   1  -6   6 650.057 404.146  12
   1   6   7 1087.05 726.327   6
   1  -6   7 896.547 600.079   6
  -1   7   7 128.171 44.3114   9
  -1  -7   7-31.6134 99.3452  12
  -1   7   6 10.3876 296.163   9
   1   7  -6-394.199 338.823  10
   1  -7  -6 113.829 455.537   1
  -1  -7   6 772.110 436.295  12
  -1  -7   6 238.107 194.818   2
   1  -7  -6 742.839 578.006   8
   1  -7  -5 1242.84 734.644   8
   1  -7  -5 1495.09 812.772   1
   1   7  -5 1558.05 626.067   7
  -1  -7   5 4035.00 1267.92   2
   1   7  -5 8594.76 1753.95  10
  -1   7   5 7586.22 1644.34   9
   1   7  -4 7724.47 1174.42   7
   1  -7  -4 7280.43 1435.65   8
  -1   7   4 7341.81 1556.05   4
   1  -7  -4 7182.72 1397.10   1
  -1  -7   4 7966.61 1554.90   2
   1   7  -4 2708.85 888.818  10
  -1   7   4 4457.73 1358.26   9
   1  -7  -3 6863.44 1320.33   8
   1  -7  -3 7200.70 1371.19  13
   1   7  -3 6064.74 925.286   7
  -1  -7   3 5644.88 1224.28   2
  -1   7   3 7246.87 1449.01   4
   1   7  -3 6167.93 1207.91  10
   1  -7  -3 6863.36 1315.16   1
  -1   7   3 6269.72 1407.74   9
   1  -7  -2 25096.0 2429.22   1
  -1   7   2 26627.9 2666.68   4
   1  -7  -2 26982.6 2395.18   8
  -1  -7   2 20535.7 1827.45  13
   1  -7  -2 22160.9 2176.81  13
   1   7  -2 28158.8 1935.02   7
   1   7  -2 24426.1 2039.72  10
   1   7  -1 32109.4 2688.00   4
  -1   7   1 29545.7 2590.46   4
  -1  -7   1 33684.2 2518.75   8
   1  -7  -1 33568.6 2479.63   8
  -1  -7   1 38882.8 2497.86  13
  -1   7   1 29671.1 2029.01  10
   1   7  -1 33116.9 2149.48   7
   1  -7  -1 31806.6 2452.43  13
   1   7  -1 37024.1 2150.36  10
   1   7   0 24957.1 2407.79   4
  -1  -7   0 23026.0 2222.02   8
   1   7   0 26157.8 1448.24  10
   1  -7   0 23780.4 1918.48   8
  -1  -7   0 24332.6 2162.06  13
  -1   7   0 26388.9 2322.28   4
  -1   7   0 27413.5 2085.98  10
  -1   7  -1 725.088 397.272   4
   1  -7   1 845.676 533.936   3
   1  -7   1 520.969 285.994   8
  -1   7  -1 1189.02 558.989  10
   1   7   1 801.709 385.385   4
  -1  -7  -1 809.593 567.405   8
  -1   7  -2 19374.9 1949.76   4
  -1  -7  -2 20550.9 2322.54   8
   1   7   2 20911.3 2339.97   4
  -1   7  -2 18314.5 2043.03  10
   1  -7   2 19432.9 2086.44   3
   1   7   3 1557.44 895.973   4
   1  -7   3 651.899 537.015   3
  -1   7  -3 641.029 317.209   4
  -1  -7  -3 1026.76 458.052   8
  -1   7  -3 2135.54 1174.26  10
  -1   7  -4 19488.9 2426.55  10
   1   7   4 20766.4 2581.12   4
  -1  -7  -4 17057.8 2239.27   8
   1  -7   4 18141.1 2148.87   2
   1  -7   4 19097.0 2384.82  12
   1  -7   4 18261.6 2115.55   3
   1  -7   5-176.713 388.354   3
   1  -7   5-230.891 356.185  12
  -1  -7  -5-179.291 284.433   8
  -1   7  -5-103.075 71.9494  10
   1  -7   5-39.7784 238.278   2
   1  -7   6 5861.60 1564.29  12
  -1  -7  -6 8127.71 1759.81   8
   1  -8  -6 95.7716 302.813   1
  -1   8   6-532.049 523.826   9
  -1  -8   6 227.091 252.470   2
  -1  -8   6 332.044 491.590  12
   1   8  -6-600.270 677.776  10
  -1  -8   5 491.010 526.985   2
   1  -8  -5 186.249 289.458   8
   1  -8  -5 753.894 627.983   1
   1   8  -5-607.596 534.492  10
  -1  -8   4 3124.68 994.226   2
   1  -8  -4 1987.82 917.754   8
   1  -8  -4 2844.73 1074.30   1
  -1   8   4 1943.58 1072.88   4
  -1   8   4 3003.55 900.686   9
   1   8  -4 2071.47 785.237  10
   1  -8  -3 16340.8 2229.83  13
   1  -8  -3 16104.5 2134.34   8
  -1   8   3 19342.7 2470.23   4
  -1  -8   3 15747.8 2080.13   2
   1   8  -3 14735.4 1877.60  10
   1  -8  -3 16145.8 2119.33   1
  -1   8   3 16731.1 2404.42   9
   1  -8  -2-115.939 212.736  13
  -1   8   2 71.7935 125.991   4
   1   8  -2 109.596 234.954   4
   1  -8  -2-260.829 370.070   8
  -1  -8   2-311.504 319.970  13
   1   8  -2-374.947 327.664  10
   1  -8  -1 104.009 258.228   8
  -1  -8   1 275.805 80.2563   8
  -1  -8   1 880.371 461.803  13
   1  -8  -1 393.553 235.516  13
  -1   8   1 1051.21 558.224   4
   1   8  -1 472.305 305.149   4
   1   8  -1 329.673 136.268  10
   1   8  -1 444.687 295.052   7
  -1   8   1 77.6333 84.3986  10
   1   8   0 13305.3 1903.61   4
  -1  -8   0 11936.6 1729.27   8
  -1  -8   0 12784.6 1740.41  13
   1  -8   0 13379.9 1577.99   8
  -1   8   0 14923.5 1920.61   4
  -1   8   0 14358.9 1633.06  10
  -1   8  -1 11295.8 1649.43   4
   1  -8   1 9437.88 1209.11   8
  -1  -8  -1 11238.0 1766.28   8
  -1   8  -1 12581.4 1621.41  10
   1   8   1 9801.87 1642.50   4
   1  -8   2 2368.73 854.234   3
  -1  -8  -2 1941.68 736.999   8
   1   8   2 1292.68 657.215   4
  -1   8  -2 2152.83 721.433  10
  -1   8  -2 2391.77 768.767   4
   1  -8   3 1998.34 863.808   2
   1   8   3 4433.13 1814.00   4
  -1   8  -3 1409.34 661.992   4
  -1  -8  -3 1002.99 582.211   8
   1  -8   3 7612.78 1684.64   3
  -1   8  -3 7092.46 1651.39  10
   1  -8   4 3475.43 967.425   3
   1  -8   4 3703.30 1033.56   2
  -1   8  -4 2886.01 844.752   4
  -1   8  -4 3741.79 1098.09  10
   1  -8   4 4519.35 1294.63  12
   1   8   4 4663.32 1262.63   4
  -1  -8  -4 2863.03 1018.29   8
   1  -8   5 14244.9 2359.96  12
   1   8   5 15536.6 2514.95   4
   1  -8   5 15284.9 2173.38   2
   1  -8   5 14088.2 2013.43   3
  -1  -8  -5 14120.9 2233.96   8
  -1   8  -5 16107.0 2501.99  10
   1  -9  -5 383.076 590.838   1
  -1  -9   5 1336.85 844.788   2
  -1   9   5 4565.36 1583.69   9
   1   9  -5 3378.42 1344.12  10
  -1   9   4 77.6569 373.097   4
  -1  -9   4 306.828 648.296   2
   1  -9  -4 742.535 1207.05   1
  -1   9   4 276.096 59.6627   9
   1  -9  -4 1156.62 1094.34   8
   1   9  -4 426.121 439.985  10
   1   9  -3 991.232 611.331   4
  -1  -9   3 333.533 337.387  13
  -1  -9   3 1594.91 713.310   2
   1  -9  -3 1829.88 944.998  13
  -1   9   3 1650.26 799.018   4
   1  -9  -3 387.372 241.016   8
   1   9  -3 991.277 532.611  10
  -1  -9   2 462.957 312.922  13
   1   9  -2 158.691 271.063   4
   1  -9  -2-885.271 573.010   8
  -1   9   2-52.6570 146.065   4
   1  -9  -2 556.300 659.306  13
   1   9  -1 15451.4 2136.63   4
  -1   9   1 15200.2 2209.51   4
  -1  -9   1 16777.8 2037.79   8
   1  -9  -1 17216.5 1987.58   8
  -1  -9   1 20012.1 2182.97  13
   1  -9  -1 20545.3 2366.23  13
   1   9   0 247.945 381.511   4
  -1  -9   0-52.1516 144.532   8
   1  -9   0-48.4961 210.906   8
  -1   9   0 243.842 13.8459  10
  -1   9   0 50.6594 281.706   4
   1  -9   0-115.373 412.054  13
   1  -9   1 381.949 286.523   8
  -1  -9  -1 518.387 489.383   8
  -1   9  -1 367.365 311.456   4
   1   9   1 175.663 450.926   4
  -1   9  -1 204.986 269.587  10
  -1   9  -2 87.6203 112.879  10
  -1   9  -2 102.700 170.749   4
  -1  -9  -2 333.013 255.224   8
   1   9   2 474.447 494.110   4
  -1  -9  -3-76.2037 204.396   8
   1   9   3 292.220 503.189   4
   1  -9   3-246.843 220.890   2
  -1   9  -3 250.905 472.037   4
  -1   9  -3-182.393 252.633  10
   1  -9   4 1428.79 664.160   3
   1  -9   4 648.045 623.929   2
  -1  -9  -4 1080.58 695.515   8
   1  -9   4 265.259 255.641  12
   1   9   4 483.904 598.576   4
  -1   9  -4 1977.63 845.863  10
   1  10  -4-3.01941 269.036   4
   1 -10  -3-72.5382 437.085   8
  -1 -10   3 88.8008 228.297   2
  -1  10   3-157.470 41.6050   4
   1 -10  -2 13.0610 313.175  13
   1 -10  -2-300.813 504.765   8
  -1 -10   2-193.669 323.023  13
  -1 -10   2 0.60169 152.470   2
  -1  10   2-525.910 468.619   4
   1  10  -2-13.1022 185.171   4
   1  10  -1 16648.7 2401.89   4
  -1 -10   1 21355.9 2461.43   8
  -1  10   1 18298.8 2591.25   4
   1 -10  -1 19999.8 2369.00   8
   1 -10  -1 25579.0 2780.08  13
  -1 -10   1 28405.5 2839.42  13
  -1 -10   0 4306.22 1127.27   8
   1 -10   0 3336.90 832.983   8
  -1  10   0 4293.21 1185.86   4
   1  10   0 3639.93 1015.31   4
   1 -10   0 2522.66 908.320  13
  -1 -10   0 4792.69 1378.53  13
   1  10   1 1140.93 802.046   4
  -1 -10  -1 565.895 322.418   8
  -1  10  -1 483.786 245.538   4
  -1  10  -2 363.595 475.906  10
  -1  10  -2 648.381 436.194   4
  -1 -10  -2 1796.18 728.238   8
   1  10   2 1278.19 859.056   4
   1 -10   3 3089.49 986.467   2
  -1  10  -3 1988.28 802.509   4
  -1  10  -3 1744.48 733.197  10
   1 -10   4 1279.86 681.290   2
   1 -11  -2 978.760 630.357   8
  -1 -11   1 5581.36 1246.23   8
   1 -11  -1 5466.10 1442.54   8
  -1  11   1 5499.73 1591.94   4
  -1 -11   0 975.172 568.147   8
   1 -11   0 898.942 632.081  13
  -1  11   0 982.838 514.448   4
  -1 -11  -1 211.098 134.614   8
   1 -11   1-792.734 653.681  13
  -1  11  -1-357.096 407.075   4
  -1  11  -2 637.218 237.785   4
   2   0  -9-232.990 398.309   8
  -2   0   8 3329.05 1018.23   6
  -2   0   8 4104.68 1138.15   9
   2   0  -8 3386.09 995.930   8
   2   0  -8 3070.12 975.327   7
  -2   0   7 3800.61 1057.16   6
   2   0  -7 3806.15 1011.58   7
  -2   0   7 2829.63 935.097   9
  -2   0   6 29825.3 2965.85   9
  -2   0   6 24454.9 1761.21  12
  -2   0   6 25002.2 2873.61   6
  -2   0   5 26893.4 2301.11   9
  -2   0   5 25952.3 1742.99  14
  -2   0   5 27346.8 1474.35  12
  -2   0   5 24013.0 2156.55   6
   2   0  -5 26121.6 2212.44   7
  -2   0   4 718.323 319.168   6
  -2   0   4 508.347 335.764   9
  -2   0   4 234.919 29.6485  13
   2   0  -4 395.084 252.032   7
  -2   0   4-42.4397 151.792  14
  -2   0   4 272.944 132.076  12
  -2   0   3 56499.9 2648.03   9
  -2   0   3 56790.6 2510.90  14
  -2   0   3 58621.0 2686.24   6
   2   0  -3 54768.0 1196.55   3
   2   0  -3 59366.0 2671.21   7
  -2   0   2 26514.9 1557.25   9
   2   0  -2 26797.6 1667.86   9
   2   0  -2 22149.2 1074.02  11
  -2   0   2 25626.3 1599.44  14
   2   0  -2 16262.8 1291.60   7
  -2   0   2 17182.7 1463.09   7
   2   0  -2 25308.9 1551.98   6
  -2   0   2 20864.6 1734.45   6
  -2   0   1 6225.97 739.258   6
  -2   0   1 6873.86 651.688   9
   2   0  -1 6131.06 609.759   9
  -2   0   1 6612.44 763.901  14
   2   0  -1 6012.82 782.652  14
  -2   0   1 6463.21 538.025  12
  -2   0   1 6813.58 632.632  11
   2   0  -1 6019.64 615.924  11
   2   0  -1 6727.73 797.906  10
   2   0  -1 6235.37 507.176  12
   2   0  -1 6701.29 741.961   6
   2   0   0 218599. 4415.31   6
   2   0   0 207695. 3577.96   8
   2   0   0 223062. 2991.36   2
   2   0   0 216137. 4471.49   5
  -2   0   0 216692. 4288.68  14
   2   0   0 218135. 2981.76   9
   2   0   0 209562. 3950.55  12
  -2   0   0 229888. 4446.93  10
  -2   0   0 204906. 4182.54  11
   2   0   0 227882. 4489.06  11
  -2   0   0 219411. 4084.40  12
   2   0   0 215278. 4267.85  14
   2   0   0 216140. 4182.13  10
  -2   0   0 220843. 3023.25   9
   2   0   1 163526. 1893.62   4
   2   0   1 167693. 4310.65   5
   2   0   1 170084. 3204.76   8
  -2   0  -1 162928. 4320.31  11
  -2   0  -1 175536. 4113.82  10
   2   0   1 172776. 4004.84  10
  -2   0  -1 164503. 3573.15  14
   2   0   1 168023. 4227.98  12
   2   0   1 169221. 2754.74   9
   2   0   2 313248. 6634.70   5
   2   0   2 317048. 4628.12   8
  -2   0  -2 308361. 6917.48  11
  -2   0  -2 312708. 4435.01  14
   2   0   2 315412. 6691.50  12
  -2   0  -2 305772. 4646.00   8
  -2   0  -2 324657. 6163.62  10
  -2   0  -3 3789.50 470.240   4
   2   0   3 3314.60 858.048  12
  -2   0  -3 3823.08 585.366   8
   2   0   3 3918.90 584.614   8
  -2   0  -3 3473.51 683.621  10
  -2   0  -3 3399.46 831.146  11
  -2   0  -3 3759.65 428.164  14
   2   0   3 4199.07 832.106   5
   2   0   4 1273.65 536.409  12
  -2   0  -4 461.351 549.303  11
  -2   0  -4 802.957 293.930   8
   2   0   4 1265.35 417.019   5
  -2   0  -4 631.684 291.937  10
  -2   0  -5 9539.16 1146.56   8
   2   0   5 10331.4 1718.64   5
   2   0   5 8289.54 1434.49  12
  -2   0  -5 13392.0 2113.14  11
  -2   0  -5 11132.9 1540.62  10
   2   0   6 7331.94 1224.85   9
   2   0   6 8148.83 1608.89   5
   2   0   6 5910.20 1275.80  12
  -2   0  -6 7869.44 1604.65  11
  -2   0  -6 6597.52 1335.42  10
   2   0   7 2415.35 1021.16  12
  -2   0  -7 3363.00 1051.86  10
  -2   0  -7 2671.67 1061.99  11
   2   0   7 3408.75 1182.92   5
   2   1  -9 4049.47 1121.55   8
   2  -1  -9 3893.91 1062.98   8
   2  -1  -8 710.644 486.249   7
  -2  -1   8-21.9359 393.365   6
  -2   1   8 963.429 539.078   6
   2  -1  -8 200.169 421.267   8
  -2   1   8-219.478 505.584   9
  -2  -1   8 619.601 548.571   9
   2   1  -8 1052.20 638.504   7
  -2  -1   7 2751.05 796.089   6
  -2   1   7 2210.20 767.588   6
  -2   1   7 1946.74 585.940   9
  -2  -1   7 2623.82 945.143   9
   2   1  -7 2243.10 888.658   7
   2  -1  -7 2464.04 793.091   7
   2  -1  -7 2605.30 784.079   8
  -2   1   6 10085.8 1484.14   9
  -2  -1   6 13240.1 1781.88   9
  -2   1   6 10873.7 1582.22   6
   2   1  -6 12491.6 1668.33   7
  -2   1   6 11497.7 1084.69  12
  -2  -1   6 11503.4 1176.74  14
   2  -1  -6 10312.5 1597.32   7
  -2  -1   6 11883.9 1198.26  12
  -2  -1   6 9311.71 1468.48   6
  -2  -1   5 13723.0 1128.42  12
  -2   1   5 13417.7 1566.97   9
  -2  -1   5 13832.2 1730.38   9
   2  -1  -5 13810.6 1578.08   7
  -2  -1   5 13534.6 1266.05  14
  -2   1   5 14181.8 1352.50  14
  -2  -1   5 12968.9 1224.50  13
  -2   1   5 13756.1 1007.00  12
   2   1  -5 13907.0 1641.69   7
  -2   1   5 13889.3 1623.07   6
  -2  -1   5 13897.7 1595.20   6
  -2   1   4 7231.90 1062.20   9
  -2  -1   4 7708.21 1194.47   9
  -2   1   4 7338.93 546.351  12
  -2  -1   4 6980.02 710.441  13
  -2  -1   4 6792.17 874.078  14
  -2   1   4 6707.97 920.147  14
  -2  -1   4 7106.30 709.982  12
   2   1  -4 7639.46 1090.32   7
   2  -1  -4 6756.99 985.112   7
  -2  -1   4 7148.43 1064.76   6
  -2   1   4 5911.76 915.501   6
  -2   1   3 2809.81 628.983   9
  -2  -1   3 2624.71 538.594   6
  -2   1   3 2428.67 559.600   6
  -2  -1   3 2966.14 719.733   9
   2   1  -3 2616.44 636.319   7
  -2  -1   3 2632.10 551.279  14
   2  -1  -3 3617.33 579.790  13
  -2   1   3 2363.52 487.544  14
   2  -1  -3 2844.54 553.507   7
   2  -1  -3 2852.67 385.064   3
  -2   1   2 294.901 162.138   9
   2  -1  -2-84.2474 44.8894   9
  -2   1   2 290.686 234.069   6
  -2  -1   2 468.176 299.329   9
  -2  -1   2 128.194 71.8939   6
  -2  -1   2 251.827 269.560  14
  -2   1   2-24.6292 127.090  14
   2  -1  -2-36.1449 23.3741   6
   2  -1  -2 221.804 160.614  11
  -2   1   2 89.5164 28.9102   7
   2   1  -2 113.085 34.7650  11
   2  -1  -2 20.8678 82.9529   7
   2  -1  -2 270.816 245.511  14
   2   1  -2 147.401 237.760   7
   2   1  -2 173.147 213.292   2
   2   1  -2 266.754 16.0935   6
  -2   1   1 24611.5 1414.78   9
  -2  -1   1 23101.4 1396.71   6
  -2   1   1 24940.6 1489.64   6
  -2  -1   1 23005.4 1499.95  14
   2  -1  -1 23524.3 1327.53   9
  -2  -1   1 22035.9 1103.86   9
   2  -1  -1 21852.6 1002.02  12
   2  -1  -1 26828.6 1420.01   7
   2  -1  -1 24082.8 1521.01  10
  -2   1   1 22513.2 1476.40  14
   2   1  -1 22422.1 1258.86   2
  -2   1   1 23594.8 1411.66  11
   2  -1  -1 23942.8 1376.12  11
  -2  -1   1 22339.4 1071.08  11
  -2  -1   1 23823.6 1214.70  12
   2   1  -1 27132.6 1561.38   6
   2  -1  -1 26041.9 1528.08   6
   2  -1  -1 24336.9 1525.44  14
  -2  -1   0 74976.6 1239.28   9
   2  -1   0 72844.6 2139.17   9
   2   1   0 72587.2 2622.70   6
   2  -1   0 75587.1 2613.13   6
   2   1   0 76462.7 2470.00   8
   2  -1   0 77075.2 2638.11   5
   2   1   0 77383.9 2699.56   5
   2   1   0 70180.2 2468.38  12
  -2   1   0 74124.4 2535.17  14
  -2  -1   0 68423.9 1848.52   2
   2  -1   0 73295.7 2344.62  12
   2  -1   0 76468.5 2588.45  14
  -2  -1   0 69557.7 2605.79  14
   2  -1   0 76250.9 2649.07  10
  -2   1   0 72089.0 2561.41  11
   2  -1   0 81003.4 2820.10  11
  -2  -1   0 72751.9 2477.63  11
  -2   1   0 76403.5 2748.84  10
  -2  -1   0 76255.8 2579.64  12
  -2   1   0 79600.3 2501.18  12
   2   1   0 76560.7 2337.07  10
  -2   1   0 78067.1 2279.16   9
   2   1   1 4816.99 494.554   4
   2  -1   1 4506.27 690.559   5
  -2  -1  -1 5157.43 663.587   8
   2  -1   1 5064.01 429.602   8
   2   1   1 4119.55 627.613   5
  -2   1  -1 5490.73 816.143  10
  -2   1  -1 5233.08 787.689  11
  -2  -1  -1 3843.01 340.657   2
   2   1   1 4974.73 732.154  12
   2  -1   1 4890.40 708.789  12
  -2  -1  -1 5183.89 754.032  14
   2   1   1 4527.18 607.507   8
   2  -1   1 5520.62 656.034  14
  -2  -1  -1 5582.21 658.026  10
   2   1   1 5385.33 652.098  10
  -2   1  -1 5719.92 673.970  14
   2   1   1 4578.10 352.629   1
   2  -1   1 5359.35 625.696   9
   2  -1   2 119404. 2926.21  14
  -2  -1  -2 88249.9 2920.64   8
   2   1   2 94424.7 2442.83   4
   2   1   2 92463.5 3010.73   8
   2  -1   2 95011.0 1907.59   8
  -2  -1  -2 91465.3 2687.67  14
  -2   1  -2 93605.2 3753.17  11
  -2   1  -2 95610.4 2581.12  14
   2  -1   2 92787.2 3605.92   5
   2   1   2 95874.6 3698.86   5
   2   1   2 128901. 4291.30  12
   2  -1   2 135101. 4438.77  12
  -2  -1  -2 98271.5 3127.13  10
  -2   1  -2 92023.2 3557.32  10
   2   1   2 97657.0 3152.06  10
  -2  -1  -3 6432.47 717.619   4
   2   1   3 7245.77 791.212   9
  -2   1  -3 6541.60 552.000   4
  -2  -1  -3 6544.99 500.861   2
  -2  -1  -3 7037.77 658.758  14
  -2  -1  -3 7625.49 980.029  10
  -2  -1  -3 6649.94 863.986   8
   2   1   3 7495.22 1110.57   5
   2   1   3 6799.54 1102.97  12
   2  -1   3 7268.98 1094.83  12
  -2   1  -3 6508.74 1096.31  11
   2  -1   3 6472.12 1052.70   5
  -2   1  -3 6734.38 604.607   8
  -2   1  -3 6448.55 1004.62  10
  -2  -1  -4 23499.1 1110.17   1
   2   1   4 25328.1 1696.57   9
  -2   1  -4 25665.9 1388.73   8
  -2  -1  -4 24129.1 1799.25   8
  -2  -1  -4 21658.8 811.502  14
   2  -1   4 26344.4 2419.06   5
   2   1   4 27472.2 2456.64   5
   2   1   4 24064.3 2234.88  12
   2  -1   4 24352.5 2274.10  12
  -2   1  -4 26960.9 2502.74  11
  -2  -1  -4 24534.7 1928.92  10
  -2   1  -4 22412.0 2084.60  10
   2   1   5 3562.59 898.699   9
  -2  -1  -5 5918.59 1060.67   8
  -2  -1  -5 6023.47 1130.87  10
   2   1   5 2659.29 849.749  12
  -2   1  -5 5309.62 1165.32  10
   2  -1   5 3920.69 1121.86  12
   2  -1   5 3866.66 1242.66   5
   2   1   5 4016.19 1353.43   5
   2  -1   6 2655.16 930.340  12
   2   1   6 1908.43 763.892  12
  -2   1  -6 2092.42 808.575  10
  -2  -1  -6 3835.76 1357.09  11
  -2   1  -6 1822.81 879.637  11
  -2  -1  -6 2620.37 775.299  10
   2  -1   6 3113.95 1012.16   5
   2   1   6 2357.06 882.299   5
   2   1   7 5925.42 1470.36  12
   2  -1   7 5820.31 1348.57  12
   2   1   7 6138.04 1764.19   5
  -2   1  -7 8177.17 1606.34  10
   2  -1   7 6262.74 1683.78   5
  -2   1  -7 7685.74 1738.70  11
  -2  -1  -7 6808.64 1707.06  11
   2  -2  -9 832.610 611.363   8
  -2  -2   8 272.727 226.599   6
  -2   2   8 363.267 431.947   6
  -2  -2   8 971.763 641.736   9
   2   2  -8 285.679 441.327   7
  -2   2   8-90.3747 266.050   9
   2  -2  -8 64.5538 196.072   7
   2  -2  -8 62.7253 122.345   8
  -2  -2   7 5245.46 1138.42   6
  -2   2   7 5402.14 1173.80   6
  -2   2   7 6128.07 1335.06   9
  -2  -2   7 6995.88 1436.46   9
  -2  -2   7 6707.05 1108.84  12
   2   2  -7 8215.33 1544.45   7
   2  -2  -7 6654.45 1317.95   8
   2  -2  -7 5035.36 1239.79   7
   2  -2  -6 6983.52 1409.60   8
   2  -2  -6 8633.03 1567.69   7
  -2   2   6 14644.3 1313.23  12
   2   2  -6 7729.66 1362.30   7
  -2  -2   6 12806.6 1391.90  12
  -2  -2   6 11794.7 1299.86  14
  -2  -2   6 12921.3 1870.38   6
  -2   2   6 10108.9 1721.46   6
  -2   2   5 4809.24 954.063   6
  -2   2   5 4295.58 918.936   9
   2  -2  -5 4746.23 1136.44   7
   2  -2  -5 4360.53 574.111  12
  -2  -2   5 4709.92 776.274  12
   2   2  -5 6171.68 1115.40   7
  -2  -2   5 4996.20 834.866  14
   2   2  -5 7770.38 759.071  11
  -2  -2   5 4625.37 940.058   6
   2  -2  -5 5163.77 1036.98   8
  -2   2   4 36037.4 2418.54   9
  -2  -2   4 34114.8 2030.11  14
   2   2  -4 38576.7 2484.52   7
  -2   2   4 34472.1 2263.34   6
   2  -2  -4 35416.5 1330.71  12
  -2  -2   4 34354.7 2244.00   6
   2  -2  -4 35426.1 2239.60   7
  -2   2   3 18010.6 1575.15   9
   2  -2  -3 18388.4 804.978  12
   2  -2  -3 20150.8 1472.58   7
  -2  -2   3 20183.4 1574.64  14
   2  -2  -3 18585.5 1416.24  13
   2   2  -3 21236.2 1723.24   7
  -2   2   3 19251.1 1553.96  14
  -2  -2   3 22134.4 1651.95   6
  -2   2   3 19023.8 1544.43   6
   2   2  -3 18848.3 811.170   3
   2  -2  -3 17722.9 1158.81   3
  -2   2   2 193388. 4863.78   9
   2  -2  -2 143755. 3815.97   6
  -2  -2   2 218637. 4856.61   2
  -2   2   2 173973. 4606.60  14
   2   2  -2 208744. 4337.27   6
   2  -2  -2 172105. 3879.27   7
   2   2  -2 184022. 4856.88   7
  -2   2   2 182525. 4128.00   7
   2  -2  -2 191337. 3819.12   3
  -2  -2   2 198474. 4888.94   6
  -2   2   2 207217. 4962.49   6
  -2  -2   1 484.096 211.124   2
  -2   2   1 593.091 259.752   9
   2  -2  -1 977.470 286.978   9
   2   2  -1 889.377 285.089   6
   2  -2  -1 721.502 276.893   6
   2  -2  -1 741.234 224.199  11
  -2  -2   1 1038.12 306.645   6
  -2   2   1 977.161 291.846   6
   2  -2  -1 780.474 231.130   7
  -2  -2   1 692.717 232.430  12
   2  -2  -1 890.985 238.838   4
   2  -2  -1 847.836 237.298  12
  -2   2   1 1079.33 352.682  10
  -2   2   1 807.016 306.657  14
   2   2   0 5821.78 741.295   6
   2  -2   0 5416.16 720.717   6
  -2  -2   0 4945.76 357.606   9
   2  -2   0 5416.88 472.327   4
  -2  -2   0 4509.36 663.913   8
  -2  -2   0 4735.45 567.304   2
   2  -2   0 4672.58 541.999   1
   2   2   0 5728.40 731.388   5
   2  -2   0 5382.47 703.023  14
  -2   2   0 5354.77 720.427  14
   2   2   0 5458.13 736.822  12
   2  -2   0 5431.24 684.792  12
  -2   2   0 5449.48 787.896  11
   2   2   0 5847.48 635.432  10
  -2   2   0 6022.65 811.190  10
  -2  -2   0 6117.88 830.039  12
   2  -2   0 5183.46 701.597   5
   2  -2   0 4855.37 650.138   9
   2   2   1 50804.3 2067.83   4
   2  -2   1 48012.6 973.374   8
  -2  -2  -1 53142.4 2453.76   8
  -2   2  -1 50403.3 2509.25  11
  -2   2  -1 55672.6 2748.74  10
   2  -2   1 49006.0 2073.76  14
   2   2   1 53257.3 2460.18   5
   2  -2   1 49905.9 2357.90  12
   2   2   1 50577.8 2512.82  12
  -2  -2  -1 56125.7 1944.71  10
   2   2   1 54127.7 1865.65  10
   2  -2   1 50553.2 2352.68   5
   2   2   1 53935.7 1741.25   1
   2  -2   1 51945.7 2277.34   9
  -2   2  -2 63098.4 3121.21  11
  -2   2  -2 65604.9 1840.79   1
   2   2   2 64859.6 2434.91   4
  -2  -2  -2 59991.2 2718.50   8
   2  -2   2 63820.3 2303.14  14
   2  -2   2 62337.4 2924.11   5
   2  -2   2 58957.4 1708.86   2
   2   2   2 64256.5 3007.87   5
  -2  -2  -2 65999.6 2321.34  10
   2   2   2 62238.9 1375.05   9
  -2   2  -2 61726.7 3084.80  10
   2   2   2 65406.5 2323.06  10
   2   2   3 417.144 218.155   9
   2  -2   3-61.0485 60.6190  14
  -2  -2  -3-235.126 213.121   8
   2   2   3-29.0207 73.7659  12
  -2   2  -3 198.102 114.834   1
   2   2   3-328.157 236.236   4
   2  -2   3-158.499 260.266  12
  -2   2  -3 309.969 235.059  11
   2  -2   3-13.5677 142.257   5
   2   2   3 435.856 364.001   5
  -2  -2  -3-166.601 60.8618  10
  -2   2  -3-28.6131 80.7073  10
   2   2   4 7070.84 798.397   9
   2  -2   4 8509.39 1341.89   5
  -2  -2  -4 8329.25 1158.24   8
  -2  -2  -4 8873.20 1103.30  10
  -2  -2  -4 9374.38 805.590  14
   2   2   4 10172.9 1530.34   5
   2   2   4 9948.64 1488.22  12
   2  -2   4 8561.49 1364.86  12
  -2  -2  -4 8967.72 804.027   1
  -2   2  -4 7656.17 1243.60  11
  -2   2  -4 9664.43 1432.25  10
   2   2   5 7499.78 1429.04   5
   2   2   5 4740.10 773.939   9
  -2  -2  -5 5993.51 1073.63   8
   2  -2   5 8679.35 1508.98   5
   2   2   5 6780.39 1314.49  12
   2  -2   5 6281.56 1261.23  12
  -2   2  -5 6237.71 1237.76  11
  -2  -2  -5 5876.25 986.093  10
  -2   2  -5 6741.57 1290.59  10
  -2  -2  -6 211.092 293.761   8
   2   2   6 914.157 725.285  12
   2  -2   6 22.5580 410.328  12
  -2   2  -6-446.943 516.164  11
  -2   2  -6 436.158 530.368  10
   2  -2   6 27.6808 26.7521   5
   2   2   6-619.055 526.782   5
  -2   2  -7 3917.41 1214.64  10
   2  -2   7 3656.44 1141.97   5
   2   2   7 2553.05 1003.99  12
   2  -2   7 3171.92 1137.54  12
  -2   2  -7 1796.48 703.948  11
  -2  -2  -7 4400.75 1512.17  11
   2   2   7 3157.67 1184.32   5
   2  -3  -8 431.577 483.210   8
  -2  -3   8-350.401 49.9073   6
  -2   3   8 275.462 363.428   6
  -2  -3   8 1308.60 850.423   9
   2  -3  -8-10.7536 328.762   7
  -2   3   8-1071.89 588.101   9
   2   3  -8 347.987 268.686   7
  -2  -3   7 3833.97 999.059   6
  -2   3   7 3474.30 1018.30   6
  -2   3   7 4130.58 1106.69   9
   2   3  -7 4544.24 1142.45   7
   2  -3  -7 4168.72 1089.92   8
  -2  -3   7 4143.20 852.933  12
   2  -3  -7 3575.10 1012.53   7
  -2  -3   6 916.140 421.735   6
  -2   3   6 636.012 360.331   6
  -2   3   6 1251.42 604.185   9
  -2  -3   6 1054.71 444.841  14
   2  -3  -6 1165.75 551.588   8
   2   3  -6 1064.32 419.768   7
   2  -3  -6 1028.23 539.115   7
  -2  -3   6 636.104 320.692  12
  -2   3   5 8776.04 1358.90   9
  -2  -3   5 8856.34 1121.18  14
   2   3  -5 9187.01 1406.96   7
   2  -3  -5 8081.66 1364.78   8
   2  -3  -5 8873.21 891.245  12
  -2  -3   5 7288.72 1085.88  12
   2   3  -5 7450.21 455.043  11
   2  -3  -5 7606.51 1330.65   7
  -2  -3   5 8131.07 1196.89   6
  -2   3   5 8358.71 1255.06   6
  -2   3   4 2041.45 568.447   9
  -2  -3   4 1667.49 496.516   6
  -2   3   4 1413.29 386.523   6
   2  -3  -4 1654.74 333.802  12
   2  -3  -4 1131.81 354.703   8
   2  -3  -4 1180.64 394.204   7
   2   3  -4 1698.73 516.793   7
  -2   3   3 94585.4 3915.58   9
   2  -3  -3 94197.3 3779.71   8
  -2  -3   3 83252.0 3524.91   2
   2  -3  -3 85030.5 3256.89  13
   2  -3  -3 93117.4 2452.53  12
   2  -3  -3 92131.7 3146.42   7
   2   3  -3 101574. 3874.91   7
  -2  -3   3 101553. 3599.94   6
  -2   3   3 96973.8 3484.16   6
   2   3  -3 91664.3 2370.87   3
   2  -3  -3 86454.5 2954.30   3
  -2   3   2 14821.9 1446.44   9
   2  -3  -2 13140.7 1257.41   8
   2  -3  -2 14278.9 1130.47   6
   2  -3  -2 13285.5 1013.72   7
  -2   3   2 10581.2 987.417   7
   2   3  -2 12494.5 1323.60   7
  -2  -3   2 16505.7 1402.79   2
   2  -3  -2 13842.1 1228.80   3
   2   3  -2 13443.5 1151.45   6
  -2  -3   2 13832.5 1239.35   6
  -2   3   2 11795.2 1185.87   6
  -2  -3   1 119824. 3218.69   6
  -2   3   1 132191. 3471.13   6
   2  -3  -1 119748. 3243.32   4
   2  -3  -1 122452. 3301.09   8
   2   3  -1 114031. 2445.39  13
   2   3  -1 140069. 3657.75   6
  -2  -3   1 108321. 3535.73   2
  -2   3   1 126964. 3910.77  10
   2  -3  -1 128863. 2569.66   7
   2  -3  -1 134241. 3575.38   6
  -2   3   1 133467. 4194.28   9
   2   3   0 17864.4 1331.17   6
   2  -3   0 19290.0 1326.92   6
   2  -3   0 19867.0 1143.42   4
  -2  -3   0 18163.3 1511.66   8
  -2   3   0 20545.7 1231.52   4
   2  -3   0 21005.0 1087.50   8
   2  -3   0 20265.9 1339.90   5
   2   3   0 22409.2 1200.57  10
   2   3   0 21087.2 1416.68   5
   2  -3   0 19739.8 1392.80  12
  -2   3   0 19897.8 1606.94  11
  -2   3   0 21694.2 1661.57  10
   2  -3   0 19631.9 1330.49   1
  -2  -3  -1 53638.8 1088.28   9
   2   3   1 53897.1 2532.93   4
   2   3   1 57606.0 2550.91   5
  -2   3  -1 60805.6 1768.38   4
  -2  -3  -1 55199.4 2788.95   8
   2  -3   1 53141.7 1036.23   8
   2  -3   1 57369.4 1939.35   7
   2   3   1 54741.9 2836.98  12
   2  -3   1 54624.4 2626.90  12
  -2   3  -1 54014.8 2784.39  11
  -2   3  -1 58372.8 2996.15  10
   2   3   1 60613.0 1728.86  10
   2  -3   1 56764.9 2501.42   5
   2   3   1 57676.1 2256.64   1
  -2   3  -2 24630.1 1081.86   4
  -2   3  -2 25473.6 1463.72   1
   2   3   2 22689.8 1684.05   4
  -2  -3  -2 21688.4 1795.97   8
   2  -3   2 24771.2 1835.88   5
   2   3   2 23580.3 1840.67   5
   2  -3   2 24334.8 1545.78   7
   2  -3   2 26520.7 2081.25  12
  -2  -3  -2 25986.3 1240.65  10
  -2   3  -2 23593.6 2061.21  10
   2   3   2 23644.9 1203.64  10
  -2   3  -2 23008.4 1926.39  11
   2   3   2 21257.2 908.272   9
   2   3   3 7923.67 712.180   9
   2   3   3 7153.26 1019.29   4
  -2  -3  -3 7052.50 1073.50   8
   2  -3   3 7503.51 796.834  14
   2  -3   3 7122.53 1124.36   5
   2  -3   3 6995.35 798.934   2
   2  -3   3 6874.69 1126.62  12
   2   3   3 7238.07 1185.61  12
   2   3   3 7868.11 1186.03   5
  -2   3  -3 6693.10 1137.97  11
  -2   3  -3 7278.54 793.051   1
  -2  -3  -3 7749.70 801.034  10
  -2   3  -3 7270.21 1232.99  10
   2   3   4 14978.5 1176.05   9
  -2  -3  -4 13780.5 1607.58   8
   2  -3   4 14902.1 1766.81   5
   2   3   4 13971.5 1806.59   5
   2  -3   4 14765.6 1842.25  12
  -2   3  -4 15273.0 1885.45  11
   2   3   4 13895.7 1815.28  12
  -2  -3  -4 14063.3 1246.71  10
  -2   3  -4 14800.3 1852.93  10
  -2  -3  -5 14161.2 1778.59   8
   2  -3   5 10281.4 1846.20   5
   2   3   5 10817.6 1795.94   5
   2   3   5 10012.9 1742.07  12
   2  -3   5 8519.94 1567.94  12
  -2   3  -5 18285.4 2240.27  11
  -2   3  -5 15380.3 2200.07  10
  -2  -3  -6 1393.78 572.753   8
  -2   3  -6 873.246 548.940  11
   2   3   6 623.421 695.101  12
   2  -3   6 1167.09 735.741  12
  -2   3  -6 635.531 449.382  10
   2  -3   6 730.702 534.530   5
   2   3   6 1315.62 725.892   5
   2  -3   7-321.747 418.306  12
   2   3   7-240.784 485.577  12
  -2   3  -7-575.773 417.843  10
  -2   3  -7 161.273 194.341  11
   2  -3   7-549.214 810.961   5
   2   3   7-733.035 291.856   5
  -2  -4   8 2719.12 982.584   6
  -2   4   8 2480.07 902.322   6
  -2   4   8 3358.19 1050.59   9
   2  -4  -8 1753.57 645.545   8
   2  -4  -8 2278.01 985.563   7
   2   4  -8 3221.69 956.085   7
  -2  -4   7 5105.92 1175.60   6
  -2   4   7 4475.84 1175.65   6
  -2   4   7 4321.08 1120.22   9
   2  -4  -7 4211.63 1098.32   8
  -2  -4   7 4958.62 1062.03  12
   2  -4  -7 5062.91 1159.44   7
   2   4  -7 4864.48 1192.69   7
  -2   4   6 20195.6 2291.28   9
  -2  -4   6 17964.4 1722.87  14
   2  -4  -6 17537.2 2165.79   8
   2  -4  -6 17018.4 2047.88   7
   2   4  -6 17808.8 2071.64   7
  -2  -4   6 20184.0 2030.94  12
  -2  -4   6 18951.6 2082.78   6
  -2   4   6 17378.2 2126.78   6
   2  -4  -5 2291.00 905.378   7
  -2   4   5 2320.16 755.124   9
  -2  -4   5 2249.21 588.746   6
  -2   4   5 1591.05 507.226   6
   2   4  -5 3241.04 898.506   7
   2  -4  -5 3236.44 1152.31   8
  -2   4   4 51725.0 3274.51   9
   2  -4  -4 51293.8 3177.92   8
   2  -4  -4 52170.8 3120.50  13
   2  -4  -4 50378.2 2729.37   7
   2  -4  -4 50531.7 2230.61  12
   2   4  -4 55122.0 3118.70   7
  -2  -4   4 45146.4 2951.79   2
  -2  -4   4 54566.2 2945.57   6
  -2   4   4 55472.9 2995.92   6
  -2   4   3 21778.6 2009.20   9
   2  -4  -3 19779.4 1455.76   7
   2  -4  -3 20846.1 1861.54   8
  -2  -4   3 17784.5 910.560  13
  -2  -4   3 18611.6 1745.39   2
   2  -4  -3 20047.0 1339.01  12
   2   4  -3 23042.0 1902.57   7
   2  -4  -3 18375.1 1650.89  13
   2   4  -3 22089.1 1419.51   3
  -2  -4   3 23408.4 1739.55   6
  -2   4   3 21531.3 1675.34   6
   2  -4  -2 244600. 5727.08   8
   2  -4  -2 228303. 4024.76   7
  -2  -4   2 287538. 6626.81   2
   2   4  -2 243846. 6086.51   7
  -2   4   2 218764. 4186.18   7
   2  -4  -2 220132. 5450.97   3
   2   4  -2 262737. 4924.40   6
   2  -4  -2 246273. 4695.09   6
  -2  -4   2 224952. 4975.36   6
  -2   4   2 202513. 4881.16   6
  -2   4   2 239572. 6393.31   9
  -2  -4   1 7572.86 1016.98   2
  -2  -4   1 8493.32 851.142   6
  -2   4   1 9734.91 933.454   6
   2  -4  -1 8286.81 1021.52   1
  -2   4   1 8750.57 1087.85   4
   2  -4  -1 8837.54 950.992   8
   2  -4  -1 7832.24 526.665   7
  -2   4   1 8855.05 1080.31  10
   2  -4  -1 7744.95 1001.52   3
   2   4  -1 9727.07 973.378   6
   2  -4  -1 8755.79 882.960   6
  -2   4   1 10175.2 1320.93   9
   2   4   0 46150.8 2084.68   6
   2  -4   0 43827.9 1987.92   6
   2  -4   0 39062.5 955.225   7
   2  -4   0 42866.3 1972.03   4
  -2  -4   0 40725.4 2442.45   8
  -2   4   0 45051.9 2132.09   4
   2  -4   0 42298.3 1754.16   8
   2   4   0 44250.5 2015.90   5
   2  -4   0 34948.0 913.119   7
   2  -4   0 40594.7 2168.70   1
  -2   4   0 47219.2 2633.27  10
  -2  -4   0 42459.4 1682.95   9
   2  -4   0 40167.6 1904.04   5
  -2  -4  -1 23623.3 1073.53   9
   2   4   1 23207.1 1866.65   4
  -2   4  -1 23174.9 1391.50   4
  -2  -4  -1 21867.7 1902.07   8
   2  -4   1 22311.7 907.473   8
  -2   4  -1 22679.2 1914.20  11
   2  -4   1 22054.7 1814.78  12
   2   4   1 25199.2 1677.63   5
   2  -4   1 23034.5 1056.13   7
   2  -4   1 23974.2 1615.29   5
  -2   4  -1 25570.0 2092.58  10
   2   4   1 18411.0 801.169  10
  -2  -4  -2 9353.53 729.995   9
  -2   4  -2 8501.61 817.715   4
   2   4   2 8042.62 1104.11   4
  -2  -4  -2 9094.76 1258.95   8
   2  -4   2 9504.39 1171.23   5
   2   4   2 9161.31 1148.37   5
   2  -4   2 8811.91 887.726   7
  -2   4  -2 9308.75 1298.22  11
  -2   4  -2 8529.39 1382.44  10
  -2   4  -3 177.384 159.824   4
   2   4   3 20.3588 105.535   9
  -2  -4  -3-211.093 329.130   8
   2  -4   3 142.193 276.341  12
   2  -4   3 30.5149 154.344   2
   2   4   3 57.9751 72.6470  12
   2   4   3-28.2429 111.919   4
  -2   4  -3 133.392 122.683  11
   2  -4   3 454.524 454.460   5
   2   4   3-75.1873 77.0002   5
  -2  -4  -3 16.2338 56.6853  10
  -2   4  -3 163.163 190.988  10
  -2  -4  -4 13005.6 1651.37   8
   2   4   4 13851.6 1682.19   4
   2  -4   4 13366.1 1266.60   2
   2   4   4 13478.8 1916.45  12
   2  -4   4 14602.4 1771.04   5
   2   4   4 15542.0 1896.98   5
   2  -4   4 14014.9 1823.61  12
  -2   4  -4 14866.0 1837.19  11
  -2   4  -4 12950.7 1887.79  10
  -2  -4  -5 4602.18 991.517   8
  -2   4  -5 5055.74 1108.56  11
   2  -4   5 4835.67 1144.01  12
   2  -4   5 4747.59 1218.18   5
   2   4   5 6207.51 1385.72  12
   2   4   5 6045.98 1358.52   5
  -2   4  -5 4769.98 1237.74  10
   2   4   6 210.203 450.711  12
   2  -4   6 61.0955 385.667  12
  -2   4  -6 838.656 540.107  11
  -2  -4  -6 961.140 476.657   8
  -2   4  -6 344.034 324.092  10
   2  -4   6-20.1667 88.7534   5
   2   4   6 914.756 676.299   5
  -2   4  -7 2069.53 862.180  11
  -2   5   8 688.825 486.362   9
  -2  -5   8 551.910 405.628   6
  -2   5   8-104.349 361.150   6
   2   5  -8 662.407 541.833   7
   2  -5  -8 532.332 586.001   7
  -2   5   7 580.566 499.407   9
  -2  -5   7 188.058 175.100   6
  -2   5   7 276.355 190.256   6
   2  -5  -7-535.557 451.263   8
   2  -5  -7 252.329 201.808   7
  -2  -5   7-170.629 225.160  12
   2   5  -7 90.4150 152.505   7
  -2   5   6 1005.67 527.596   9
  -2  -5   6 613.667 383.249   6
  -2   5   6 556.838 318.362   6
   2  -5  -6 427.880 348.428   8
   2  -5  -6 577.740 361.393   7
  -2  -5   6 611.083 188.116  12
   2   5  -6 576.470 455.794   7
  -2   5   5 203.686 326.916   9
  -2  -5   5 630.523 89.3229   6
  -2   5   5 651.956 405.559   6
  -2  -5   5 1288.34 433.117   2
   2  -5  -5 1889.59 667.276   7
   2   5  -5 1267.15 522.577   7
   2  -5  -5 1339.81 637.015   8
  -2   5   4 5968.98 1269.85   9
   2   5  -4 6485.21 1091.11   7
   2  -5  -4 6604.00 1187.00   8
  -2  -5   4 5847.70 1112.37   2
   2  -5  -4 8362.82 1411.13  13
   2  -5  -4 6190.07 967.545   7
  -2  -5   4 6584.93 1033.29   6
  -2   5   4 7069.83 1054.95   6
   2  -5  -3 8401.54 1215.92  13
   2  -5  -3 8576.02 1278.19   8
  -2  -5   3 7889.37 741.678  13
  -2  -5   3 7865.77 1278.72   2
   2  -5  -3 8054.24 937.930   7
   2   5  -3 10011.5 1301.03   7
   2  -5  -3 8247.76 1277.20   1
  -2  -5   3 8331.49 646.076  11
  -2  -5   3 10686.6 1204.09   6
  -2   5   3 10059.3 1223.55   6
  -2   5   3 10886.7 1487.24   9
   2  -5  -2 5327.58 918.685   1
  -2   5   2 5175.85 1029.57   9
   2  -5  -2 5029.13 865.463   8
  -2  -5   2 6658.46 1136.17   2
  -2  -5   2 8120.56 881.079  13
  -2   5   2 4155.91 538.567   7
   2  -5  -2 5270.54 574.970   7
  -2   5   2 3882.89 882.703   4
   2   5  -2 4728.63 880.795   7
   2   5  -2 5973.58 716.950   6
   2  -5  -2 4402.97 672.477   6
   2  -5  -2 5557.60 968.411   3
  -2  -5   2 4852.98 697.200   6
  -2   5   2 4477.54 763.493   6
  -2  -5   1 11563.5 1424.19   8
  -2   5   1 15253.9 1504.05   4
  -2   5   1 17080.9 1851.41   9
   2  -5  -1 12355.7 1232.57   8
   2  -5  -1 12548.9 1005.17   5
   2   5  -1 14381.6 1119.17   5
  -2  -5   1 12953.5 1489.83   2
  -2   5   1 15262.2 1539.76  10
   2  -5  -1 12335.7 1449.54   3
   2   5  -1 15167.2 1158.35   6
   2  -5  -1 12515.1 1020.78   6
   2  -5  -1 13025.5 1442.21   1
   2  -5   0 703.257 124.794   3
  -2  -5   0 903.983 296.452   9
   2   5   0 1004.32 350.402   6
   2  -5   0 1234.54 315.052   6
   2   5   0 1386.76 544.690   4
  -2  -5   0 833.484 247.461   8
   2  -5   0 974.043 285.488   8
  -2   5   0 1009.45 397.827   4
   2  -5   0 810.748 239.483   5
   2   5   0 1046.95 352.474   5
  -2   5   0 1007.92 356.704  10
  -2  -5  -1 1212.10 283.324   9
  -2  -5  -1 1393.68 462.058   8
   2  -5   1 1763.29 307.647   8
   2   5   1 1387.64 414.732   4
  -2   5  -1 2131.95 472.539   4
   2  -5   1 1385.69 445.502   3
   2  -5   1 1500.98 375.920   5
   2   5   1 1794.77 420.237   5
  -2   5  -1 2332.71 649.121  10
  -2  -5  -2 10295.2 857.707   9
  -2   5  -2 11301.4 1107.87   4
  -2   5  -2 11162.6 1588.49  10
   2   5   2 12010.5 1526.56   4
  -2  -5  -2 10862.8 1489.24   8
   2  -5   2 11841.0 1284.70   5
   2   5   2 11029.9 1278.15   5
   2  -5   2 11603.3 904.010   7
   2  -5   2 12926.7 1631.75  12
  -2   5  -2 11872.7 1534.54  11
  -2   5  -3 84.3977 102.550   4
  -2  -5  -3 274.074 185.527   8
   2  -5   3 404.016 286.538   2
   2   5   3 935.014 528.810   5
   2   5   3 365.900 336.663   4
   2  -5   3 706.788 395.513  12
  -2   5  -3 110.603 124.101  11
   2  -5   3 111.470 383.572   5
  -2   5  -3 11.3056 155.749  10
  -2  -5  -4 9564.35 1534.59   8
   2   5   4 11071.2 1607.87   4
   2  -5   4 11683.1 1369.47   2
   2  -5   4 11894.7 1604.36   5
   2   5   4 11435.8 1593.01   5
   2  -5   4 13309.5 1892.52  12
  -2   5  -4 11396.8 1658.73  11
  -2   5  -4 11926.3 1862.50  10
   2   5   5 1048.33 617.768  12
   2  -5   5 445.081 545.187  12
  -2   5  -5 1776.02 905.869  11
  -2  -5  -5 2153.17 888.481   8
  -2   5  -5 898.654 751.650  10
   2  -5   5 467.042 501.772   5
   2   5   5 652.135 575.135   5
  -2  -5  -6 459.065 241.021   8
   2  -5   6 292.527 123.654  12
  -2   5  -6 672.880 282.226  11
   2   5   6 173.865 321.680  12
  -2   5  -6 135.073 189.792  10
   2  -5   6 830.465 476.373   5
   2   5   6 982.549 646.639   5
  -2  -5  -7 1434.51 683.701   8
  -2  -6   8-95.0313 496.993   6
  -2   6   8-1102.76 806.891   6
   2   6  -8 298.981 341.370   7
  -2   6   7 502.557 435.664   9
  -2  -6   7 861.381 458.543   6
  -2   6   7 419.715 406.820   6
   2  -6  -7 361.302 246.625   8
  -2  -6   7 1432.46 730.437  12
   2   6  -7 214.549 211.225   7
  -2   6   6 18380.6 2470.54   9
  -2  -6   6 4260.94 1473.24   2
  -2   6   6 9209.68 1860.53   6
   2  -6  -6 616.015 685.027   7
  -2  -6   6 3191.27 1187.54  12
   2   6  -6 1513.75 702.514   7
  -2  -6   6 11477.2 1717.09   6
   2  -6  -5 3480.30 1030.33   1
  -2   6   5 3128.26 950.513   9
  -2  -6   5 3358.29 767.455   6
  -2   6   5 2695.12 738.413   6
   2   6  -5 4096.59 956.005   7
   2  -6  -5 3327.17 890.016   7
   2  -6  -5 5032.94 1287.92   8
  -2  -6   5 2643.55 870.343   2
  -2  -6   4 235.037 326.657   2
  -2   6   4 422.558 468.720   9
  -2  -6   4 23.2702 197.107   6
  -2   6   4 102.131 173.946   6
   2  -6  -4 258.601 353.793   8
   2  -6  -4 158.865 111.774   1
   2  -6  -4 346.002 218.347   7
   2  -6  -4 496.713 623.390  13
   2   6  -4 254.812 167.749   7
   2  -6  -3 7350.09 1255.88   1
  -2  -6   3 6926.88 820.978  13
   2  -6  -3 8303.81 1277.51   8
  -2   6   3 10138.9 1508.48   4
   2   6  -3 8967.58 1269.82   7
  -2  -6   3 8655.42 1456.62   2
   2  -6  -3 7700.43 1229.98  13
  -2  -6   3 9016.29 1081.94   6
  -2   6   3 9562.00 1142.11   6
  -2   6   3 8546.44 1521.53   9
   2   6  -2-112.762 63.4514   6
  -2   6   2 126.813 447.016   9
   2  -6  -2 189.772 252.905   1
  -2  -6   2 177.228 156.441   6
  -2   6   2 101.431 136.565   6
   2  -6  -2 326.432 369.957   3
  -2  -6   2 150.902 205.591   2
   2  -6  -2 106.549 150.361   8
  -2  -6   2 671.364 439.752  13
  -2   6   2 218.637 264.993   4
   2   6  -2-18.4166 208.807   7
   2  -6  -1 63.5698 180.784   8
   2   6  -1 436.333 169.605   6
   2  -6  -1 106.879 81.3283   6
   2  -6  -1 463.308 353.723   3
  -2  -6   1-66.8836 190.706   8
  -2   6   1 264.042 299.237   4
   2  -6  -1 500.192 325.417   1
   2  -6  -1 237.730 153.129   5
   2   6  -1 208.170 156.649   5
  -2   6   1-80.7522 163.279  10
   2  -6   0 3356.20 789.393   3
   2   6   0 3719.00 597.397   6
   2  -6   0 3041.97 526.297   6
  -2  -6   0 2569.27 714.938   8
   2   6   0 2875.31 838.154   4
   2  -6   0 2989.46 596.251   8
   2   6   0 3031.11 523.624   5
  -2   6   0 3052.33 697.458   4
   2  -6   0 3038.72 492.230   5
   2   6   0 2437.13 389.017  10
  -2   6   0 3204.25 793.659  10
   2   6   1 8926.36 1434.38   4
  -2   6  -1 10205.4 1255.83   4
  -2  -6  -1 9803.53 1535.12   8
   2  -6   1 9153.71 856.019   8
   2  -6   1 8963.67 964.258   5
   2   6   1 9592.94 964.734   5
   2  -6   1 10161.9 1434.34   3
  -2   6  -1 11024.7 1503.38  10
  -2   6  -2 32465.4 2131.65   4
   2   6   2 32505.8 2733.24   4
  -2  -6  -2 29256.7 2607.66   8
   2  -6   2 32869.4 2146.88   5
   2   6   2 31727.0 2073.43   5
   2  -6   2 30178.3 2629.79  12
   2  -6   2 30066.9 2535.59   3
  -2   6  -2 31679.8 2887.31  10
  -2  -6  -3 429.149 144.898   8
   2  -6   3 394.070 244.276   2
   2   6   3 370.219 415.114   4
   2  -6   3 621.866 274.038  12
  -2   6  -3 434.612 287.087   4
   2  -6   3 469.365 320.747   5
   2   6   3 609.485 366.266   5
  -2   6  -3 289.087 130.264  10
   2  -6   3 524.919 49.3842   3
  -2   6  -4-525.004 539.587  11
   2  -6   4 376.809 331.389   2
   2  -6   4 201.093 339.131  12
  -2  -6  -4 67.7002 346.047   8
   2   6   4 134.153 261.156   4
   2  -6   4-314.840 306.730   3
  -2   6  -4 62.1464 396.033  10
   2  -6   4 207.607 9.07059   5
   2   6   4 222.275 239.680   5
   2  -6   5 2792.11 1048.53  12
  -2   6  -5 3929.35 1084.42  11
   2  -6   5 2295.01 726.186   3
  -2  -6  -5 4172.23 1209.15   8
  -2   6  -5 3556.05 1224.61  10
   2  -6   5 4087.45 1019.65   5
   2   6   5 4053.23 1038.71   5
  -2  -6  -6 1708.04 678.072   8
  -2   6  -6 2588.18 827.456  11
   2  -6   6 3119.19 1020.99   5
   2   6   6 1739.18 713.388   5
  -2   7   7 3427.91 1044.92   9
   2  -7  -7 573.441 409.851   1
  -2  -7   7 2666.91 982.900  12
  -2   7   6-252.036 373.765   9
   2  -7  -6-76.4857 428.128   1
   2   7  -6 831.006 498.346   7
   2  -7  -6 247.319 581.898   8
  -2  -7   6-1.20115 504.335   2
   2   7  -6 1368.01 951.942  10
   2  -7  -5 2454.67 1007.53   1
  -2   7   5 2300.64 812.425   9
  -2  -7   5 2247.92 880.282   2
   2   7  -5 2230.97 682.805   7
   2  -7  -5 3357.01 1172.29   8
   2   7  -5 2825.48 1147.80  10
  -2  -7   4 5228.64 1232.88   2
  -2   7   4 7116.56 1454.05   9
   2  -7  -4 5340.54 1213.91   8
   2  -7  -4 8113.30 1552.20  13
   2   7  -4 6543.34 1167.60   7
   2  -7  -4 4833.36 1086.73   1
   2   7  -4 3787.63 1055.04  10
  -2   7   3 2885.06 1076.68   9
   2  -7  -3 3276.75 881.898   1
  -2  -7   3 3964.94 1041.08   2
  -2  -7   3 3874.78 706.342  13
   2  -7  -3 4331.43 1078.48  13
  -2   7   3 6012.26 1235.30   4
   2   7  -3 5144.42 998.143   7
   2   7  -3 2929.48 827.646  10
   2  -7  -3 4363.59 1049.50   8
  -2  -7   2 511.780 423.847   2
   2  -7  -2 301.695 37.1567   8
   2  -7  -2 67.0054 272.053  13
   2  -7  -2 97.5831 319.850   1
  -2  -7   2 723.137 427.005  13
   2   7  -2 273.237 271.862   7
  -2   7   2 308.231 315.737   4
   2   7  -2-85.3061 47.6287  10
  -2   7   2 449.317 503.585   9
   2  -7  -1 2257.39 751.388   3
   2   7  -1 1414.01 732.708   4
  -2  -7   1 1515.77 511.560   8
  -2   7   1 2204.97 731.852   4
  -2   7   1 2352.36 662.772  10
   2   7  -1 1792.47 476.103  10
   2  -7  -1 2303.52 674.310   8
   2  -7   0 314.527 317.385   3
  -2  -7   0 50.8864 246.079   8
   2   7   0-12.3969 89.3006   4
  -2   7   0 289.363 234.274   4
   2  -7   0 18.1383 206.719   8
  -2   7   0 321.307 323.316  10
   2   7   1 11791.5 1794.91   4
  -2   7  -1 10228.7 1399.98   4
   2  -7   1 9263.37 997.457   8
  -2  -7  -1 11144.1 1698.89   8
  -2   7  -1 12076.8 1672.98  10
   2  -7   1 11456.9 1655.28   3
   2  -7   2 4277.26 1105.73   3
  -2  -7  -2 4000.55 1058.65   8
   2   7   2 4439.73 1093.22   4
   2  -7   2 5477.67 1187.41  12
  -2   7  -2 4200.64 878.523   4
  -2   7  -2 5348.31 1152.75  10
   2  -7   3 3238.46 882.429   3
  -2  -7  -3 2483.46 837.954   8
   2   7   3 3957.01 1071.86   4
   2  -7   3 3317.44 929.993   2
   2  -7   3 4538.68 1133.81  12
  -2   7  -3 4254.58 1082.67  10
   2  -7   4 7345.43 1270.58   2
   2   7   4 7597.95 1538.32   4
  -2  -7  -4 6705.88 1450.17   8
   2  -7   4 7688.47 1624.08  12
  -2   7  -4 8489.95 1744.35  10
   2  -7   4 7961.71 1491.26   3
   2  -7   5 2660.08 907.848   3
  -2  -7  -5 3264.22 1167.41   8
   2  -7   5 3478.49 1261.34  12
   2   7   5 2779.96 949.127   4
  -2   7  -5 3602.82 1120.65  10
   2  -8  -6 242.542 41.3339   1
  -2  -8   6 2108.86 963.039   2
  -2   8   5 1039.94 750.685   9
   2  -8  -5 2471.60 951.378   1
   2  -8  -5 1379.35 1015.87   8
  -2  -8   5 961.419 700.760   2
   2   8  -5 1506.62 774.203  10
  -2   8   4-692.580 594.268   9
   2  -8  -4 242.132 406.884   1
  -2  -8   4 314.509 433.281   2
   2  -8  -4-100.802 362.512   8
   2   8  -4 119.261 59.1807  10
  -2   8   3 4380.83 1164.91   9
  -2  -8   3 3654.83 1137.71   2
   2  -8  -3 3900.06 1048.99  13
   2  -8  -3 3264.53 996.976   8
   2  -8  -3 2585.40 853.070   1
  -2   8   3 3204.16 998.144   4
   2   8  -3 4438.21 953.274   7
   2   8  -3 2965.62 835.900  10
   2  -8  -2 308.052 129.101   8
  -2  -8   2 248.855 295.770   2
   2  -8  -2 190.358 238.614  13
  -2  -8   2 656.072 553.548  13
   2  -8  -2 320.501 442.797   1
  -2   8   2-170.676 120.498   4
   2   8  -2-256.357 183.810   7
   2   8  -2 115.552 261.485  10
  -2  -8   1-275.853 91.4187   8
   2  -8  -1 81.2444 105.087   8
  -2   8   1 162.922 183.701   4
   2   8  -1 132.491 232.829   7
  -2   8   1 309.764 315.584  10
   2   8   0 1343.82 752.109   4
   2  -8   0 826.240 603.992   3
  -2  -8   0 1382.55 741.230   8
   2  -8   0 467.440 218.702   8
  -2   8   0 706.917 423.123   4
  -2   8   0 700.955 472.760  10
   2  -8   1 5477.49 1184.94   3
  -2  -8  -1 5091.41 1213.72   8
  -2   8  -1 5148.18 1086.60   4
   2   8   1 5073.23 1256.95   4
  -2   8  -1 5977.63 1234.56  10
  -2   8  -2 13160.8 1656.23   4
   2   8   2 11962.9 1969.23   4
  -2  -8  -2 11464.2 1885.08   8
  -2   8  -2 12729.8 1997.17  10
   2  -8   2 12995.9 1940.11   3
   2  -8   3 792.111 475.728   3
  -2  -8  -3 83.4124 104.693   8
   2   8   3 769.690 405.351   4
   2  -8   3 238.619 274.432  12
  -2   8  -3 959.291 604.635  10
   2  -8   4-329.730 502.695   3
  -2  -8  -4 666.318 411.439   8
   2   8   4-152.669 414.246   4
   2  -8   4-224.272 241.228  12
  -2   8  -4-37.8126 207.181  10
   2  -8   5 1490.15 667.937   3
   2   8   5 2038.65 865.716   4
  -2   9   5 2890.30 1091.75   9
   2  -9  -5 2741.47 1090.68   8
   2   9  -5 1513.54 767.692  10
  -2   9   4 1768.64 1071.86   9
  -2  -9   4 2436.78 999.874   2
   2  -9  -4 2155.17 875.302   8
   2  -9  -4 3965.70 1251.85  13
   2  -9  -4 1700.09 818.889   1
   2   9  -4 2006.54 761.887  10
  -2  -9   3 1762.46 807.654   2
   2  -9  -3 1335.17 781.187  13
   2  -9  -3 652.404 408.947   1
  -2   9   3 1023.96 763.587   4
   2  -9  -3 1922.40 817.515   8
   2   9  -2 431.858 415.963   4
   2  -9  -2 106.035 256.803   8
  -2  -9   2 74.3199 332.581   2
   2  -9  -2 237.955 441.434  13
  -2   9   2-94.4489 123.757   4
  -2  -9   1 5494.55 1296.56   8
   2   9  -1 4417.35 1300.17   4
   2  -9  -1 4314.58 913.924   8
  -2   9   1 6275.02 1411.99   4
   2  -9  -1 2177.98 819.638  13
  -2  -9   0 504.353 474.303   8
   2   9   0 463.138 501.055   4
  -2   9   0 444.215 300.487   4
  -2   9   0-44.6569 229.085  10
  -2  -9  -1-247.112 280.819   8
   2   9   1-109.392 443.981   4
  -2   9  -1-140.135 64.4080   4
  -2   9  -1-438.534 374.589  10
   2  -9   2 964.631 628.623   3
  -2  -9  -2 889.034 578.780   8
   2   9   2 969.885 671.834   4
  -2   9  -2 2023.59 937.015  10
   2  -9   3 683.669 579.336   3
  -2  -9  -3 539.775 550.397   8
   2  -9   3 302.194 382.450   2
   2   9   3 296.043 239.365   4
   2  -9   3 992.281 459.415  12
  -2   9  -3 739.200 640.988  10
   2  -9   4 2371.95 985.456   3
   2 -10  -4 6964.50 1614.66   8
  -2 -10   3 1724.92 883.185   2
   2  10  -3 1424.59 786.120   4
   2 -10  -3 589.945 416.523   8
  -2  10   3 348.568 385.961   4
   2  10  -2 19748.5 2618.22   4
  -2  10   2 15377.2 2428.23   4
   2 -10  -2 21392.5 2472.50   8
   2 -10  -2 25796.6 2978.43  13
  -2 -10   2 23413.1 2894.15   2
   2 -10  -1-320.832 260.523  13
  -2  10   1 222.969 322.612   4
  -2 -10   0 5646.49 1353.44   8
   2  10   0 5669.26 1397.68   4
  -2  10   0 4681.20 1264.98   4
  -2 -10  -1 1252.71 661.976   8
   2  10   1 2599.01 1013.37   4
  -2  10  -1 1929.49 798.994   4
  -2  10  -1 2968.75 948.134  10
   2 -10   2 1520.13 784.769   3
  -2  10  -2 1449.07 803.741  10
   2 -10   3-54.5558 97.0450   2
  -2  11   1 6667.58 1785.06   4
  -2  11   0 288.151 170.944   4
   3   0  -9 685.909 543.826   8
  -3   0   8 6045.79 1384.49   6
  -3   0   8 6298.45 1384.48   9
   3   0  -8 7075.70 1514.91   7
  -3   0   7 8110.91 1534.67   9
  -3   0   7 9855.06 1389.98  14
   3   0  -7 7559.08 1441.59   7
  -3   0   7 7460.92 1479.45   6
  -3   0   6 735.355 314.679   6
  -3   0   6 1369.88 522.710   9
  -3   0   6 1451.09 472.959  14
   3   0  -6 1230.26 583.070   7
  -3   0   5 1175.64 374.566   9
  -3   0   5 2653.91 782.108   6
  -3   0   5 2416.45 659.801  14
   3   0  -5 2019.75 669.475   7
  -3   0   4 6912.13 1171.46   9
  -3   0   4 6443.39 1041.65  14
   3   0  -4 7663.43 1207.89   7
   3   0  -4 7292.84 750.453  11
   3   0  -4 7298.16 542.781   3
  -3   0   4 8020.21 1301.83   6
  -3   0   3 312559. 6742.50   9
  -3   0   3 247217. 6184.24  14
   3   0  -3 207890. 6215.05   7
   3   0  -3 261099. 4441.06  11
  -3   0   3 232842. 6798.45   6
  -3   0   2 62103.3 2557.42   9
   3   0  -2 68125.9 3047.86   7
  -3   0   2 64016.7 1787.31  12
  -3   0   2 64949.6 3059.47  14
   3   0  -2 63445.7 1803.97  12
  -3   0   2 67557.8 2447.39  11
   3   0  -2 63470.1 2384.09  11
  -3   0   2 65637.2 3054.27   6
  -3   0   1 1523.12 329.719   9
   3   0  -1 1421.18 309.417   9
   3   0  -1 1295.88 322.864   2
  -3   0   1 2120.12 558.751   6
   3   0  -1 1581.34 357.399  12
  -3   0   1 1738.00 464.710  14
  -3   0   1 1699.10 371.017  12
  -3   0   1 1768.71 422.787  11
   3   0   0 41459.5 1593.65   9
  -3   0   0 41320.9 2301.79  11
   3   0   0 39843.2 1955.10   8
   3   0   0 44390.3 2522.82   5
  -3   0   0 46992.9 2530.44  14
   3   0   0 39568.6 1458.77   2
   3   0   0 40331.2 2158.96  12
  -3   0   0 44882.7 2509.64  10
  -3   0   0 44236.7 1639.77   9
   3   0   1 653.596 224.474   9
  -3   0  -1 1408.98 566.548  14
   3   0   1 483.657 308.281   8
   3   0   1 2294.70 1943.05   5
   3   0   1 669.981 144.441   4
  -3   0  -1 1589.25 1048.28  11
  -3   0  -1 577.421 326.759  10
  -3   0  -2 3374.73 884.208  11
   3   0   2 3230.13 524.482   8
  -3   0  -2 3262.57 595.295  14
   3   0   2 2827.00 738.915  12
   3   0   2 3222.10 767.121   5
  -3   0  -2 3967.81 789.919  10
   3   0   2 3472.74 490.471   9
  -3   0  -3 1667.72 419.866  14
  -3   0  -3 1658.12 437.086   8
   3   0   3 1735.42 544.382  12
   3   0   3 1576.95 656.074   5
  -3   0  -3 2327.42 822.064  11
  -3   0  -3 1664.30 635.709  10
   3   0   4 6883.77 1534.42   5
   3   0   4 5197.36 1187.93  12
   3   0   5 3470.78 1096.10  12
  -3   0  -5 1876.76 874.089  11
   3   0   5 2559.68 934.220   5
  -3   0  -5 2357.17 665.556  10
  -3   0  -6 6687.75 1671.43  11
   3   0   6 6793.09 1570.55  12
  -3   0  -6 7535.19 1465.31  10
   3   0   6 8828.62 1941.62   5
   3  -1  -9 2894.23 1045.01   8
  -3  -1   8 606.537 566.389   6
  -3   1   8 179.334 332.235   6
  -3   1   8 55.2904 351.787   9
  -3  -1   8 564.148 508.299   9
   3   1  -8-93.7860 139.699   7
   3  -1  -8 326.952 476.951   8
   3  -1  -8 669.693 538.009   7
  -3  -1   7 16.4003 142.261   6
  -3   1   7-524.883 307.302   6
  -3   1   7-443.551 455.567   9
  -3  -1   7 886.297 734.363   9
  -3   1   7-293.746 325.099  14
  -3  -1   7 29.4738 233.222  14
   3  -1  -7-201.469 233.929   7
   3   1  -7 177.209 542.535   7
  -3  -1   6-316.988 354.728  14
  -3   1   6 277.617 214.236   9
  -3  -1   6-1233.68 717.830   6
  -3   1   6-367.304 462.921   6
  -3  -1   6-59.9298 227.751   9
  -3   1   6 282.653 392.969  14
   3  -1  -6 18.0925 202.706   7
   3   1  -6 382.541 441.826   7
  -3   1   5 11288.5 1542.94   9
  -3  -1   5 11016.7 1538.30   9
  -3  -1   5 10858.0 1332.59  14
  -3   1   5 11622.7 1480.47  14
   3  -1  -5 13624.4 1635.32   7
  -3  -1   5 10545.1 781.668  12
   3   1  -5 12527.1 1637.91   7
   3   1  -5 11160.7 796.248  11
  -3  -1   5 13722.4 1678.98   6
  -3   1   5 13158.0 1678.47   6
  -3   1   4 6791.26 1099.56   9
  -3  -1   4 5399.20 1078.16   9
  -3  -1   4 5666.81 963.147  14
  -3   1   4 6074.90 979.042  14
   3  -1  -4 6406.21 1017.05   7
  -3  -1   4 6438.03 538.572  12
   3   1  -4 7059.53 1101.49   7
   3   1  -4 5361.33 496.288  11
   3  -1  -4 5943.98 601.537   3
  -3  -1   4 7924.99 1251.52   6
  -3   1   4 7417.67 1143.18   6
  -3   1   3 2016.38 570.462   9
  -3  -1   3 2537.69 608.075   9
  -3  -1   3 1680.93 560.254   6
  -3   1   3 1549.14 547.616   6
   3  -1  -3 1040.65 279.216  13
  -3  -1   3 1649.84 351.125  12
  -3  -1   3 1859.73 523.545  14
   3   1  -3 3055.67 393.531  11
   3  -1  -3 1617.73 533.427   7
   3   1  -3 1576.88 532.006   7
  -3   1   3 1904.77 566.764  14
  -3   1   2 2005.26 453.857   9
  -3  -1   2 1748.95 484.625  14
  -3  -1   2 1250.76 366.459   9
  -3  -1   2 1290.34 360.811   6
  -3   1   2 1257.49 443.634   6
   3  -1  -2 1729.68 268.770  12
  -3  -1   2 1951.73 374.764  12
  -3  -1   2 1848.30 371.831  11
  -3   1   2 1405.46 417.208  14
   3   1  -2 1632.86 408.167  11
   3  -1  -2 1728.52 482.445   7
   3   1  -2 2259.28 580.925   7
  -3   1   1 46971.1 2225.00   9
  -3   1   1 41631.3 2395.75  14
  -3  -1   1 43244.9 1679.34   9
   3  -1  -1 42114.5 1988.31   9
  -3  -1   1 43295.7 2405.58   6
  -3   1   1 45127.7 2498.46   6
  -3   1   1 44198.9 1928.40  12
  -3  -1   1 42302.6 2464.79  14
   3   1  -1 43687.5 2048.09  12
   3   1  -1 40034.2 1902.50   2
  -3  -1   1 45291.0 2105.82  12
   3  -1  -1 42934.1 1864.06  12
  -3   1   1 43446.4 2262.99  11
  -3  -1   1 41721.3 1987.98  11
   3  -1   0 7717.63 790.118   9
  -3   1   0 6532.12 933.401  14
   3  -1   0 8319.80 1050.97   5
  -3  -1   0 7556.29 1032.96  14
   3   1   0 7943.71 1047.24   5
   3  -1   0 7105.24 951.587  12
  -3   1   0 7220.67 984.842  11
  -3  -1   0 7209.52 946.664  11
   3   1   0 7388.48 963.129  12
  -3   1   0 7781.41 1064.69  10
  -3  -1   0 7525.16 517.191   9
   3   1   1 33097.2 1425.17   4
   3  -1   1 34114.1 1512.01   8
  -3  -1  -1 34213.0 2120.32  14
  -3   1  -1 33368.0 1975.66  14
   3  -1   1 33460.6 2270.83   5
   3   1   1 33972.3 2326.87   5
   3   1   1 31656.6 2161.38  12
   3  -1   1 33272.2 2183.67  12
   3   1   1 29036.1 930.906   1
  -3  -1  -1 30308.5 2238.55  11
  -3   1  -1 32616.0 2287.63  11
  -3  -1  -1 34553.4 2150.97  10
  -3   1  -1 35984.3 2390.98  10
   3  -1   1 33721.4 1700.23   9
  -3   1  -2 538.201 199.646  14
   3   1   2 429.348 135.710   9
  -3  -1  -2 426.864 165.925   8
   3  -1   2 492.934 147.306   8
   3  -1   2 292.078 423.276  12
   3   1   2 336.513 427.229  12
   3   1   2 429.673 163.978   4
   3  -1   2 1427.32 645.557   5
   3   1   2 259.409 391.971   5
  -3   1  -2-40.1572 369.551  11
  -3  -1  -2 923.537 624.415  11
  -3  -1  -2 498.625 303.996  10
  -3   1  -2 919.093 445.427  10
   3   1   3 1003.76 361.749   9
  -3  -1  -3 406.071 182.294   8
   3   1   3 420.124 373.231  12
   3  -1   3 525.665 417.666  12
  -3  -1  -3 485.264 228.540  14
  -3   1  -3 319.701 402.750  11
  -3  -1  -3-149.021 415.719  11
   3  -1   3 415.697 269.853   5
   3   1   3 398.623 231.646   5
  -3  -1  -3 324.051 248.375  10
  -3   1  -3 76.4464 309.123  10
  -3  -1  -4 3809.07 830.567   8
   3   1   4 4216.96 1084.01  12
  -3   1  -4 5694.96 1304.71  11
   3  -1   4 4228.58 1066.86  12
  -3  -1  -4 6630.31 1502.01  11
   3  -1   4 4442.15 1097.42   5
   3   1   4 4934.43 1206.94   5
  -3  -1  -4 4839.14 964.152  10
  -3   1  -4 4861.77 1060.95  10
   3   1   5 650.001 312.350  12
  -3   1  -5 345.856 413.532  10
  -3   1  -5-97.6292 369.490  11
  -3  -1  -5-125.960 344.095  11
   3  -1   5 680.774 409.059   5
   3   1   5 374.458 72.8995   5
  -3  -1  -5 154.705 208.309  10
   3   1   6 1407.97 755.083  12
   3  -1   6 1556.06 527.070  12
  -3   1  -6 1488.19 741.357  11
  -3  -1  -6 2892.45 1043.50  11
   3  -1   6 1376.24 715.125   5
   3   1   6 2758.61 1214.90   5
  -3   1  -6 1310.63 582.777  10
  -3   1  -7 957.225 583.256  10
  -3  -2   8 2644.03 939.046   6
  -3   2   8 2180.36 920.193   6
  -3   2   8 3052.82 1056.55   9
  -3  -2   8 3213.01 1052.87   9
   3  -2  -8 4003.37 1157.38   8
   3  -2  -8 2527.75 1039.22   7
   3   2  -8 3093.31 970.344   7
  -3   2   7 762.735 524.740   9
  -3  -2   7-138.234 290.699   6
  -3   2   7 501.248 462.966   6
  -3  -2   7 775.234 631.101   9
  -3  -2   7-338.302 291.237  14
   3  -2  -7-104.531 241.866   8
   3  -2  -7 363.578 214.979   7
   3   2  -7 852.858 624.497   7
  -3   2   6 6265.58 1233.74   9
  -3  -2   6 6109.08 1245.55   6
  -3   2   6 5320.51 1194.71   6
  -3  -2   6 5574.66 1252.84   9
  -3  -2   6 5462.95 975.178  14
   3  -2  -6 5491.26 1117.73   7
   3   2  -6 5205.14 1043.35   7
  -3   2   5 31787.1 2683.68   9
  -3  -2   5 27132.9 2498.04   9
  -3  -2   5 29765.9 2328.09  14
  -3   2   5 31906.5 2518.69  14
   3  -2  -5 28641.6 2363.88   7
   3   2  -5 32209.4 2606.28   7
  -3  -2   5 32434.7 1727.05  12
  -3  -2   5 35913.1 2792.46   6
  -3   2   5 35258.4 2779.97   6
  -3   2   4 539.074 378.706   9
  -3  -2   4 487.914 270.098  14
  -3  -2   4 170.867 351.229   9
  -3  -2   4 494.034 482.529   6
  -3   2   4-203.745 332.452   6
   3  -2  -4 355.149 195.125   3
  -3   2   4 791.012 568.964  14
   3  -2  -4 1083.10 470.862  13
   3  -2  -4 318.758 292.846   7
   3   2  -4 284.068 222.253   7
  -3   2   3 24392.6 2108.14   9
  -3  -2   3 37787.4 2460.87   9
  -3  -2   3 32869.8 2312.63  14
  -3   2   3 23168.5 2029.88  14
  -3  -2   3 28861.5 1611.22  12
   3  -2  -3 19391.1 1694.94   7
   3   2  -3 20309.6 2046.79   7
   3  -2  -3 26211.1 1572.45   3
  -3  -2   3 25711.0 2300.44   6
  -3   2   3 21350.4 2226.90   6
   3  -2  -3 19337.5 1411.50  13
  -3  -2   2 67193.8 3072.69   6
  -3   2   2 64915.2 3062.56   6
  -3   2   2 67845.7 3127.95   9
  -3  -2   2 59952.9 2512.19   9
  -3  -2   2 62165.7 2432.43  12
   3  -2  -2 62525.8 1843.27  12
  -3  -2   2 56713.7 3016.28  14
  -3   2   2 63910.9 3296.06  14
   3  -2  -2 64123.2 2665.78   7
   3   2  -2 68866.6 3348.52   7
  -3  -2   2 62064.7 1911.33  11
  -3  -2   1 31290.6 2056.78   6
  -3   2   1 31013.4 2092.04   6
  -3  -2   1 29187.8 1307.66   9
   3  -2  -1 29575.2 1570.54   4
  -3  -2   1 29219.8 1808.67   2
  -3   2   1 33089.1 2283.16  14
   3  -2  -1 29888.4 1603.58  12
   3  -2  -1 33820.9 1922.67   7
  -3  -2   1 28538.1 2138.32  14
  -3   2   1 29073.0 2035.09  11
  -3  -2   1 29574.4 1652.80  11
  -3   2   1 34866.0 2324.40  10
  -3   2   1 33367.8 2093.22   9
   3  -2   0 11713.9 720.515   4
  -3  -2   0 11153.3 1370.46  14
   3  -2   0 12479.7 1308.70   5
   3   2   0 12048.9 1330.44   5
  -3  -2   0 10269.4 937.252   2
   3  -2   0 11348.1 927.735   1
  -3   2   0 12024.3 1328.87  14
   3   2   0 12216.4 1351.66  12
   3  -2   0 11010.7 1152.07  12
  -3   2   0 10888.1 1281.08  11
  -3  -2   0 11818.4 1251.29  11
  -3   2   0 12462.2 1433.77  10
   3   2   1 36134.5 1843.28   4
  -3  -2  -1 27731.0 1283.15   2
  -3  -2  -1 32114.4 2103.12   8
   3  -2   1 34708.8 1270.57   8
  -3  -2  -1 33478.6 2244.32  14
  -3   2  -1 34971.7 2149.15  14
   3  -2   1 33532.8 2289.79   5
   3   2   1 35800.1 2472.12   5
   3   2   1 46069.8 2797.27  12
   3  -2   1 38183.9 2408.10  12
  -3   2  -1 32868.0 2351.65  11
  -3  -2  -1 32004.8 2420.84  11
   3   2   1 34909.0 1433.20   1
  -3  -2  -1 39169.4 2137.52  10
  -3   2  -1 36191.5 2528.40  10
   3  -2   2 65.7648 56.4768   2
  -3  -2  -2 41.4616 82.0951   8
  -3   2  -2 179.569 240.852  10
   3   2   2-339.416 223.289  12
   3   2   2-178.620 135.293   4
   3  -2   2 37.6136 306.477  12
   3  -2   2 365.783 507.453   5
  -3   2  -2 159.230 148.707  11
   3   2   2 502.432 560.737   5
  -3  -2  -2 458.906 357.082  14
  -3  -2  -2 1.22707 63.9828   2
  -3  -2  -2 218.120 179.162  10
  -3  -2  -3 21853.0 1955.33   8
  -3  -2  -3 21923.7 1698.92  14
   3  -2   3 22670.4 2226.84   5
   3   2   3 22557.1 2216.73   5
   3   2   3 20455.1 2173.39  12
   3  -2   3 22616.0 2224.88  12
  -3   2  -3 23610.1 2367.12  11
  -3  -2  -3 15996.3 2074.86  11
  -3  -2  -3 23987.5 1864.63  10
  -3   2  -3 24015.7 2308.76  10
  -3  -2  -4 4276.55 1378.17   8
   3  -2   4 7713.49 1469.78   5
   3   2   4 8007.52 1590.45   5
   3   2   4 3820.92 1107.44  12
  -3   2  -4 11619.5 2069.00  11
   3  -2   4 3575.92 1134.43  12
  -3  -2  -4 7317.25 1277.69  10
  -3   2  -4 9918.65 1703.73  10
   3   2   5 225.093 84.4848  12
   3  -2   5 921.092 603.513  12
  -3   2  -5 1407.38 802.974  11
  -3  -2  -5 1148.07 642.248  11
   3  -2   5 942.510 524.698   5
   3   2   5 1016.41 672.447   5
  -3   2  -5 345.251 161.030  10
   3   2   6 5255.82 1485.11  12
   3  -2   6 5799.20 1443.63  12
  -3   2  -6 7056.82 1667.48  11
  -3  -2  -6 5827.87 1712.21  11
   3  -2   6 5226.39 1522.33   5
   3   2   6 4957.80 1376.18   5
  -3   2  -6 3589.38 1118.72  10
  -3   3   8 6168.63 1499.54   9
  -3  -3   8 4342.89 1187.38   6
  -3   3   8 4900.22 1328.13   6
  -3  -3   8 7163.17 1655.95   9
   3  -3  -8 5920.15 1436.75   8
   3  -3  -8 5402.88 1304.29   7
   3   3  -8 5098.98 1366.83   7
  -3   3   7 785.307 741.591   9
  -3  -3   7 1554.49 875.064   6
  -3   3   7 1100.14 684.602   6
  -3  -3   7 2105.88 974.202   9
   3  -3  -7 469.666 360.180   8
   3  -3  -7 233.934 332.678   7
   3   3  -7 37.0645 247.887   7
  -3  -3   7 684.174 312.441  14
  -3   3   6 18368.9 2228.80   9
   3  -3  -6 21507.1 2533.26   8
  -3  -3   6 17606.9 1870.76  14
   3  -3  -6 18173.4 2158.07   7
   3   3  -6 21461.5 2450.13   7
  -3  -3   6 19184.8 1694.31  12
  -3  -3   6 19701.3 2261.82   6
  -3   3   6 18015.0 2200.49   6
  -3   3   5 21914.5 2271.26   9
   3  -3  -5 20830.1 2190.51   8
  -3  -3   5 18664.5 1868.40  14
   3  -3  -5 20560.2 1981.32   7
   3   3  -5 22408.9 2247.61   7
  -3  -3   5 24781.4 2342.24   6
  -3   3   5 22895.3 2257.10   6
  -3   3   4 73174.8 3977.30   9
  -3  -3   4 66862.1 3500.91  14
   3  -3  -4 72120.6 3281.47  13
   3  -3  -4 56329.3 1352.65  12
   3  -3  -4 75147.6 3431.93   7
   3   3  -4 77331.4 3987.43   7
   3   3  -4 67121.2 1980.13   3
  -3  -3   4 86790.0 4130.23   6
  -3   3   4 82435.3 4002.67   6
   3  -3  -4 68378.6 2790.31   3
   3  -3  -3 3232.93 659.202  13
   3  -3  -3 2921.56 673.022   3
  -3   3   3 4579.04 956.588   9
  -3  -3   3 2800.94 814.313   6
  -3   3   3 3062.27 717.795   6
  -3  -3   3 4402.84 823.778   2
   3  -3  -3 3971.83 819.967   7
   3  -3  -3 3238.15 436.764  12
   3   3  -3 4244.90 948.634   7
  -3   3   2 40360.7 2632.83   9
  -3  -3   2 37517.2 2304.33   6
  -3   3   2 39709.0 2381.75   6
  -3  -3   2 33534.5 2221.57   2
   3  -3  -2 34898.4 1589.75  12
   3  -3  -2 39680.2 2044.46   7
   3   3  -2 41461.4 2694.20   7
  -3  -3   2 36667.4 1467.07  11
  -3  -3   1 10548.7 1191.36   6
  -3   3   1 10720.6 1211.83   6
  -3  -3   1 9436.43 868.438   9
   3  -3  -1 8770.42 898.093   4
  -3  -3   1 8859.20 1069.61   2
   3  -3  -1 10493.6 1019.31  12
   3  -3  -1 11164.5 1002.06   7
  -3  -3   1 10964.0 1092.99  11
  -3   3   1 10149.1 1326.17  10
  -3   3   1 10755.7 1345.04   9
   3  -3   0 29508.4 1344.05   4
   3  -3   0 27104.7 1638.77   1
   3   3   0 30316.7 2070.60   5
  -3  -3   0 26190.0 1689.77   2
   3  -3   0 28028.7 1867.06  12
  -3   3   0 27668.0 2215.67  11
   3  -3   0 28857.7 1964.95   5
  -3   3   0 31711.7 2372.63  10
   3   3   0 29535.9 1739.41  10
   3   3   1 8160.55 1028.61   4
  -3  -3  -1 8353.35 1163.50   8
   3  -3   1 7769.85 494.315   8
   3  -3   1 8234.84 509.378   8
   3   3   1 7891.91 1113.30   5
   3   3   1 7430.49 1212.90  12
   3  -3   1 7748.46 1175.63  12
  -3  -3  -1 8539.55 908.592   2
  -3   3  -1 7450.50 1174.19  11
  -3   3  -1 9411.23 1338.42  10
   3   3   1 8681.97 881.663   1
   3  -3   1 8378.30 1126.09   5
   3   3   1 8496.10 896.451  10
   3   3   2 29574.7 1919.53   4
  -3  -3  -2 27897.6 2247.28   8
   3  -3   2 27411.0 2230.67   5
   3   3   2 30019.5 2385.40   5
   3   3   2 28208.5 2461.55  12
   3  -3   2 27514.7 2255.17  12
  -3  -3  -2 28155.2 1464.28   2
  -3   3  -2 27780.4 2356.20  11
  -3  -3  -2 33335.4 1866.58  10
  -3   3  -2 31649.9 2637.45  10
  -3  -3  -3 527.147 401.681   8
  -3  -3  -3 916.969 431.916  14
   3   3   3 389.762 124.602  12
   3  -3   3 447.411 217.729  12
   3   3   3 425.681 285.078   4
  -3   3  -3 664.487 435.174  11
   3  -3   3 338.658 172.344   5
   3   3   3 706.151 336.261   5
  -3  -3  -3 264.122 235.119  10
  -3   3  -3 65.7248 353.389  10
  -3  -3  -4 14419.2 1764.76   8
   3  -3   4 9641.13 1840.95   5
   3   3   4 9149.19 1746.52   5
   3   3   4 8513.36 1595.08  12
   3  -3   4 7289.11 1445.04  12
  -3   3  -4 15384.9 2138.92  11
  -3   3  -4 10288.2 1936.68  10
  -3  -3  -5 54.1917 379.281   8
   3   3   5 628.846 312.175  12
   3  -3   5 607.334 421.615  12
  -3   3  -5 889.461 673.790  11
   3  -3   5 750.737 665.572   5
   3   3   5 577.630 199.627   5
  -3   3  -5 68.5162 181.100  10
   3   3   6 605.479 545.842  12
   3  -3   6 853.804 697.001  12
  -3   3  -6 614.367 533.413  11
  -3  -3  -6 1842.94 1211.00  11
   3  -3   6 247.029 283.311   5
   3   3   6-11.0289 231.966   5
  -3   3  -6-1099.52 635.588  10
  -3   4   8 783.334 440.884   9
  -3  -4   8 1494.26 773.674   6
  -3   4   8 1760.25 776.552   6
  -3  -4   8 2613.04 1196.67   9
   3  -4  -8 1988.82 885.047   8
   3  -4  -8 1365.90 654.432   7
   3   4  -8 1282.27 756.416   7
  -3   4   7 3733.47 1194.87   9
  -3  -4   7 4435.37 1230.95   6
  -3   4   7 3279.59 1188.33   6
   3  -4  -7 3672.71 1150.24   8
   3  -4  -7 3697.11 986.689   7
   3   4  -7 3423.40 1037.99   7
  -3   4   6 5081.04 1189.17   9
  -3  -4   6 4060.74 1044.98   6
  -3   4   6 2156.65 794.666   6
   3  -4  -6 3844.32 1107.15   8
  -3  -4   6 3916.37 819.177  12
   3  -4  -6 4269.65 1000.50   7
   3   4  -6 3155.96 948.799   7
  -3  -4   6 2309.92 622.202  14
  -3   4   5 51883.8 3647.00   9
   3  -4  -5 52691.5 3602.83   8
  -3  -4   5 45704.5 3112.09  14
   3  -4  -5 51325.5 3093.88   7
   3   4  -5 53189.0 3548.31   7
  -3  -4   5 57049.7 3593.69   6
  -3   4   5 55133.0 3558.26   6
  -3   4   4-58.6390 165.732   9
  -3  -4   4 413.367 417.904   6
  -3   4   4 225.489 242.811   6
   3  -4  -4-57.9553 181.927   8
   3  -4  -4 439.988 341.188  13
   3  -4  -4 167.664 212.282   7
  -3  -4   4 159.155 82.5464   2
   3   4  -4 723.843 538.560   7
  -3   4   3 3918.03 1016.75   9
   3  -4  -3 3883.28 773.568   3
  -3  -4   3 3788.03 897.790   6
  -3   4   3 4245.93 926.879   6
   3  -4  -3 2676.91 767.488  13
   3  -4  -3 4724.62 964.876   8
   3  -4  -3 4485.84 775.823   7
   3   4  -3 3523.70 949.881   7
  -3  -4   3 5011.68 951.607   2
  -3  -4   2 21683.2 1757.65   6
  -3   4   2 23303.5 1882.32   6
   3  -4  -2 19935.3 1699.75   8
  -3  -4   2 15619.4 1640.71   2
   3  -4  -2 20585.9 1350.60   7
   3   4  -2 22601.0 2079.18   7
  -3  -4   2 22344.8 1260.64  11
   3  -4  -2 17451.0 1667.55   3
  -3   4   2 23859.2 2214.04   9
   3  -4  -1 39872.3 2382.71   1
   3  -4  -1 42085.0 2172.36   8
   3  -4  -1 43113.5 2386.97   5
   3   4  -1 47763.6 2589.78   5
   3   4  -1 46172.9 2060.35  13
  -3  -4   1 39942.2 2502.99   2
   3  -4  -1 41451.7 2228.20  12
   3  -4  -1 48032.7 1878.05   7
  -3   4   1 51648.8 3126.37  10
  -3   4   1 49678.3 3180.60   9
   3  -4   0 9001.27 854.752   4
  -3  -4   0 9507.80 1327.10   8
   3  -4   0 9521.02 850.040   8
   3  -4   0 7517.53 970.777   5
   3   4   0 10195.8 1213.40   5
   3  -4   0 7604.09 1063.77  12
  -3  -4   0 9631.16 1211.18   2
   3   4   0 10172.5 960.603  10
  -3   4   0 8709.56 1407.32  10
   3  -4   0 8350.83 1002.63   1
  -3  -4   0 8020.85 566.830   9
   3   4   1 43326.8 2632.83   4
  -3  -4  -1 37552.9 2680.27   8
   3  -4   1 39802.8 1055.60   8
   3   4   1 43456.6 2655.66   5
   3  -4   1 43358.3 2572.20   5
   3  -4   1 42281.2 1929.52   7
   3  -4   1 39183.7 2629.11  12
  -3   4  -1 42873.8 2977.56  11
  -3  -4  -1 40688.7 2274.23   2
  -3   4  -1 47133.2 3211.45  10
   3   4   1 42872.4 1838.96  10
  -3  -4  -2-99.0004 266.402   8
   3   4   2 158.254 127.560   4
   3   4   2 335.080 331.536  12
   3  -4   2 773.571 494.871  12
  -3   4  -2 73.9497 354.580  11
   3  -4   2 52.7060 355.989   5
   3   4   2 296.231 237.378   5
  -3   4  -2 190.784 380.626  10
   3   4   3 29781.0 2289.51   4
  -3  -4  -3 28217.0 2554.47   8
   3  -4   3 28383.0 2455.65   5
   3   4   3 30542.7 2602.41   5
   3   4   3 29159.9 2784.69  12
   3  -4   3 27981.5 2574.09  12
  -3   4  -3 30180.6 2740.52  11
  -3   4  -3 30914.5 2942.95  10
  -3  -4  -4 8283.28 1577.28   8
   3   4   4 4090.38 1242.53  12
   3  -4   4 1947.48 805.621  12
  -3   4  -4 8534.00 1640.32  11
   3   4   4 2052.28 726.122   4
   3  -4   4 3211.86 1285.80   5
   3   4   4 6559.19 1400.60   5
  -3   4  -4 6633.59 1489.28  10
  -3  -4  -5 3136.85 946.948   8
   3   4   5 3174.23 1169.94  12
   3  -4   5 3452.02 1168.41  12
  -3   4  -5 3066.77 1018.13  11
   3  -4   5 3960.93 1060.73   5
   3   4   5 2816.02 995.566   5
  -3   4  -5 3252.90 1026.00  10
  -3   4  -6 3875.88 1258.00  11
   3  -4   6 3647.98 1262.81   5
   3   4   6 3912.43 1275.26   5
  -3  -5   8 802.060 300.399   6
  -3   5   8 718.794 472.883   6
   3  -5  -8 2064.18 844.102   7
   3   5  -8 831.982 614.883   7
  -3   5   7 392.810 308.606   9
  -3  -5   7 207.922 274.861   6
  -3   5   7 502.946 396.158   6
   3  -5  -7 452.690 464.200   8
   3  -5  -7 577.782 438.808   7
   3   5  -7 168.708 211.746   7
  -3   5   6 2854.11 946.721   9
  -3  -5   6 3057.60 846.859   6
  -3   5   6 2701.64 892.264   6
  -3  -5   6 2114.11 812.166  14
   3  -5  -6 3884.88 1110.40   8
   3  -5  -6 3083.08 906.717   7
   3   5  -6 3148.28 963.807   7
  -3   5   5 8957.40 1562.39   9
   3  -5  -5 7477.94 1394.90   8
  -3  -5   5 7989.04 1518.34   2
   3  -5  -5 7256.45 1217.00   7
   3   5  -5 8590.37 1417.90   7
  -3  -5   5 9412.74 1462.00   6
  -3   5   5 9378.50 1534.51   6
  -3   5   4 28902.3 2746.59   9
   3  -5  -4 25172.8 2363.90   8
  -3  -5   4 24590.3 2409.23   2
   3  -5  -4 22067.0 2127.74  13
   3  -5  -4 23065.6 1857.79   7
   3   5  -4 26988.4 2524.64   7
  -3  -5   4 28765.8 2362.57   6
  -3   5   4 29316.1 2407.94   6
  -3   5   3 137.855 467.009   9
   3  -5  -3 110.949 188.333   3
  -3  -5   3 598.585 360.428   6
  -3   5   3 239.022 85.8050   6
   3  -5  -3 354.163 239.848   8
   3  -5  -3-147.091 383.023  13
   3  -5  -3 211.180 125.397   7
   3   5  -3 198.834 116.482   7
  -3  -5   3 62.9249 149.022   2
   3  -5  -2 1330.44 556.574   3
  -3   5   2 2298.57 731.536   9
   3  -5  -2 1397.29 457.297   1
  -3  -5   2 816.241 484.812   2
  -3  -5   2 2101.75 588.141   6
  -3   5   2 2092.57 603.723   6
   3  -5  -2 1505.71 332.615   7
   3  -5  -2 2109.75 635.205   8
   3   5  -2 1554.26 567.903   7
   3  -5  -1 1909.08 577.222   3
   3  -5  -1 2787.43 581.862   8
  -3  -5   1 2464.93 716.131   2
   3  -5  -1 2260.34 569.636   1
   3  -5  -1 2257.97 324.464   7
   3  -5  -1 2176.06 514.687   5
   3   5  -1 2817.10 628.953   5
  -3   5   1 2803.10 799.507  10
  -3  -5   0 3469.37 773.347   2
   3  -5   0 3594.03 565.998   8
  -3   5   0 4378.46 758.592   4
   3   5   0 4762.94 982.242   4
  -3  -5   0 3008.30 781.099   8
   3  -5   0 3807.52 759.690   1
   3  -5   0 3338.74 364.688   7
   3  -5   0 3923.38 403.535   7
   3  -5   0 3629.07 772.597  12
   3  -5   0 3793.26 670.363   5
   3   5   0 3858.94 738.961   5
   3   5   0 3718.88 572.154  10
  -3   5   0 4121.23 915.321  10
  -3  -5   0 3465.54 467.127   9
   3   5   1 12185.9 1526.48   4
  -3  -5  -1 11366.3 1583.35   8
  -3   5  -1 13244.2 1171.39   4
   3  -5   1 11954.3 1361.84   5
   3   5   1 12336.5 1424.82   5
   3  -5   1 11696.8 1532.12  12
  -3   5  -1 11148.9 1756.82  10
  -3  -5  -2 4146.46 1021.05   8
   3   5   2 3772.79 839.847   4
   3  -5   2 3248.65 813.310  12
  -3   5  -2 4172.31 955.963  11
   3  -5   2 4086.23 834.381   5
   3   5   2 3907.53 888.275   5
  -3   5  -2 5703.21 1205.36  10
  -3  -5  -3-25.6392 336.778   8
   3   5   3-442.837 360.126   4
   3  -5   3 28.2779 292.164  12
  -3   5  -3 141.410 376.990  11
   3  -5   3-202.987 427.113   5
   3   5   3-1.47930 351.787   5
  -3   5  -3 813.127 599.417  10
  -3  -5  -4 719.967 496.868   8
   3   5   4 1239.54 493.744  12
   3  -5   4 1251.57 647.099  12
   3   5   4 1265.09 509.365   4
  -3   5  -4 1799.12 785.726  11
   3  -5   4 803.496 434.684   5
   3   5   4 760.357 410.824   5
  -3   5  -4 427.468 383.348  10
  -3  -5  -5 427.755 382.507   8
   3   5   5 771.141 649.585  12
   3  -5   5-135.079 151.476  12
  -3   5  -5 372.683 454.425  11
   3  -5   5 182.316 390.184   5
   3   5   5 428.473 404.277   5
  -3   5  -5-267.313 507.031  10
   3  -5   6-526.973 270.961   5
   3   5   6-137.319 447.402   5
  -3  -6   8 73.4416 326.701   6
  -3   6   8 1627.94 786.223   6
  -3   6   7 2236.83 1002.82   9
  -3  -6   7 2168.20 889.462   6
  -3   6   7 1269.89 683.874   6
   3  -6  -7 2618.27 983.729   8
   3  -6  -7 1018.80 509.831   7
   3   6  -7 1753.98 841.086   7
  -3   6   6-76.6363 396.960   9
  -3  -6   6 203.430 249.907   6
  -3   6   6-377.240 495.514   6
   3  -6  -6 456.920 360.720   8
   3  -6  -6 230.368 114.560   7
   3   6  -6 187.205 248.540   7
  -3   6   5 2105.17 789.876   9
   3  -6  -5 1762.04 704.832   8
  -3  -6   5 2264.55 728.895   6
  -3   6   5 1839.99 678.186   6
   3  -6  -5 2714.84 936.398  13
   3  -6  -5 1872.65 587.505   7
   3   6  -5 1856.64 710.148   7
  -3  -6   5 1246.33 534.086   2
  -3   6   4 494.638 345.759   9
  -3  -6   4 268.807 278.279   6
  -3   6   4 469.502 216.134   6
   3  -6  -4 124.624 64.8479   8
   3  -6  -4 192.435 316.356  13
   3  -6  -4-19.6891 297.340   1
   3  -6  -4 552.884 301.758   7
   3   6  -4 457.096 389.212   7
  -3  -6   4-175.405 175.479   2
  -3  -6   3 18045.4 1823.02   6
  -3   6   3 23117.6 2034.47   6
   3  -6  -3 23624.3 2215.25   8
   3  -6  -3 20645.8 2220.11   1
   3  -6  -3 13482.3 1864.90  13
  -3  -6   3 23890.5 2656.85   2
   3   6  -3 23931.7 2482.51   7
   3  -6  -3 17123.1 2099.98   3
  -3   6   3 17727.4 2410.21   9
  -3  -6   2 8752.62 1146.95   6
  -3   6   2 9508.46 1238.03   6
   3  -6  -2 7728.03 1279.45   1
   3  -6  -2 8229.19 1193.38   8
  -3  -6   2 9039.74 1481.71   2
   3   6  -2 10471.6 1550.95   7
   3  -6  -2 8217.85 1339.94   3
  -3   6   2 9696.64 1702.79   9
   3  -6  -1-485.445 468.387   3
  -3  -6   1 596.287 360.632   2
   3  -6  -1 105.157 153.631   8
   3  -6  -1 284.512 211.218   5
   3   6  -1 702.762 339.298   5
  -3   6   1 447.109 329.455   4
   3  -6  -1 371.838 77.1428   1
  -3   6   1 890.904 501.899  10
   3  -6   0 3345.14 844.404   3
   3  -6   0 3840.29 627.735   8
  -3  -6   0 3650.94 971.227   8
   3   6   0 4651.45 1090.03   4
  -3  -6   0 4758.28 1048.03   2
   3  -6   0 4631.08 915.368  12
  -3   6   0 3846.84 822.113   4
   3  -6   0 3392.96 689.092   5
   3   6   0 4139.43 758.649   5
  -3   6   0 4814.16 1115.81  10
  -3  -6  -1 577.530 467.785   8
   3   6   1 909.398 507.509   4
  -3   6  -1 479.944 332.456   4
   3  -6   1 892.406 667.694   5
   3  -6   1 2569.01 1641.71   3
   3   6   1 384.082 404.891   5
  -3   6  -1 657.267 511.916  10
  -3  -6  -2 1048.64 508.085   8
   3   6   2 1463.46 570.556   4
   3  -6   2 2076.41 734.235  12
   3  -6   2 1493.84 529.240   5
   3   6   2 847.193 400.943   5
  -3   6  -2 1897.62 668.458  10
  -3  -6  -3 795.698 589.896   8
   3   6   3 1003.85 465.345   4
   3  -6   3 966.456 568.233  12
  -3   6  -3 521.980 540.059  11
   3  -6   3 1146.65 551.028   5
   3   6   3 928.783 520.801   5
  -3   6  -3 493.251 127.034  10
  -3  -6  -4 6658.72 1496.36   8
   3  -6   4 2316.04 922.274  12
   3   6   4 1296.20 720.481   4
  -3   6  -4 5559.39 1343.31  11
   3  -6   4 3752.28 1080.66   5
   3   6   4 2896.58 1159.41   5
  -3   6  -4 5067.04 1356.02  10
  -3  -6  -5-132.068 265.986   8
  -3   6  -5 351.837 601.576  11
   3  -6   5 504.344 471.416   5
   3   6   5 238.953 229.533   5
   3   7  -7-65.8748 93.6245   7
  -3   7   6 1875.02 809.959   9
  -3  -7   6 540.123 331.986   2
   3  -7  -6 1202.18 714.736   8
   3   7  -6 1801.67 693.270   7
   3  -7  -6 2146.57 866.355   1
  -3   7   5 3691.84 1123.34   9
   3  -7  -5 2980.59 975.763   8
   3  -7  -5 5205.76 1346.70  13
   3   7  -5 3668.24 997.842   7
  -3  -7   5 3129.42 1073.25   2
   3  -7  -5 2657.37 944.065   1
  -3   7   4 388.233 39.2473   9
   3  -7  -4 625.239 414.754   8
   3  -7  -4 547.537 612.784  13
   3   7  -4 718.146 409.111   7
  -3  -7   4 300.099 146.403   2
   3  -7  -4 768.431 577.275   1
  -3  -7   3 598.572 83.1649   2
   3  -7  -3 270.289 20.6010   1
   3  -7  -3 112.773 283.006  13
   3  -7  -3-36.2194 215.835   8
   3   7  -3-38.5483 148.205   7
   3  -7  -2 6581.91 1138.67   8
  -3  -7   2 10034.8 1668.06   2
   3   7  -2 9237.26 1520.83   7
   3  -7  -2 7464.69 1338.80   1
   3  -7  -2 7010.22 1313.92   3
   3  -7  -1 156.940 379.343   3
   3   7  -1 466.066 508.688   4
  -3  -7   1-107.463 191.364   2
   3  -7  -1 547.417 433.362   1
   3  -7  -1 369.122 257.084   8
  -3   7   1 243.983 278.167   4
  -3   7   1-74.5225 239.350  10
   3  -7   0 1245.08 581.746   3
  -3  -7   0 1985.74 828.839   8
   3   7   0 1955.99 897.633   4
  -3  -7   0 1303.89 619.595   2
  -3   7   0 849.442 425.245   4
  -3   7   0 1219.29 618.678  10
   3   7   1 10080.2 1641.91   4
  -3  -7  -1 9022.32 1589.55   8
   3  -7   1 8875.87 1446.39  12
  -3   7  -1 10235.9 1747.11  10
   3  -7   1 8606.66 1532.23   3
   3  -7   2 1272.43 601.880   3
  -3  -7  -2 1239.22 644.891   8
   3   7   2 1446.12 622.806   4
   3  -7   2 1411.48 577.550  12
  -3   7  -2 1959.61 918.926  10
   3  -7   3-22.2027 291.078   3
  -3  -7  -3 686.462 497.758   8
   3   7   3 164.203 319.240   4
   3  -7   3 3.85040 99.4536  12
  -3   7  -3-516.653 417.591  10
   3  -7   4 2459.16 1008.95  12
   3   7   4 1878.52 844.739   4
  -3   7  -4 2533.09 1492.18  10
   3  -7   4 1054.54 650.488   3
   3  -7   5-392.030 565.852   3
   3   8  -6 3849.08 1389.15  10
  -3   8   5 456.902 317.867   9
   3  -8  -5 1485.79 769.317   8
   3  -8  -5 1844.46 1082.96  13
   3  -8  -5 384.566 314.306   1
   3   8  -5-233.482 235.377   7
  -3  -8   5 917.547 723.276   2
   3   8  -5 2837.47 1168.84  10
  -3   8   4-292.563 532.036   9
   3  -8  -4-178.520 97.6913   1
   3  -8  -4 451.440 427.679   8
   3  -8  -4 94.6860 130.517  13
   3   8  -4-121.630 242.642   7
  -3  -8   4-15.5866 500.958   2
  -3   8   3 5494.20 1573.97   9
  -3  -8   3 6050.42 1418.51   2
   3  -8  -3 5318.23 1185.26   8
   3  -8  -3 4768.98 1165.93  13
   3   8  -3 5565.92 1249.38   7
   3  -8  -3 3609.98 1092.85   1
  -3  -8   2 2103.76 940.264   2
   3  -8  -2 3144.91 1019.08   3
   3  -8  -2 1802.64 679.061   8
   3  -8  -2 1669.37 499.750  13
   3  -8  -2 1666.67 695.166   1
  -3   8   2 2388.25 861.644   4
   3   8  -2 1983.92 737.381   7
   3  -8  -1-148.006 318.879   3
   3  -8  -1 190.336 271.645   8
   3   8  -1 357.260 409.480   4
  -3  -8   1 543.941 529.616   2
  -3   8   1 516.297 477.881   4
  -3   8   1 242.327 276.450  10
   3  -8   0 1659.45 746.122   3
  -3  -8   0 377.078 319.441   8
   3   8   0 1319.15 778.562   4
  -3  -8   0 1092.69 628.990   2
  -3   8   0 855.417 389.909   4
  -3   8   0 1461.92 640.153  10
  -3  -8  -1 1078.29 883.722   8
   3   8   1 966.882 641.529   4
   3  -8   1 1545.07 675.865  12
  -3   8  -1 1002.35 658.332  10
   3  -8   2 1182.61 598.235   3
  -3  -8  -2 256.149 132.867   8
   3   8   2 53.0970 433.632   4
   3  -8   2 1504.79 745.284  12
  -3   8  -2 297.989 281.284  10
   3  -8   3-20.4740 347.055   3
  -3  -8  -3 399.870 438.206   8
   3   8   3 206.043 421.553   4
   3  -8   3 465.411 511.937  12
  -3   8  -3 841.779 654.809  10
   3  -8   4 347.242 644.372   3
   3   8   4 1607.07 829.766   4
  -3  -9   4 7121.40 1592.98   2
  -3   9   4 8868.80 1938.21   9
   3  -9  -4 7511.41 1571.63   8
   3  -9  -4 7274.54 1636.37  13
   3  -9  -4 6746.13 1596.35   1
   3  -9  -3 191.112 272.155   8
  -3  -9   3-111.805 411.636   2
   3  -9  -3 191.841 344.685  13
   3  -9  -3-169.150 228.614   1
  -3  -9   2 446.950 425.589   2
   3   9  -2 220.243 371.965   4
   3  -9  -2 359.459 417.833   8
   3  -9  -2 240.451 386.426  13
  -3   9   2 1168.91 631.167   4
   3  -9  -1 65.9494 296.947   3
   3   9  -1 306.260 272.783   4
  -3  -9   1 556.316 278.781   2
  -3   9   1 263.965 138.170   4
   3   9  -1 24.1360 177.482   7
  -3   9   1 241.558 340.162  10
   3  -9   0 4717.65 1343.89   3
  -3  -9   0 5314.99 1355.47   8
   3   9   0 5574.53 1447.46   4
  -3  -9   0 3966.98 1181.84   2
  -3   9   0 5207.31 1272.81  10
   3  -9   1 1277.45 673.942   3
  -3  -9  -1 2744.99 1010.07   8
   3   9   1 1792.87 692.469   4
   3  -9   1 1651.55 701.922  12
  -3   9  -1 3134.97 976.390  10
   3  -9   2 915.325 632.154   3
   3   9   2 409.068 317.752   4
   3  -9   2 911.219 516.313  12
  -3   9  -2 1688.13 910.690  10
   3 -10  -4 497.340 696.949   8
   3 -10  -3 7507.20 1561.06   8
  -3  10   2 1650.93 830.771   4
  -3 -10   1 4838.74 1231.18   2
  -3  10   1 5812.18 1461.95   4
  -3 -10   0 156.769 499.550   2
  -3  10   0 287.624 366.596  10
  -3  10  -1 8352.16 1736.16  10
  -4   0   8-243.148 409.684   9
   4   0  -8-107.443 225.130   7
  -4   0   7-158.094 229.345   6
  -4   0   7 201.235 200.749  14
  -4   0   6 37377.9 3226.12   9
  -4   0   6 43246.3 3141.60  14
   4   0  -6 43589.9 3396.92   7
  -4   0   6 46464.1 3815.73   6
  -4   0   5 34723.1 2841.64   9
  -4   0   5 34813.4 2779.22  14
   4   0  -5 34350.3 2804.66   7
  -4   0   4 21265.6 2018.24   9
  -4   0   4 13773.1 1676.96  14
   4   0  -4 20504.8 1311.38  13
   4   0  -4 16669.0 1956.10   7
  -4   0   4 11456.4 1777.17   6
  -4   0   3 32439.4 2235.58   9
  -4   0   3 31829.3 2545.26  14
  -4   0   3 31160.9 1205.21  12
   4   0  -3 33061.7 2477.19   7
  -4   0   3 33756.4 2606.02   6
  -4   0   2 22965.1 1710.07   9
  -4   0   2 24303.8 2167.70   6
  -4   0   2 21623.8 2061.91  14
   4   0  -2 23306.4 1425.93  12
  -4   0   2 23452.0 1425.68  12
   4   0  -2 24826.1 2157.13   7
  -4   0   2 21906.8 1715.52  11
   4   0  -1 10908.8 1074.96   9
   4   0  -1 13006.2 1559.93   5
  -4   0   1 13922.8 1703.72  14
   4   0  -1 11924.4 1219.15  12
  -4   0   1 12052.3 1320.63  11
  -4   0   1 12941.6 1174.05   9
   4   0   0 10581.5 988.797   9
  -4   0   0 13074.9 1544.19  14
   4   0   0 14297.4 1828.22  12
  -4   0   0 11688.0 1424.61  11
  -4   0   0 14531.7 1738.34  10
   4   0   1 10503.9 836.535   9
   4   0   1 9689.28 516.569   4
  -4   0  -1 11338.2 1363.47  14
   4   0   1 10349.1 1407.98   5
   4   0   1 10029.5 1375.58  12
  -4   0  -1 12102.0 1591.87  11
  -4   0  -1 13286.2 1642.43  10
  -4   0  -2 40271.8 2458.51  14
   4   0   2 36437.6 2917.38   5
   4   0   2 36800.7 2881.86  12
  -4   0  -2 35352.8 2999.03  11
  -4   0  -2 39685.0 2905.84  10
   4   0   3 481.429 493.816  12
   4   0   3 1716.38 720.899   5
  -4   0  -3 2003.76 785.955  10
   4   0   4 980.452 616.030  12
  -4   0  -4 1356.37 624.469  11
   4   0   4 2573.64 863.480   5
  -4   0  -4 1172.16 625.949  10
   4   0   5 1555.01 730.123  12
  -4   0  -5 468.491 189.729  11
   4   0   5 2939.15 990.838   5
  -4   0  -5 1825.72 703.269  10
  -4   1   8 5554.79 1494.25   9
  -4  -1   8 4514.93 1308.92   9
  -4  -1   8 6202.18 1547.25   6
  -4   1   8 5075.61 1431.18   6
   4  -1  -8 4732.60 1246.67   7
   4   1  -8 4921.60 1337.99   7
  -4   1   7 1369.23 823.781   9
  -4  -1   7 624.106 324.346   9
  -4  -1   7 1304.61 900.919   6
  -4   1   7 1215.70 902.111   6
  -4   1   7 1233.78 703.521  14
  -4  -1   7 736.769 538.982  14
   4  -1  -7 2270.78 1150.33   7
  -4   1   6 1720.96 666.073   9
  -4  -1   6 1369.89 533.104   9
  -4  -1   6 2153.62 839.938   6
  -4   1   6 2891.36 1008.45   6
  -4  -1   6 1622.15 405.670  14
  -4   1   6 1790.97 686.452  14
   4  -1  -6 2689.35 893.673   7
   4   1  -6 2841.46 949.811   7
  -4   1   5 36799.1 2958.26   9
  -4  -1   5 34314.6 2902.58   9
  -4  -1   5 37524.5 2875.28  14
  -4   1   5 36422.0 2852.92  14
   4  -1  -5 39419.8 2916.88   7
   4   1  -5 38225.1 3028.71   7
  -4  -1   5 45120.2 3534.28   6
  -4   1   5 46520.3 3578.15   6
  -4   1   4 12429.7 1747.41   9
  -4  -1   4 14219.3 1808.34   9
  -4   1   4 9532.16 1422.52  14
  -4  -1   4 9943.21 1445.63  14
   4  -1  -4 8256.95 922.890  13
   4  -1  -4 12485.5 1652.64   7
   4   1  -4 13160.4 1736.91   7
  -4  -1   4 13181.6 1754.46   6
  -4   1   4 12694.6 1692.82   6
  -4   1   3 588.551 321.489   9
  -4  -1   3 660.271 343.028   9
  -4  -1   3 892.196 471.101   6
  -4   1   3 880.430 519.525   6
  -4  -1   3 594.890 434.009  14
  -4   1   3 319.275 424.624  14
  -4  -1   3 507.688 209.955  12
   4   1  -3 1354.62 430.410  11
   4  -1  -3 631.473 312.405   7
   4   1  -3 376.676 302.563   7
  -4   1   2 200.987 247.359   9
  -4  -1   2 255.332 205.263   9
  -4  -1   2-693.403 354.690   6
  -4   1   2 273.890 109.395   6
  -4  -1   2 128.092 303.499  14
   4  -1  -2 295.278 165.045  12
  -4   1   2 150.311 9.81542  12
  -4  -1   2 207.771 132.391  11
  -4   1   2 169.422 282.958  14
   4  -1  -2 408.789 303.322   7
   4   1  -2-109.618 215.149   7
  -4   1   1 1578.34 453.707   9
  -4  -1   1 1439.26 378.794   9
  -4  -1   1 1840.39 699.098  14
  -4   1   1 2039.39 738.440  14
   4   1  -1 809.574 345.215  12
   4  -1  -1 753.011 268.035   5
   4   1  -1 866.194 386.503   5
   4  -1  -1 1070.53 244.347  12
  -4   1   1 789.972 358.463  11
  -4  -1   1 538.253 353.216  11
  -4  -1   0 32821.2 2506.37  14
   4  -1   0 31332.1 2472.74   5
   4   1   0 31166.4 2462.17   5
  -4   1   0 30514.2 2331.97  14
   4   1   0 28993.6 2163.88  12
   4  -1   0 30551.9 2170.45  12
  -4   1   0 28287.0 2246.58  11
  -4  -1   0 29600.2 2270.86  11
  -4   1   0 34081.8 2633.38  10
   4   1   1 2325.27 388.555   4
  -4  -1  -1 1785.82 461.273  14
  -4   1  -1 1684.08 489.831  14
   4   1   1 2228.94 676.594  12
   4  -1   1 2085.86 681.325  12
   4  -1   1 1818.62 639.354   5
   4   1   1 2744.78 713.161   5
  -4   1  -1 2548.55 718.101  11
  -4  -1  -1 2301.24 690.137  11
  -4  -1  -1 2479.62 693.622  10
  -4   1  -1 3218.42 912.434  10
  -4  -1  -2 363.243 219.790  14
  -4   1  -2 739.862 326.931  14
   4   1   2 653.403 466.452  12
   4  -1   2 724.639 514.230  12
   4  -1   2 1266.35 621.421   5
   4   1   2 1077.20 560.162   5
  -4   1  -2 135.164 269.832  11
  -4  -1  -2 2075.58 897.291  11
  -4  -1  -2 1033.41 429.983  10
  -4   1  -2 645.499 377.217  10
   4   1   3 4312.76 1214.51  12
   4  -1   3 3645.00 1091.47  12
  -4   1  -3 12117.7 2010.12  11
  -4  -1  -3 11204.8 1958.46  11
   4  -1   3 5094.52 1408.61   5
   4   1   3 3332.77 1276.50   5
  -4  -1  -3 8780.45 1417.21  10
  -4   1  -3 6505.55 1558.55  10
   4   1   4 1577.01 716.072  12
   4  -1   4 1541.71 725.539  12
  -4   1  -4 573.915 316.787  11
  -4  -1  -4 837.423 534.036  11
   4  -1   4 2244.17 710.601   5
   4   1   4 1710.14 692.442   5
  -4  -1  -4 1567.45 647.033  10
  -4   1  -4 1479.62 705.236  10
   4   1   5 2212.01 921.968  12
   4  -1   5 1306.38 636.230  12
  -4   1  -5 1569.07 865.241  11
  -4  -1  -5 1410.56 689.095  11
   4  -1   5 1648.86 832.960   5
   4   1   5 2609.40 1086.76   5
  -4   1  -5 2081.90 785.403  10
  -4   1  -6 4831.06 1397.87  10
  -4   2   8 2194.72 941.414   9
  -4  -2   8 1822.39 826.422   9
  -4  -2   8 2675.17 1026.84   6
  -4   2   8 2391.13 1060.98   6
   4  -2  -8 1773.39 735.281   8
   4  -2  -8 1789.71 846.123   7
   4   2  -8 1391.33 653.582   7
  -4   2   7 1027.21 645.779   9
  -4  -2   7 832.083 674.418   9
  -4  -2   7 1063.20 627.683   6
  -4   2   7 2132.65 911.213   6
  -4  -2   7 543.467 303.363  14
   4  -2  -7 1120.48 762.984   7
   4   2  -7 1410.20 726.417   7
  -4   2   6 9650.96 1731.82   9
  -4  -2   6 6490.34 1353.94   9
  -4  -2   6 8390.14 1407.63  14
  -4   2   6 9230.04 1548.11  14
   4  -2  -6 8406.27 1480.58   7
   4   2  -6 9278.62 1614.28   7
  -4  -2   6 11643.3 1951.12   6
  -4   2   6 10923.9 1816.06   6
  -4   2   5 46562.0 3458.04   9
  -4  -2   5 31542.5 2717.37   9
  -4  -2   5 41917.9 3083.62  14
  -4   2   5 49008.0 3489.60  14
   4  -2  -5 45039.1 3130.70   7
   4   2  -5 45796.5 3382.78   7
   4  -2  -5 40400.0 1999.72   3
  -4  -2   5 54827.4 3945.25   6
  -4   2   5 51239.6 3774.16   6
  -4   2   4 61563.2 3781.78   9
  -4  -2   4 68010.8 3852.60  14
  -4   2   4 56184.3 3689.60  14
   4  -2  -4 67049.4 2960.24  13
   4  -2  -4 68580.8 3662.04   7
   4   2  -4 67648.5 4007.04   7
   4  -2  -4 64264.6 2881.82   3
  -4  -2   4 70185.4 4081.85   6
  -4   2   4 71811.1 4086.20   6
  -4  -2   3 17190.2 1870.59   6
  -4   2   3 17815.7 1870.91   6
  -4   2   3 17149.7 1819.10   9
  -4  -2   3 15261.8 1511.23   9
  -4  -2   3 18283.6 1997.79  14
  -4   2   3 18987.5 2022.70  14
   4  -2  -3 15272.7 755.958  12
   4  -2  -3 18204.8 1736.11   7
   4   2  -3 18034.9 1940.07   7
  -4   2   2 255.815 228.692   9
  -4  -2   2 498.674 279.374   9
  -4  -2   2-88.7623 175.154   6
  -4   2   2 194.604 262.926   6
  -4  -2   2 319.096 408.290  14
  -4   2   2-188.812 270.437  14
   4  -2  -2 446.635 224.698  12
  -4  -2   2 141.591 103.037  11
   4  -2  -2-237.967 160.816   7
   4   2  -2-145.467 290.421   7
  -4  -2   1 22500.5 1225.48   9
   4  -2  -1 21219.8 1399.06   4
   4  -2  -1 21052.1 1982.14   5
   4   2  -1 23089.4 2107.72   5
  -4   2   1 23455.3 2173.10  14
  -4  -2   1 22152.0 2166.71  14
   4   2  -1 20736.8 1796.13  12
   4  -2  -1 21033.0 1608.39  12
  -4   2   1 21571.0 1986.99  11
  -4  -2   1 20884.8 1702.66  11
  -4   2   1 23743.3 2299.90  10
  -4   2   1 24717.0 1976.47   9
   4  -2   0 52500.1 1502.74   4
   4  -2   0 53091.5 2156.11   1
  -4  -2   0 53385.7 3338.43  14
   4  -2   0 55939.3 3240.02   5
   4   2   0 59042.4 3406.37   5
  -4   2   0 62246.7 3473.57  14
   4   2   0 58974.4 3243.95  12
   4  -2   0 57145.9 2986.00  12
  -4   2   0 55040.9 3247.95  11
  -4  -2   0 53967.0 3077.08  11
  -4   2   0 62371.0 3754.44  10
  -4  -2  -1 1784.02 757.627  14
  -4   2  -1 783.351 326.289  14
   4   2   1 10.0322 180.818  12
   4  -2   1 918.569 445.825  12
   4   2   1 804.405 247.180   4
   4  -2   1 907.850 364.197   5
   4   2   1 698.776 351.766   5
  -4   2  -1 780.036 524.979  11
  -4  -2  -1 882.180 491.646  11
  -4   2  -1 1065.48 508.110  10
   4   2   2 4721.67 665.624   4
  -4  -2  -2 4972.20 984.991  14
   4   2   2 4190.04 1007.60  12
   4  -2   2 4815.73 1062.70  12
   4  -2   2 5552.18 1131.66   5
   4   2   2 4535.70 1053.83   5
  -4   2  -2 4600.12 1017.12  11
  -4  -2  -2 4305.23 1069.69  11
  -4  -2  -2 4900.50 900.289  10
  -4   2  -2 4292.04 1033.37  10
  -4  -2  -3 2936.34 772.923   8
   4   2   3 2220.93 816.385  12
   4  -2   3 2197.80 793.315  12
  -4   2  -3 3805.82 1066.45  11
  -4  -2  -3 2088.59 521.243  11
   4  -2   3 3609.54 1012.54   5
   4   2   3 3130.72 1003.23   5
  -4  -2  -3 4820.52 983.409  10
  -4   2  -3 4284.76 1106.46  10
   4   2   4 808.459 664.589  12
   4  -2   4 1584.93 753.475  12
  -4   2  -4 1301.61 751.878  11
  -4  -2  -4 578.005 451.981  11
   4  -2   4 504.499 508.469   5
   4   2   4 1460.71 700.686   5
  -4   2  -4 1156.95 643.057  10
   4   2   5 605.693 701.654  12
   4  -2   5 503.833 463.094  12
  -4   2  -5 1268.37 696.772  11
  -4  -2  -5-204.383 512.214  11
   4  -2   5 1511.41 776.588   5
   4   2   5 1557.45 894.349   5
  -4   2  -5 636.527 535.242  10
  -4   3   8 7819.91 1748.48   9
  -4  -3   8 6500.42 1651.00   9
  -4  -3   8 7887.06 1759.30   6
  -4   3   8 6918.75 1652.87   6
   4  -3  -8 6699.66 1595.23   8
   4  -3  -8 6894.49 1543.22   7
   4   3  -8 7881.66 1696.67   7
  -4   3   7 15236.9 2325.45   9
  -4  -3   7 13227.9 2118.15   9
   4  -3  -7 15513.7 2347.36   8
  -4  -3   7 12951.2 1800.39  14
   4  -3  -7 13777.0 2033.30   7
   4   3  -7 16086.5 2349.38   7
  -4  -3   7 16846.4 2410.39   6
  -4   3   7 16496.6 2442.84   6
  -4   3   6-404.684 457.674   9
  -4  -3   6 950.273 619.498   9
  -4  -3   6 474.216 596.032   6
  -4   3   6-82.5097 355.984   6
  -4  -3   6 263.955 456.798  14
   4  -3  -6-34.7773 321.091   7
   4   3  -6 295.717 289.471   7
  -4   3   5 1242.71 635.453   9
  -4  -3   5 1.26364 644.373   9
  -4  -3   5 1757.17 544.360   6
  -4   3   5 652.500 310.651   6
   4  -3  -5 1857.73 503.852   3
  -4  -3   5 1496.64 709.427  14
   4  -3  -5 1691.38 693.115  13
   4  -3  -5 1693.62 574.104   7
   4   3  -5 1873.60 663.689   7
  -4   3   4 19908.3 2314.99   9
  -4  -3   4 27999.7 2377.88   9
  -4  -3   4 24121.2 2347.89  14
  -4   3   4 19406.3 2201.16  14
   4  -3  -4 19234.3 1710.84  13
   4  -3  -4 21951.6 1994.97   7
   4   3  -4 19778.1 2342.15   7
   4  -3  -4 24652.0 1941.48   3
  -4  -3   4 17923.2 2110.14   6
  -4   3   4 20940.1 2145.69   6
  -4   3   3 19044.9 2051.66   9
  -4  -3   3 18070.5 1889.19   6
  -4   3   3 18965.4 1963.90   6
  -4  -3   3 16540.6 1608.59   9
  -4  -3   3 16872.4 1954.91  14
  -4   3   3 17355.8 2071.82  14
   4  -3  -3 17550.6 1004.66  12
   4  -3  -3 18332.5 1680.64   7
   4   3  -3 19350.3 2079.12   7
  -4  -3   3 16710.7 949.522  11
  -4   3   2 7.80020 101.354   9
  -4  -3   2 140.078 188.775   9
  -4  -3   2-174.675 183.321   6
  -4   3   2-296.762 348.682   6
  -4  -3   2 209.524 338.132  14
  -4   3   2 457.356 363.053  14
   4  -3  -2 5.92664 71.7803  12
  -4  -3   2 31.4769 9.85655  11
   4  -3  -2 102.229 129.340   7
  -4  -3   1 20596.4 1080.39   9
   4  -3  -1 17750.7 1317.07   4
   4  -3  -1 20327.9 1916.73   5
   4   3  -1 19174.9 1920.38   5
  -4  -3   1 14999.9 1850.35  14
  -4   3   1 21805.1 2180.04  14
   4  -3  -1 19822.4 1583.12  12
   4  -3  -1 24481.0 1866.39   7
  -4  -3   1 20432.7 1685.96  11
  -4   3   1 24449.2 2412.87  10
  -4   3   1 23289.8 2128.43   9
   4  -3   0 35871.3 1990.44   1
  -4  -3   0 30110.0 2619.44  14
   4  -3   0 38011.0 2699.78   5
   4   3   0 40714.4 2854.18   5
   4   3   0 39798.0 2827.26  12
   4  -3   0 36476.8 2442.49  12
  -4   3   0 35329.4 2747.14  11
  -4  -3   0 37110.1 2647.53  11
  -4   3   0 41746.4 3196.74  10
   4   3   1 39802.2 2348.83   4
  -4  -3  -1 26377.4 1628.29   2
  -4  -3  -1 38186.7 2937.01  14
   4  -3   1 39083.6 2834.57   5
   4   3   1 42971.6 3056.66   5
   4   3   1 35435.9 2861.52  12
   4  -3   1 36678.6 2663.03  12
  -4   3  -1 37667.9 2911.60  11
  -4  -3  -1 36764.6 2968.71  11
  -4   3  -1 46789.6 3404.53  10
  -4  -3  -2 3038.63 789.536   8
  -4  -3  -2 3643.87 893.448  14
   4   3   2 3312.93 667.984   4
   4   3   2 3659.87 1000.66  12
   4  -3   2 4351.15 983.201  12
  -4   3  -2 3192.01 952.522  11
   4  -3   2 3982.92 955.380   5
   4   3   2 3295.50 826.960   5
  -4  -3  -2 2358.83 767.464  11
  -4   3  -2 4680.52 1134.44  10
  -4  -3  -3 7945.63 1358.66   8
   4   3   3 6036.42 1413.70  12
   4  -3   3 5913.24 1274.12  12
  -4   3  -3 8588.03 1609.39  11
  -4  -3  -3 7275.38 1708.08  11
   4  -3   3 6069.66 1280.92   5
   4   3   3 5966.52 1290.74   5
  -4   3  -3 7795.84 1574.82  10
  -4  -3  -4 401.772 471.084   8
   4   3   4-264.332 220.442  12
   4  -3   4 286.191 120.083  12
  -4   3  -4 335.396 362.629  11
   4  -3   4-124.955 125.478   5
   4   3   4 761.495 642.118   5
  -4   3  -4 665.664 593.994  10
   4  -3   5 10194.7 1970.44   5
   4   3   5 11218.8 2140.38   5
  -4   3  -5 8789.50 1941.74  11
  -4   3  -5 9796.61 1896.12  10
  -4  -4   8 5276.51 1468.32   6
  -4   4   8 5356.70 1541.23   6
   4  -4  -8 4656.76 1241.66   7
  -4   4   7 1322.98 712.379   9
  -4  -4   7 2754.90 1247.32   9
  -4  -4   7 1886.41 916.750   6
  -4   4   7 2840.36 1012.97   6
  -4  -4   7 1319.89 620.152  14
   4  -4  -7 2452.70 913.429   8
   4  -4  -7 1618.99 774.935   7
   4   4  -7 2326.94 936.814   7
  -4   4   6-44.3470 316.097   9
  -4  -4   6 1597.72 1009.99   9
  -4  -4   6 426.695 468.242   6
  -4   4   6 377.699 392.401   6
  -4  -4   6 1100.44 505.783  14
   4  -4  -6 520.651 389.391   8
   4  -4  -6 732.713 512.619   7
   4   4  -6 66.9888 195.904   7
  -4   4   5 33981.5 3197.07   9
  -4  -4   5 30183.6 2877.11   9
   4  -4  -5 32138.7 2952.66   8
  -4  -4   5 29586.0 2735.47  14
   4  -4  -5 28639.8 2495.58  13
   4  -4  -5 30169.8 2489.96   7
   4   4  -5 32575.6 2996.55   7
  -4  -4   5 36630.4 3167.37   6
  -4   4   5 34588.8 3086.68   6
  -4   4   4 79184.7 4634.31   9
   4  -4  -4 85058.2 4471.99   8
  -4  -4   4 101112. 5050.13  14
   4  -4  -4 91040.5 4083.27  13
   4  -4  -4 80567.6 3812.09   7
   4   4  -4 85000.9 4638.70   7
   4  -4  -4 66402.0 3392.90   3
  -4  -4   4 78109.4 4405.58   6
  -4   4   4 74236.7 4431.33   6
  -4  -4   3 8260.07 1270.36   6
  -4   4   3 9653.25 1434.97   6
  -4  -4   3 7333.91 1160.12   9
  -4  -4   3 9118.65 1586.21  14
   4  -4  -3 8683.64 822.260  12
   4  -4  -3 7583.01 1036.74   7
   4   4  -3 8771.91 1460.36   7
   4  -4  -3 7883.24 1178.53   3
  -4   4   3 9380.22 1530.31   9
  -4  -4   2 5891.08 887.391   9
  -4   4   2 7857.34 1330.08   9
  -4  -4   2 5343.75 1006.37   6
  -4   4   2 6285.54 1133.99   6
   4  -4  -2 5345.01 759.330  12
   4  -4  -2 5973.77 876.985   7
  -4  -4   2 5848.00 758.443  11
  -4  -4   2 5098.99 918.370   2
   4   4  -2 6825.17 1250.61   7
  -4  -4   1 10912.4 810.156   9
   4  -4  -1 9688.37 1219.81   1
   4  -4  -1 11651.1 1221.66   8
   4  -4  -1 11460.9 1456.66   5
   4   4  -1 13094.9 1621.16   5
  -4  -4   1 10782.5 1370.61   2
   4  -4  -1 10826.7 1253.15  12
   4  -4  -1 12974.6 1229.92   7
  -4  -4   1 13413.8 1412.67  11
  -4   4   1 13305.4 1920.16  10
  -4   4   1 13165.0 1722.53   9
   4   4   0 70331.0 3710.33   4
   4  -4   0 69292.9 2450.61   8
   4  -4   0 71691.2 3732.18   5
   4   4   0 79865.3 4088.79   5
  -4  -4   0 58609.6 2946.33   2
   4  -4   0 66562.8 3415.87  12
  -4   4   0 70880.8 4107.60  11
  -4  -4   0 72819.5 3913.84  11
   4  -4   0 76899.6 3213.27   1
  -4   4   0 79808.2 4641.10  10
   4   4   1 99.7820 74.8282   4
   4  -4   1 95.4912 190.989  12
   4  -4   1 617.056 395.075   5
   4   4   1 591.267 391.343   5
  -4   4  -1 171.327 302.455  11
  -4   4  -1-146.786 336.709  10
  -4  -4  -1-388.285 390.265   2
  -4  -4  -2-441.069 463.749   8
   4   4   2 650.407 371.650   4
   4   4   2 304.441 242.240  12
   4  -4   2 53.8798 297.046  12
  -4   4  -2-57.9219 157.139  11
  -4  -4  -2 565.635 643.627  14
   4  -4   2 449.468 302.952   5
   4   4   2 176.746 130.246   5
  -4   4  -2-167.695 227.359  10
  -4  -4  -3 2571.50 872.503   8
   4   4   3 2081.50 770.281  12
   4  -4   3 2957.87 899.625  12
  -4   4  -3 3662.61 1052.98  11
   4  -4   3 1368.22 641.843   5
   4   4   3 2816.62 930.216   5
  -4   4  -3 3345.04 1007.58  10
  -4  -4  -4 3259.76 1021.90   8
   4   4   4 4164.90 1303.52  12
   4  -4   4 3762.89 1148.60  12
  -4   4  -4 3677.74 1131.15  11
  -4  -4  -4 6800.14 1869.17  11
   4  -4   4 3523.96 1008.85   5
   4   4   4 3508.15 1097.03   5
  -4   4  -4 4029.67 1217.92  10
   4  -4   5 82.2730 303.002   5
   4   4   5 1607.57 941.544   5
   4  -5  -8 3135.03 1078.48   7
  -4   5   7 4827.36 1383.65   9
  -4  -5   7 6877.16 1784.60   9
  -4  -5   7 3816.41 1132.02   6
  -4   5   7 4494.32 1330.17   6
  -4  -5   7 5304.15 1309.05  14
   4  -5  -7 4502.21 1464.54   8
   4  -5  -7 5375.87 1392.77   7
   4   5  -7 5688.90 1405.19   7
  -4   5   6 214.633 277.780   9
   4  -5  -6 368.689 407.041   8
  -4  -5   6-332.684 204.383   6
  -4   5   6 76.8903 269.392   6
  -4  -5   6 61.5258 258.447  14
   4  -5  -6 145.848 271.981   7
   4   5  -6 376.270 369.520   7
  -4   5   5 5468.75 1342.72   9
  -4  -5   5 6385.63 1222.67   6
  -4   5   5 4015.83 1044.51   6
  -4  -5   5 5059.46 1225.54  14
   4  -5  -5 3795.26 1029.31   8
   4  -5  -5 4935.24 1159.02  13
   4  -5  -5 5804.34 1057.83   7
   4   5  -5 4949.59 1211.36   7
  -4   5   4 6487.14 1448.47   9
   4  -5  -4 9848.13 1540.07   8
  -4  -5   4 9154.73 1625.50   2
   4  -5  -4 5800.92 1178.53  13
   4  -5  -4 8545.42 1170.62   7
   4   5  -4 9727.32 1612.04   7
   4  -5  -4 9735.31 1417.35   3
  -4  -5   4 7608.16 1400.95   6
  -4   5   4 7106.12 1265.00   6
  -4   5   3 2201.24 886.758   9
   4  -5  -3 2913.43 823.162   3
  -4  -5   3 3440.44 805.864   6
  -4   5   3 3379.58 876.576   6
   4  -5  -3 2495.77 694.997   8
   4  -5  -3 2437.35 503.015  12
   4  -5  -3 3292.79 633.799   7
  -4  -5   3 2406.21 716.915   2
   4   5  -3 3356.45 911.365   7
   4  -5  -2 351.309 166.033   3
  -4   5   2 1132.29 482.745   9
   4  -5  -2-185.789 220.084   1
  -4  -5   2 1654.93 572.765   6
  -4   5   2 1010.31 515.672   6
   4  -5  -2 373.771 293.883   5
   4   5  -2 863.111 392.183   5
   4  -5  -2 853.071 337.339   8
   4  -5  -2 782.441 358.409  12
   4  -5  -2 1081.57 346.748   7
  -4  -5   2 1340.25 419.699  11
   4   5  -2 857.199 562.131   7
  -4  -5   2 307.491 73.1839   2
   4  -5  -1 1236.59 392.807   1
   4  -5  -1 1329.22 414.818   8
   4  -5  -1 1825.87 515.616   5
   4   5  -1 1858.81 614.206   5
   4  -5  -1 1818.26 523.446  12
  -4   5   1 2408.96 911.166  10
  -4  -5   1 1765.12 633.945   2
   4   5   0 15316.6 1845.37   4
   4  -5   0 15137.2 1668.91   5
   4   5   0 16499.9 1788.56   5
  -4  -5   0 15121.5 1649.11   2
   4  -5   0 14448.5 1678.09  12
   4  -5   0 14690.1 1556.20   1
  -4   5   0 18507.3 2259.28  10
   4   5   1 12506.3 1642.13   4
  -4  -5  -1 10242.4 1627.31   8
   4  -5   1 11665.0 1540.84   5
   4   5   1 13157.3 1688.64   5
  -4  -5  -1 11354.5 1385.03   2
   4  -5   1 11360.3 1567.60  12
  -4   5  -1 12315.2 1828.00  11
  -4   5  -1 13574.7 2046.80  10
  -4  -5  -2 925.723 538.169   8
   4   5   2 327.756 91.9978   4
   4  -5   2 1038.25 563.905  12
  -4   5  -2 577.964 393.684  11
   4  -5   2 692.329 396.480   5
   4   5   2 1280.42 548.641   5
  -4   5  -2 852.167 624.168  10
  -4  -5  -3 861.707 538.380   8
   4  -5   3-16.7858 163.043  12
  -4   5  -3 785.354 496.249  11
   4  -5   3 714.459 576.271   5
   4   5   3 452.689 339.658   5
  -4   5  -3 28.4339 79.6885  10
  -4  -5  -4 786.755 471.007   8
   4   5   4 218.952 520.805  12
   4  -5   4 936.856 600.883  12
  -4   5  -4 116.097 144.640  11
   4  -5   4-222.523 138.905   5
   4   5   4 826.921 548.340   5
  -4   5  -4-82.1911 425.989  10
  -4  -6   7-281.364 244.754   6
  -4   6   7 112.723 218.278   6
  -4  -6   7-49.8639 254.266  14
   4   6  -7 496.273 437.423   7
  -4   6   6 12101.9 2174.21   9
   4  -6  -6 8995.70 1749.23   8
  -4  -6   6 8995.40 1742.68  14
   4   6  -6 9572.49 1802.06   7
  -4  -6   6 10199.0 1812.04   6
  -4   6   6 10398.4 1854.53   6
   4  -6  -5 9828.32 1700.45   8
  -4  -6   5 9997.33 1915.47  14
   4  -6  -5 8845.05 1593.29  13
   4   6  -5 10696.0 1821.26   7
  -4  -6   5 10075.6 1568.34   6
  -4   6   5 9509.62 1567.18   6
  -4   6   5 11715.3 2018.08   9
  -4   6   4 657.190 485.155   9
   4  -6  -4 615.077 467.958   3
  -4  -6   4 366.290 369.374   6
  -4   6   4 307.349 327.176   6
   4  -6  -4 573.203 303.644   8
   4  -6  -4 160.009 65.0110  13
  -4  -6   4-178.471 384.738   2
   4   6  -4 558.128 364.654   7
  -4   6   3 3874.68 1108.11   9
   4  -6  -3 2918.27 838.010   1
   4  -6  -3 3072.60 834.156   3
  -4  -6   3 3489.79 817.864   6
  -4   6   3 4420.70 973.888   6
   4  -6  -3 3738.79 946.053   8
   4   6  -3 4480.36 1157.40   7
  -4  -6   3 2969.76 808.300   2
   4  -6  -2 2589.75 782.260   3
  -4   6   2 2591.80 939.337   9
   4  -6  -2 2373.64 677.009   8
   4  -6  -2 2202.77 710.457   1
   4  -6  -2 2326.00 622.113   5
   4   6  -2 2533.29 706.407   5
   4  -6  -2 3108.20 673.926  12
   4   6  -2 3415.33 977.729   7
  -4  -6   2 3322.53 853.670   2
   4  -6  -1 3090.62 854.544   3
  -4  -6   1 4630.11 1109.46   2
   4  -6  -1 3539.62 691.829   8
   4  -6  -1 3823.69 818.101  12
   4  -6  -1 3959.75 828.291   5
   4   6  -1 4481.89 895.792   5
   4  -6  -1 3345.70 824.600   1
  -4   6   1 3146.05 1053.64  10
  -4  -6   0 3747.27 882.788   2
   4   6   0 4532.07 1098.67   4
   4  -6   0 4735.86 1030.69  12
   4  -6   0 4327.25 898.828   5
   4   6   0 4565.23 959.225   5
   4  -6   0 3412.94 1031.91   3
  -4   6   0 5164.58 1190.36  10
  -4  -6  -1 398.516 400.064   2
  -4  -6  -1 200.154 368.742   8
   4   6   1 97.4333 207.968   4
   4  -6   1 694.249 505.736  12
   4  -6   1 1010.77 616.173   5
   4   6   1 790.916 526.328   5
  -4   6  -1 510.929 431.935  10
  -4  -6  -2 5455.26 1282.19   8
   4   6   2 5593.61 1243.07   4
   4  -6   2 4581.03 1167.03  12
   4  -6   2 3469.81 855.182   5
   4   6   2 4551.60 1038.98   5
  -4   6  -2 5741.92 1432.01  10
  -4  -6  -3 1856.22 821.562   8
   4  -6   3 1160.09 622.228  12
  -4   6  -3 1350.47 719.627  11
   4  -6   3 1634.66 719.407   5
   4   6   3 368.837 330.297   5
  -4   6  -3 984.603 737.430  10
  -4  -6  -4 419.432 287.881   8
   4  -6   4 942.417 513.990   5
   4   6   4 245.263 291.551   5
  -4  -7   7 1180.97 1050.73  14
  -4  -7   6 1152.72 767.171  14
   4  -7  -6 637.290 567.777   8
   4   7  -6 126.312 205.754   7
   4  -7  -5 13073.0 2039.05   8
  -4  -7   5 15267.7 2474.09   2
   4  -7  -5 10641.8 1982.10   1
   4  -7  -5 12385.9 2004.77  13
   4   7  -5 16666.2 2313.41   7
  -4   7   5 16630.0 2600.33   9
  -4   7   4 5127.17 1560.38   9
   4  -7  -4 3745.70 1097.45   1
   4  -7  -4 4919.39 1121.74   8
   4  -7  -4 5406.10 1267.03  13
   4   7  -4 6032.01 1401.55   7
  -4  -7   4 5143.72 1326.61   2
  -4   7   3 1822.43 867.280   9
   4  -7  -3 1257.91 628.199   3
   4  -7  -3 1059.44 411.745   8
   4  -7  -3 1011.45 495.928  13
   4  -7  -3 1183.15 553.480   1
   4   7  -3 1265.27 665.064   7
  -4  -7   3 766.762 496.114   2
   4  -7  -2 1141.11 584.570   1
  -4  -7   2 548.843 471.479   2
   4  -7  -2 496.902 293.751   3
   4  -7  -2 483.671 265.912   8
   4  -7  -2 860.446 421.109  12
   4   7  -2 1079.13 666.808   7
   4  -7  -1 4504.18 1170.92   3
  -4  -7   1 3751.86 1027.09   2
   4   7  -1 3539.61 1159.31   4
   4  -7  -1 3536.28 845.033  12
   4  -7  -1 3287.09 911.999   1
  -4   7   1 4558.68 1233.94  10
   4  -7   0 5707.05 1317.66   3
  -4  -7   0 6339.91 1265.36   2
   4   7   0 6538.14 1409.57   4
   4  -7   0 6322.05 1242.52  12
  -4   7   0 7576.34 1614.44  10
  -4  -7  -1-221.833 498.222   8
   4   7   1-82.9669 276.539   4
   4  -7   1 127.378 231.682  12
  -4   7  -1 115.240 126.756  10
   4  -7   1-449.333 585.160   3
  -4  -7  -2-45.7339 376.551   8
   4   7   2-36.7522 405.157   4
   4  -7   2-3.75755 318.482  12
   4  -7   2-787.637 552.578   3
  -4   7  -2 400.633 439.854  10
  -4  -7  -3 7690.49 1909.29   8
   4   7   3 4516.15 1274.25   4
   4  -7   3 4746.65 1203.72  12
   4   8  -6 3875.92 1209.20   7
   4  -8  -5 6356.56 1423.32   8
   4  -8  -5 3958.81 1360.94  13
   4   8  -5 6160.42 1433.66   7
  -4   8   4 36.8571 35.6205   9
   4  -8  -4-280.640 249.812   1
   4  -8  -4-191.665 479.718   8
   4  -8  -4-127.299 274.315  13
   4   8  -4-962.236 619.900   7
  -4  -8   4 208.639 484.271   2
   4  -8  -3 304.985 461.712   1
   4  -8  -3 13.5450 467.086   3
   4  -8  -3 155.415 303.896   8
   4  -8  -3 432.078 327.432  13
   4   8  -3 610.705 220.637   7
  -4   8   3 41.7756 269.037   9
  -4  -8   3 365.856 439.344   2
  -4  -8   2-185.740 202.772   2
   4  -8  -2 1183.81 699.707   3
   4  -8  -2 1103.05 672.075   1
   4   8  -2 791.509 515.535   7
   4  -8  -1 1678.52 870.182   3
  -4  -8   1 2635.19 952.762   2
   4   8  -1 1795.43 808.939   4
   4  -8  -1 1375.59 568.202  12
  -4   8   1 3476.46 1145.56  10
   4  -8   0 2943.97 1158.42   3
  -4  -8   0 3035.25 1017.45   2
   4   8   0 2014.03 862.356   4
   4  -8   0 2083.22 733.734  12
  -4   8   0 2710.07 1070.19  10
   4  -8   1 151.020 467.861   3
  -4  -8  -1-448.235 530.123   8
   4   8   1 175.910 272.736   4
   4  -8   1 606.920 483.609  12
  -4   8  -1 710.534 417.519  10
   4   8   2 753.070 559.387   4
   4  -8   2 1200.78 829.552  12
   4   8   3 62.5333 297.730   4
   4  -9  -4 6749.81 1494.55   8
  -4  -9   3 572.046 457.096   2
   4  -9  -3 1353.11 708.412   1
   4   9  -3 1968.60 808.136   7
  -4  -9   2-584.932 344.831   2
   4  -9  -2 398.676 540.014   3
   4   9  -2 484.484 544.489   4
   4   9  -2-17.3304 322.475   7
  -4  -9   1 951.575 728.369   2
   4  -9  -1 1336.89 759.769   3
   4   9  -1 926.810 823.558   4
   4  -9  -1 296.270 135.801  12
   4   9  -1 1865.71 1017.14   7
  -4   9   1 915.114 668.481  10
  -4  -9   0 4962.40 1271.91   2
   4  -9   0 4096.98 1101.00  12
   4   9   0 3584.66 1224.30   4
  -4   9   0 5475.60 1513.31  10
   4   9   1 4423.67 1316.79   4
   4  -9   1 2995.33 966.043  12
  -5   0   8-221.315 714.372  14
  -5   0   7 1040.43 507.609   9
  -5   0   7 2533.98 1076.46   6
  -5   0   7 1334.39 603.008  14
   5   0  -7 1891.80 764.202   7
  -5   0   6 14006.4 2048.50   9
  -5   0   6 13487.5 1981.86  14
   5   0  -6 14202.3 2036.97   7
  -5   0   6 16297.9 2345.12   6
  -5   0   5 48413.0 3649.22  14
   5   0  -5 49173.2 3990.24   7
  -5   0   5 52083.9 4004.38   6
  -5   0   4 7520.83 1433.71   6
  -5   0   4 6916.94 1227.14   9
  -5   0   4 5479.61 1118.02  14
   5   0  -4 6792.11 1309.91   7
  -5   0   3 705.199 305.335   9
  -5   0   3 775.975 531.089   6
  -5   0   3 921.855 497.512  14
   5   0  -3 643.588 527.881   7
  -5   0   2 294.815 250.493   9
  -5   0   2 519.442 417.957   6
  -5   0   2 655.757 165.451  14
   5   0  -2 892.589 362.248  12
  -5   0   2 399.816 318.907  11
   5   0  -2 1128.86 558.844   7
   5   0  -1 74231.2 4295.32   5
  -5   0   1 74349.4 4286.52  14
   5   0  -1 71387.1 3432.37  12
  -5   0   1 68224.3 3671.87  11
  -5   0   1 80834.5 3147.66   9
  -5   0   0 24097.0 2376.43  14
   5   0   0 25878.6 2559.71   5
   5   0   0 22871.6 2136.77  12
  -5   0   0 21809.6 2204.93  11
  -5   0  -1-42.8006 188.480  14
   5   0   1-478.618 309.275  12
   5   0   1 208.206 102.538   5
  -5   0  -1-233.463 308.872  11
  -5   0  -1-206.933 128.048  10
  -5   0  -2 3537.93 843.122  14
   5   0   2 2835.26 834.511  12
   5   0   2 4135.86 1183.15   5
  -5   0  -2 3417.23 1099.12  11
  -5   0  -2 4135.10 1102.07  10
   5   0   3 466.619 529.673  12
  -5   0  -3-583.105 559.335  11
   5   0   3 321.259 504.888   5
  -5   0  -3 579.051 531.513  10
   5   0   4 2452.19 907.940  12
  -5   0  -4 2334.00 1091.79  11
   5   0   4 2677.97 1017.27   5
  -5   0  -4 2681.63 975.620  10
  -5  -1   8 18373.5 2325.41  14
  -5   1   8 19034.8 2551.99  14
   5  -1  -8 19980.9 2692.45   7
  -5   1   7 3548.18 1071.70   9
  -5  -1   7 1951.62 602.018   9
  -5  -1   7 4456.12 1367.56   6
  -5   1   7 3625.91 1225.85   6
  -5  -1   7 3341.27 1001.72  14
  -5   1   7 3231.76 1038.56  14
   5  -1  -7 3325.64 1040.61   7
   5   1  -7 2541.99 929.620   7
  -5   1   6 1165.69 592.889   9
  -5  -1   6 557.804 330.553   9
  -5  -1   6-390.078 549.510   6
  -5   1   6 570.051 132.222   6
  -5  -1   6 252.276 27.9072  14
  -5   1   6 1115.04 599.053  14
   5  -1  -6 578.073 393.293   7
   5   1  -6 388.927 191.126   7
  -5   1   5 3717.75 1043.57   9
  -5  -1   5 5860.28 1217.11   9
  -5  -1   5 4723.98 1221.15   6
  -5   1   5 3568.46 1092.01   6
  -5  -1   5 1448.25 589.472  14
  -5   1   5 2317.27 810.734  14
   5  -1  -5 2503.07 875.295   7
   5   1  -5 2984.94 999.054   7
  -5  -1   4 11134.4 1732.46   6
  -5   1   4 10909.2 1681.51   6
  -5   1   4 10401.2 1561.55   9
  -5  -1   4 9913.25 1430.11   9
  -5  -1   4 9756.98 1687.49  14
  -5   1   4 9774.30 1659.44  14
   5  -1  -4 7750.10 912.270  13
   5  -1  -4 11212.6 1590.77   7
   5   1  -4 10143.2 1605.04   7
  -5   1   3 27373.8 2319.05   9
  -5  -1   3 26768.0 2083.79   9
  -5  -1   3 27756.3 2596.92   6
  -5   1   3 27907.9 2616.53   6
  -5  -1   3 26379.2 2616.92  14
  -5   1   3 24936.2 2572.51  14
   5  -1  -3 28982.5 2540.49   7
   5   1  -3 28339.3 2673.35   7
  -5   1   2 2519.06 671.760   9
  -5  -1   2 2554.03 580.624   9
  -5  -1   2 2231.23 731.781   6
  -5   1   2 2939.06 850.071   6
  -5  -1   2 2266.51 798.392  14
  -5   1   2 2799.10 837.306  14
   5  -1  -2 2254.07 519.671  12
  -5   1   2 2243.13 681.016  11
  -5  -1   2 2278.95 597.198  11
   5  -1  -2 2442.84 813.622   7
   5   1  -2 2448.08 749.410   7
  -5   1   1 1482.85 536.476   9
  -5  -1   1 1324.44 400.266   9
   5  -1  -1 5660.85 1505.97   5
   5   1  -1 5529.71 1502.73   5
  -5  -1   1 1117.86 520.840  14
  -5   1   1 1596.12 605.443  14
   5  -1  -1 6567.37 1499.86  12
  -5   1   1 1363.55 620.716  11
  -5  -1   1 1593.65 592.986  11
  -5  -1   0 26295.7 2560.83  14
   5  -1   0 23872.4 2429.53   5
  -5   1   0 23394.8 2303.41  14
   5   1   0 22562.2 2396.88   5
   5   1   0 22724.4 2187.21  12
   5  -1   0 24101.9 2169.99  12
  -5   1   0 22919.1 2300.17  11
  -5  -1   0 22238.4 2247.94  11
  -5   1   0 29965.2 2861.54  10
  -5  -1  -1-254.783 383.261  14
  -5   1  -1 123.764 222.122  14
   5   1   1 270.837 323.493  12
   5  -1   1 321.171 356.112  12
   5  -1   1 146.240 403.997   5
   5   1   1 576.506 454.341   5
  -5   1  -1-610.861 432.506  11
  -5  -1  -1 437.827 291.136  11
  -5  -1  -1 338.422 251.508  10
  -5   1  -1-61.0006 396.447  10
  -5  -1  -2 36957.2 2847.14  14
  -5   1  -2 31605.5 2660.30  14
   5  -1   2 12732.6 2162.39   5
   5   1   2 13972.5 2192.98   5
   5   1   2 13578.9 2101.71  12
   5  -1   2 11956.1 1834.93  12
  -5   1  -2 28231.3 3014.87  11
  -5  -1  -2 33371.8 3398.69  11
  -5  -1  -2 32559.2 2899.19  10
  -5   1  -2 32554.2 3161.84  10
   5   1   3 1053.24 666.601  12
   5  -1   3 1072.18 520.386  12
  -5   1  -3 1902.70 885.718  11
  -5  -1  -3 232.605 179.418  11
   5  -1   3 529.483 395.751   5
   5   1   3 552.935 157.790   5
  -5  -1  -3 1130.66 661.474  10
  -5   1  -3 1054.17 662.971  10
   5   1   4 420.014 286.555  12
   5  -1   4 561.686 241.150  12
  -5   1  -4-6.88665 58.8277  10
  -5  -2   8 1051.18 472.953  14
   5  -2  -8 1944.63 762.083   7
  -5   2   7 482.212 468.393   9
  -5  -2   7 404.968 235.089   6
  -5   2   7 1266.08 641.961   6
  -5  -2   7 22.9601 230.084  14
  -5   2   7 316.920 79.6184  14
   5  -2  -7 537.490 473.649   7
   5   2  -7 706.518 475.518   7
  -5   2   6 7566.88 1571.83   9
  -5  -2   6 5326.58 1219.31   9
  -5   2   6 8016.58 1581.19   6
  -5  -2   6 7120.51 1429.65  14
  -5   2   6 7412.62 1562.26  14
   5  -2  -6 6271.42 1331.01   7
   5   2  -6 7109.56 1450.08   7
  -5  -2   6 9454.74 1735.98   6
  -5   2   5 9586.58 1806.97   9
  -5  -2   5 15132.4 1974.93   9
  -5  -2   5 9335.69 1605.77  14
  -5   2   5 8625.48 1668.01  14
   5  -2  -5 11189.3 1735.72   7
   5   2  -5 12955.7 2012.50   7
  -5  -2   5 11866.3 1961.34   6
  -5   2   5 12996.2 2003.67   6
  -5  -2   4 11505.5 1745.23   6
  -5   2   4 12214.0 1796.18   6
  -5   2   4 12398.2 1763.92   9
  -5  -2   4 9458.12 1356.35   9
  -5  -2   4 9747.54 1657.79  14
  -5   2   4 10208.5 1714.07  14
   5  -2  -4 8600.42 1128.07  13
   5  -2  -4 12338.9 1677.40   7
   5   2  -4 10462.7 1692.88   7
  -5  -2   3 5024.85 866.966   9
  -5   2   3 5291.10 1123.41   9
  -5  -2   3 4768.61 1069.08   6
  -5   2   3 5123.01 1127.66   6
  -5  -2   3 4168.38 1045.99  14
  -5   2   3 4829.12 1201.59  14
  -5  -2   3 4607.65 734.967  11
   5  -2  -3 4808.82 1004.89   7
   5   2  -3 5224.98 1161.76   7
  -5   2   2 300.260 375.209   9
  -5  -2   2 418.241 283.433   9
  -5  -2   2 734.743 541.189   6
  -5   2   2 224.661 468.034   6
   5  -2  -2 281.659 194.811   5
   5   2  -2 106.034 224.050   5
  -5  -2   2 368.324 394.525  14
  -5   2   2 449.406 392.241  14
   5  -2  -2 671.562 326.954  12
  -5  -2   2 25.3522 116.911  11
   5  -2  -2 112.124 196.373   7
   5  -2  -1 26259.3 2584.56   5
   5   2  -1 25831.2 2605.65   5
  -5  -2   1 23936.7 2583.94  14
  -5   2   1 25826.0 2621.66  14
   5   2  -1 30433.0 2472.21  12
   5  -2  -1 22972.6 1920.78  12
  -5   2   1 24372.2 2357.98  11
  -5  -2   1 22613.8 2051.81  11
  -5   2   1 25829.3 2198.71   9
  -5  -2   0 31752.1 2896.96  14
   5  -2   0 29547.5 2664.07   5
   5   2   0 31110.6 2814.06   5
  -5   2   0 34455.3 2972.75  14
   5   2   0 31145.8 2648.30  12
   5  -2   0 32101.1 2538.41  12
  -5   2   0 31613.5 2748.33  11
  -5  -2   0 32161.2 2694.62  11
  -5   2   0 36888.4 3275.41  10
  -5  -2  -1 7854.11 1390.07  14
  -5   2  -1 7347.94 1309.62  14
   5   2   1 7047.91 1325.33  12
   5  -2   1 6362.53 1223.03  12
  -5   2  -1 7517.70 1412.07  11
   5  -2   1 7563.19 1379.01   5
   5   2   1 7049.98 1359.39   5
  -5  -2  -1 6399.48 1255.52  11
  -5   2  -1 8921.06 1644.80  10
  -5  -2  -2 1556.68 578.352  14
   5   2   2 1112.80 620.353  12
   5  -2   2 742.420 203.184  12
   5  -2   2 1465.84 747.951   5
   5   2   2 2333.04 987.499   5
  -5   2  -2 1322.08 523.562  11
  -5  -2  -2 1736.36 800.183  11
  -5  -2  -2 1799.89 694.793  10
  -5   2  -2 1861.99 874.587  10
   5   2   3 2080.84 855.289  12
   5  -2   3 897.477 384.410  12
  -5   2  -3 1903.76 915.676  11
  -5  -2  -3-321.415 769.161  11
   5  -2   3 1336.82 449.974   5
   5   2   3 2069.46 774.164   5
  -5   2  -3 1908.41 781.762  10
  -5   2  -4 2636.21 981.957  10
   5  -3  -8 3156.21 1103.55   7
  -5   3   7 4899.56 1388.46   9
  -5  -3   7 2931.04 994.339   9
  -5  -3   7 4873.20 1369.15   6
  -5   3   7 5223.14 1498.58   6
  -5  -3   7 4957.29 1202.98  14
   5  -3  -7 4718.94 1184.30   7
   5   3  -7 5387.63 1443.71   7
  -5   3   6 5945.61 1476.47   9
  -5  -3   6 2314.85 660.694   9
  -5  -3   6 4137.87 1226.85   6
  -5   3   6 4793.76 1263.42   6
  -5  -3   6 4566.63 1176.85  14
   5  -3  -6 4530.70 1077.63   7
   5   3  -6 3700.31 1111.97   7
  -5   3   5 188.306 349.173   9
  -5  -3   5-237.223 204.791   9
  -5  -3   5 5.58393 282.094   6
  -5   3   5 150.120 295.413   6
  -5  -3   5 336.708 420.168  14
  -5   3   5-304.182 463.051  14
   5  -3  -5 57.8462 297.731  13
   5  -3  -5 214.952 217.310   7
   5   3  -5-7.64288 121.870   7
  -5   3   4 619.619 565.566   9
  -5  -3   4 124.426 297.398   9
  -5  -3   4 190.321 246.149   6
  -5   3   4 700.519 350.554   6
  -5  -3   4 548.818 623.592  14
  -5   3   4 1077.95 558.502  14
   5  -3  -4 277.379 148.648  13
   5  -3  -4 533.187 387.209   7
   5   3  -4 1195.78 592.484   7
   5  -3  -4 472.074 287.487   3
  -5  -3   3 31552.5 2871.21   6
  -5   3   3 32016.2 2911.25   6
  -5  -3   3 29796.1 2098.20   9
  -5  -3   3 27581.1 2879.54  14
  -5   3   3 33100.0 3147.52  14
   5  -3  -3 30689.6 2483.24   7
   5   3  -3 31969.5 3008.29   7
  -5   3   3 34492.4 2966.78   9
   5  -3  -2 23417.5 2352.56   5
   5   3  -2 25220.4 2472.45   5
  -5  -3   2 19156.6 2408.85  14
  -5   3   2 25548.9 2760.87  14
   5  -3  -2 22657.4 1693.72  12
   5  -3  -2 24100.3 2150.61   7
  -5  -3   2 24694.7 1886.15  11
  -5   3   2 28469.9 2681.92   9
  -5  -3   1 235.743 342.779  14
  -5   3   1 549.162 387.963  14
   5  -3  -1 215.429 174.323  12
   5  -3  -1 655.929 444.729   5
   5   3  -1 241.602 273.073   5
  -5   3   1 195.385 236.132  11
  -5  -3   1 253.222 139.201  11
  -5   3   1 904.270 591.593  10
   5  -3  -1 339.352 300.599   7
   5   3   0 699.347 436.718   4
  -5  -3   0 795.848 538.565  14
   5   3   0 350.670 393.952  12
   5  -3   0 896.559 555.092  12
   5  -3   0 896.317 81.6183   5
   5   3   0 230.525 289.523   5
  -5   3   0 493.309 550.757  11
  -5  -3   0 965.843 607.340  11
  -5   3   0 1239.48 615.280  10
  -5  -3  -1 1860.23 730.824  14
   5   3   1 2427.25 837.491  12
   5  -3   1 1942.49 725.510  12
   5  -3   1 2730.25 805.521   5
   5   3   1 2050.89 667.490   5
  -5   3  -1 1442.77 679.190  11
  -5  -3  -1 1519.39 598.270  11
  -5   3  -1 2775.06 991.553  10
  -5  -3  -2 10479.4 1688.91  14
   5  -3   2 10446.8 1806.53   5
   5   3   2 10515.7 1753.01   5
   5   3   2 9640.07 1705.63  12
   5  -3   2 9091.14 1608.54  12
  -5   3  -2 9887.54 1785.69  11
  -5  -3  -2 8767.13 1822.68  11
  -5   3  -2 11616.6 2004.26  10
   5   3   3-191.879 439.488  12
   5  -3   3 851.059 619.352  12
  -5   3  -3-94.4916 272.297  11
  -5  -3  -3 56.8183 419.540  11
   5  -3   3-644.474 450.444   5
   5   3   3 389.860 409.988   5
  -5   3  -3 378.336 581.520  10
   5  -4  -8 1763.64 807.266   7
  -5  -4   7 1986.23 900.398   9
  -5  -4   7 2437.48 994.827   6
  -5   4   7 2528.66 1004.21   6
  -5  -4   7 2055.73 670.153  14
   5  -4  -7 2587.74 1013.82   8
   5  -4  -7 3104.55 987.514   7
   5   4  -7 2063.72 775.838   7
  -5   4   6 3598.15 1251.54   9
  -5  -4   6 1576.52 591.327   9
  -5  -4   6 3820.20 1155.04   6
  -5   4   6 3576.09 1072.69   6
  -5  -4   6 1826.48 857.650  14
   5  -4  -6 2779.53 976.392   8
   5  -4  -6 3307.90 952.470   7
   5   4  -6 2516.42 795.736   7
  -5   4   5-269.912 286.007   9
  -5  -4   5 62.9938 82.9132   9
  -5  -4   5 760.208 641.461   6
  -5   4   5 177.773 203.900   6
  -5  -4   5 471.628 459.294  14
   5  -4  -5 549.502 339.729  13
   5  -4  -5 317.352 300.245   7
   5   4  -5 199.056 68.4117   7
  -5  -4   4 9411.41 1594.53   6
  -5   4   4 9729.28 1671.66   6
  -5  -4   4 6983.68 1224.41   9
  -5  -4   4 7478.18 1541.82  14
   5  -4  -4 6785.31 1089.64  13
   5  -4  -4 7544.30 1220.77   7
   5   4  -4 9563.04 1673.87   7
   5  -4  -4 8303.91 1371.94   3
  -5   4   4 9861.26 1755.52   9
  -5  -4   3 12408.9 1807.76   6
  -5   4   3 13822.1 1915.66   6
  -5  -4   3 11073.6 1295.58   9
  -5  -4   3 11332.2 1867.61  14
   5  -4  -3 12854.9 1487.60   7
   5   4  -3 15361.8 2134.15   7
   5  -4  -3 11381.9 1548.05   3
  -5   4   3 14625.6 2055.84   9
  -5   4   2 897.085 789.143   9
  -5  -4   2 345.700 338.043  14
   5  -4  -2 591.808 451.046   5
   5   4  -2 946.772 445.498   5
   5  -4  -2 1220.69 473.985   7
   5  -4  -1 10679.9 1808.24   5
   5   4  -1 9626.23 1945.39   5
  -5  -4   1 2023.97 901.860  14
   5  -4  -1 5627.58 1090.31  12
   5  -4  -1 6804.14 1255.55   7
  -5  -4   1 4741.22 1008.99  11
  -5   4   1 5426.67 1387.13  10
   5   4   0 22685.1 2119.68   4
  -5  -4   0 18026.2 2331.30  14
   5  -4   0 21928.7 2317.66   5
   5   4   0 24800.2 2528.33   5
   5  -4   0 20055.0 2049.48  12
  -5   4   0 22887.3 2517.05  11
  -5  -4   0 20917.3 2261.08  11
  -5   4   0 22709.0 2774.18  10
  -5  -4  -1 11584.3 1842.76  14
   5  -4   1 10390.7 1626.77   5
   5   4   1 12619.7 1883.16   5
   5  -4   1 10721.0 1649.77  12
  -5   4  -1 11304.5 1869.58  11
  -5  -4  -1 11264.1 1793.84  11
  -5   4  -1 13192.8 2146.46  10
  -5  -4  -2 876.780 631.775  14
   5   4   2 625.345 453.493  12
   5  -4   2 620.080 531.154  12
  -5   4  -2 588.230 478.319  11
   5  -4   2-59.7995 216.596   5
   5   4   2 897.978 521.015   5
  -5  -4  -2 1096.65 652.312  11
  -5   4  -2 108.466 407.840  10
   5   4   3 3579.12 1182.60  12
   5  -4   3 3358.93 1061.28  12
  -5   4  -3 4041.52 1258.52  11
  -5  -4  -3 4937.02 1591.96  11
   5  -4   3 4190.73 1232.30   5
   5   4   3 4735.94 1273.07   5
  -5   4  -3 3937.38 1241.85  10
  -5  -5   7 1514.87 909.548   9
  -5  -5   7 1703.79 802.397   6
  -5   5   7-452.706 617.745   6
  -5  -5   7 770.665 399.049  14
  -5   5   6 435.618 430.243   9
  -5  -5   6 593.386 621.731   9
  -5  -5   6-240.237 277.829   6
  -5   5   6 264.551 353.006   6
  -5  -5   6 412.164 487.580  14
   5  -5  -6 415.248 241.697   8
   5  -5  -6 1058.59 747.064  13
   5   5  -6 268.626 252.711   7
  -5   5   5 1135.39 640.545   9
  -5  -5   5 2117.66 839.640   9
   5  -5  -5 880.570 565.749   3
  -5  -5   5 1130.10 620.254   6
  -5   5   5 397.644 307.143   6
  -5  -5   5 1725.43 795.732  14
   5  -5  -5 735.128 440.468   8
   5  -5  -5 836.031 496.933  13
   5   5  -5 992.050 577.360   7
  -5   5   4 1436.26 719.606   9
   5  -5  -4 734.072 440.077   3
  -5  -5   4 356.724 364.305   9
  -5  -5   4-71.4563 335.379   6
  -5   5   4 499.180 451.080   6
  -5  -5   4 1116.59 722.914  14
   5  -5  -4 712.597 507.616   8
   5  -5  -4-91.2161 286.344  13
   5   5  -4 565.966 340.016   7
  -5  -5   3 15054.8 1983.88   6
  -5   5   3 16858.3 2165.79   6
   5  -5  -3 13425.4 1739.55   8
  -5  -5   3 14224.3 2211.02  14
   5   5  -3 15716.3 2200.73   7
   5  -5  -3 12932.7 1752.28   3
  -5   5   3 15473.2 2282.14   9
  -5   5   2 6591.03 1552.15   9
   5  -5  -2 4130.69 984.731   1
  -5  -5   2 5402.24 1585.34  14
   5  -5  -2 4157.80 865.530   8
   5  -5  -2 4269.99 998.953   5
   5   5  -2 4989.91 1143.82   5
   5   5  -2 4956.91 1234.00   7
   5  -5  -1 296.342 383.591   1
  -5  -5   1-341.460 363.378   2
   5  -5  -1-80.8106 125.756  12
   5  -5  -1-51.9828 216.033   5
   5   5  -1-50.6314 165.873   5
  -5   5   1-202.784 453.268  10
   5   5   0 2818.20 816.620   4
  -5  -5   0 3204.04 1166.31  14
   5  -5   0 3423.57 836.549  12
   5  -5   0 3276.01 1017.70   5
   5   5   0 2927.53 781.006   5
  -5  -5   0 3563.72 977.222  11
  -5   5   0 3657.54 1147.14  10
  -5  -5  -1 1532.71 852.626  14
   5  -5   1 377.407 226.185  12
  -5   5  -1 30.1820 190.980  11
   5  -5   1 1045.47 630.984   5
   5   5   1 1901.00 752.320   5
  -5  -5  -1 1000.01 704.301  11
  -5   5  -1 847.296 509.435  10
  -5  -5  -2 10160.9 1724.96  14
   5  -5   2 3992.28 1138.50  12
  -5  -5  -2 10752.9 2026.27  11
  -5   5  -2 4753.91 1349.17  11
   5  -5   2 3469.83 1152.98   5
   5   5   2 3769.75 1101.27   5
  -5   5  -2 5398.50 1471.99  10
   5  -5   3 602.842 464.174  12
   5  -5   3 221.254 273.313   5
   5   5   3 56.6745 363.559   5
  -5  -6   7 1095.56 693.289   6
  -5   6   7 1279.09 726.186   6
  -5  -6   6 5949.45 1491.43   9
  -5  -6   6 3234.89 1050.23   6
  -5   6   6 3762.50 1117.42   6
  -5  -6   6 3521.80 1072.67  14
   5  -6  -6 3865.77 1195.57   8
   5  -6  -6 4481.24 1234.45  13
   5   6  -6 3468.25 1139.33   7
  -5  -6   5 15173.8 2212.06   6
  -5   6   5 13204.2 2015.25   6
   5  -6  -5 15055.2 2238.11   8
  -5  -6   5 18924.2 2745.13  14
   5  -6  -5 16915.3 2456.19  13
   5   6  -5 17590.3 2627.31   7
   5  -6  -5 17178.6 2103.07   3
  -5   6   5 13840.8 2438.47   9
  -5   6   4 2723.36 1098.41   9
   5  -6  -4 1927.98 760.544   3
  -5  -6   4 1585.09 673.296   6
  -5   6   4 1769.51 690.391   6
   5  -6  -4 1712.33 738.507   1
  -5  -6   4 2241.18 1112.62  14
   5  -6  -4 1983.01 723.384   8
   5  -6  -4 572.081 374.763  13
   5   6  -4 2147.66 791.067   7
  -5   6   3 801.432 586.142   9
   5  -6  -3 63.7039 280.145   3
   5  -6  -3-156.206 284.426   5
   5   6  -3 391.554 382.135   5
  -5  -6   3 675.240 305.367   2
  -5  -6   3 1187.96 996.464  14
   5  -6  -3 416.642 407.689   8
   5  -6  -3 86.1021 132.317   1
   5   6  -3-138.272 232.374   7
   5  -6  -2 179.295 286.660   3
   5  -6  -2-38.9581 235.906   1
   5  -6  -2-290.381 223.369   5
   5   6  -2-538.203 284.208   5
  -5  -6   2 457.646 68.7719   2
   5   6  -2-172.384 19.9669   7
   5   6  -1 19030.0 2336.07   4
  -5  -6   1 16346.6 2030.80   2
   5  -6  -1 16679.7 1974.57   5
   5   6  -1 20264.5 2266.04   5
   5  -6  -1 14940.5 1763.83  12
   5  -6  -1 15476.3 2165.79   3
   5  -6  -1 16834.3 1939.20   1
   5   6   0 8260.17 1530.53   4
  -5  -6   0 8644.99 1874.46  14
   5  -6   0 6622.98 1272.13   5
   5  -6   0 7471.57 1345.64  12
   5   6   0 7343.41 1376.57   5
  -5   6   0 8552.90 1836.71  10
  -5  -6  -1 1226.48 945.939  14
   5   6   1 185.839 276.308   4
   5  -6   1 167.745 264.066  12
   5  -6   1 760.806 505.834   5
   5   6   1 59.0710 442.063   5
  -5  -6  -1 109.543 572.182  11
  -5   6  -1 860.181 770.062  10
  -5  -6  -2 1041.48 670.029  14
   5  -6   2 574.103 476.820  12
   5  -6   2 64.6168 190.367   5
   5   6   2 239.493 203.600   5
   5  -6   3 333.247 413.953   5
   5   6   3 24.5930 362.720   5
   5  -7  -6 2668.02 1139.95  13
   5  -7  -5 50.2196 238.899   8
   5  -7  -5 461.603 412.741  13
   5  -7  -5 289.500 371.025   1
   5   7  -5 141.273 350.158   7
   5  -7  -4 4023.31 1172.19   1
  -5   7   4 9118.82 2053.34   9
   5  -7  -4 5504.00 1280.20   3
  -5  -7   4 5911.79 1446.76   2
  -5  -7   4 10093.9 2095.26  14
   5  -7  -4 5325.80 1254.47   8
   5  -7  -4 3874.60 1158.17  13
   5   7  -4 6206.61 1498.30   7
  -5   7   3 7171.05 1768.66   9
   5  -7  -3 6213.13 1428.87   3
   5  -7  -3 5024.42 1207.76   1
  -5  -7   3 5497.87 1335.46   2
   5   7  -3 4846.91 1318.20   7
   5  -7  -2 574.472 398.130   3
   5   7  -2 124.290 273.755   7
  -5  -7   2 518.838 456.532   2
   5  -7  -2 1030.00 529.565   1
   5  -7  -1-75.1836 148.703   3
   5   7  -1 251.086 422.413   4
  -5   7   1 378.195 97.5684  10
  -5  -7   1-358.278 413.341   2
   5   7   0 9394.88 1678.90   4
   5  -7   0 9439.35 1597.34  12
   5  -7   0 9109.29 1734.72   3
  -5   7   0 12365.5 2323.25  10
   5   7   1 464.109 61.5167   4
   5  -7   1 804.523 500.339  12
  -5  -7  -2 20770.9 2885.52  14
  -5  -7  -2 21925.8 3044.56  11
   5  -8  -4 1896.29 863.277   3
   5   8  -4 2838.17 1158.06   7
   5  -8  -3 952.799 698.333   3
   5   8  -3 697.640 580.417   7
  -5  -8   3-309.690 412.032   2
   5  -8  -3 434.658 473.188   1
   5   8  -2 63.5345 294.322   4
   5  -8  -2-137.891 367.944   3
   5  -8  -2 717.461 477.261   1
   5   8  -2 229.806 291.029   7
  -5  -8   2 809.244 595.037   2
   5   8  -1 7870.17 1725.07   4
  -5   8   1 8828.97 2056.50  10
  -5  -8   1 6734.09 1469.61   2
   5   8   0 4090.92 1262.62   4
   5  -8   0 3883.71 1062.98  12
   5   8   1 116.926 352.516   4
   5  -8   1 69.4080 254.053  12
  -6   0   7 265.945 386.762   9
  -6   0   7-186.945 127.046  14
   6   0  -7 755.447 602.724   7
  -6   0   6 13833.3 2137.51   9
  -6   0   6 7890.30 1615.63  14
   6   0  -6 13391.6 2155.77   7
  -6   0   6 14251.2 2395.95   6
  -6   0   5 224.201 289.964   9
  -6   0   5-200.892 219.460   6
  -6   0   5 348.717 292.568  14
   6   0  -5-153.765 260.774   7
  -6   0   4 24175.8 2382.76   9
  -6   0   4 23150.1 2757.66   6
  -6   0   4 20930.6 2626.44  14
   6   0  -4 22807.5 2565.60   7
  -6   0   3 1146.65 477.062   9
  -6   0   3 707.883 610.853   6
  -6   0   3 140.078 249.445  14
   6   0  -3 867.022 518.772   7
  -6   0   2 3356.64 1116.26  14
   6   0  -2 2952.01 1149.15   5
  -6   0   2 2985.75 844.911  11
   6   0  -2 3005.66 1088.15   7
   6   0  -1 9372.71 1660.18   5
  -6   0   1 7848.73 1561.22  14
   6   0  -1 7447.65 1220.52  12
  -6   0   1 8278.77 1376.14  11
  -6   0   0 8565.07 1571.06  14
   6   0   0 7255.29 1359.30  12
   6   0   0 6952.48 1507.22   5
  -6   0   0 7064.72 1371.45  11
   6   0   1 16763.1 2293.83   5
   6   0   1 9903.34 1737.27  12
  -6   0  -1 15293.6 2316.07  11
   6   0   2-273.593 325.965  12
   6   0   2 1011.99 809.998   5
  -6   0  -2 216.381 512.527  11
  -6   0  -2 1073.02 655.413  10
  -6   0  -3-294.726 639.893  10
  -6   1   7 1724.44 897.160   9
  -6  -1   7 862.286 574.027   9
  -6  -1   7 1530.04 644.419  14
  -6   1   7 1495.13 907.453  14
   6  -1  -7 1220.42 775.289   7
  -6   1   6 613.519 574.379   9
  -6  -1   6 1130.52 691.027   9
  -6  -1   6 282.890 131.790   6
  -6   1   6-143.846 267.990   6
  -6  -1   6-511.348 284.754  14
  -6   1   6-286.230 500.513  14
   6  -1  -6 273.857 424.825   7
   6   1  -6 964.595 732.030   7
  -6   1   5 1907.82 724.592   9
  -6  -1   5 697.579 247.040   9
  -6  -1   5 1647.99 848.440   6
  -6   1   5 1321.99 579.022   6
  -6  -1   5 521.488 289.579  14
  -6   1   5 1127.08 616.426  14
   6  -1  -5 1030.47 509.139   7
   6   1  -5 827.141 446.869   7
  -6   1   4 7247.13 1314.30   9
  -6  -1   4 5808.87 1121.35   9
  -6  -1   4 6188.84 1392.75   6
  -6   1   4 5433.32 1284.86   6
  -6  -1   4 5281.85 1327.38  14
  -6   1   4 5424.37 1379.36  14
   6  -1  -4 5702.30 1236.75   7
   6   1  -4 6052.13 1395.28   7
  -6  -1   3 38165.1 3514.21   6
  -6   1   3 37771.5 3475.78   6
  -6  -1   3 34248.0 3406.47  14
  -6   1   3 36630.1 3430.40  14
   6  -1  -3 38265.6 3296.98   7
   6   1  -3 40035.9 3544.03   7
  -6   1   3 38608.4 2935.55   9
  -6  -1   2 534.276 507.278  14
  -6   1   2 797.049 553.694  14
   6  -1  -2 885.617 602.589   5
   6   1  -2 486.502 470.191   5
  -6   1   2 126.376 178.805  11
  -6  -1   2 561.485 442.347  11
   6  -1  -2 708.862 540.099   7
   6   1  -2-151.287 412.560   7
  -6  -1   1 3089.85 1055.56  14
  -6   1   1 1724.18 657.138  14
   6   1  -1 1932.41 663.473  12
   6  -1  -1 2243.35 668.555  12
   6  -1  -1 2735.07 867.880   5
   6   1  -1 2725.11 928.570   5
  -6   1   1 1976.27 748.299  11
  -6  -1   1 1811.15 637.168  11
  -6  -1   0 317.898 281.949  14
  -6   1   0 710.867 426.236  14
   6   1   0 211.746 255.271  12
   6  -1   0 484.687 336.198  12
   6  -1   0-74.1807 195.275   5
   6   1   0 217.269 198.341   5
  -6   1   0 318.886 295.095  11
  -6  -1   0 508.642 483.770  11
  -6  -1  -1 4462.15 1100.17  14
  -6   1  -1 5162.70 1264.91  14
   6   1   1 5195.36 1242.03  12
   6  -1   1 4930.85 1200.04  12
   6  -1   1 5863.77 1444.60   5
   6   1   1 5122.40 1313.46   5
  -6   1  -1 4410.35 1317.34  11
  -6  -1  -1 4890.47 1311.98  11
  -6   1  -1 5740.88 1538.39  10
   6  -1   2 12729.2 2220.52   5
   6   1   2 11669.4 2119.85   5
   6   1   2 10239.5 1925.96  12
   6  -1   2 11479.7 1975.06  12
  -6   1  -2 11540.0 2130.11  11
  -6  -1  -2 11157.1 2140.69  11
  -6   1  -2 13768.1 2319.21  10
  -6   1  -3-59.1634 79.5783  10
  -6  -2   7-201.460 347.389   9
  -6  -2   7-123.000 456.589  14
  -6   2   7 340.598 450.590  14
   6  -2  -7 158.837 366.766   7
  -6   2   6 710.310 567.936   9
  -6  -2   6 180.688 328.055   9
  -6  -2   6-13.6630 230.496   6
  -6   2   6-338.531 466.962   6
  -6  -2   6 137.679 612.780  14
  -6   2   6 943.492 432.701  14
   6  -2  -6 530.569 454.775   7
   6   2  -6-140.008 450.935   7
  -6   2   5 501.609 431.493   9
  -6  -2   5 639.331 568.826   9
  -6  -2   5-48.9313 254.118   6
  -6   2   5 525.987 441.698   6
  -6  -2   5 176.465 136.427  14
  -6   2   5 813.692 475.393  14
   6  -2  -5 990.401 525.294   7
   6   2  -5 632.571 307.578   7
  -6   2   4 5596.76 1221.37   9
  -6  -2   4 6409.62 1446.51   6
  -6   2   4 5398.36 1274.90   6
  -6  -2   4 4820.28 1244.76  14
  -6   2   4 5633.01 1420.18  14
   6  -2  -4 5935.69 1288.28   7
   6   2  -4 5829.87 1368.87   7
  -6   2   3 4136.43 1032.81   9
  -6  -2   3 2635.19 952.400   6
  -6   2   3 4297.31 1272.98   6
  -6  -2   3 3616.62 1101.77  14
  -6   2   3 3674.78 1055.77  14
   6  -2  -3 3180.22 927.692   7
   6   2  -3 3094.71 1097.58   7
  -6   2   2 347.219 388.354   9
  -6  -2   2 1384.34 864.812  14
  -6   2   2 165.070 114.196  14
   6  -2  -2 276.476 387.057   5
   6   2  -2 441.047 76.6187   5
   6  -2  -2 894.111 489.242   7
   6   2  -2 136.987 292.923   7
  -6  -2   1 4749.39 1302.35  14
  -6   2   1 3966.43 1110.54  14
   6  -2  -1 4041.33 1098.65   5
   6   2  -1 4828.36 1213.12   5
  -6   2   1 3378.10 941.427  11
  -6  -2   1 4251.12 985.252  11
   6  -2  -1 5203.95 1224.02   7
  -6  -2   0 710.701 486.055  14
  -6   2   0 474.619 414.821  14
   6   2   0-135.438 176.339  12
   6  -2   0 554.580 369.228  12
   6  -2   0 97.3229 301.265   5
   6   2   0-43.4160 219.411   5
  -6   2   0 55.2100 118.019  11
  -6  -2   0 731.317 569.313  11
  -6   2   0-116.445 102.540  10
  -6  -2  -1 22897.3 2610.07  14
  -6   2  -1 17063.2 2302.79  14
   6  -2   1 16298.2 2309.90   5
   6   2   1 15144.7 2260.43   5
   6   2   1 9072.68 1651.25  12
   6  -2   1 9946.95 1755.27  12
  -6   2  -1 15563.9 2312.32  11
  -6  -2  -1 16229.5 2347.01  11
  -6   2  -1 20210.4 2776.10  10
   6   2   2 93.8984 159.668  12
   6  -2   2 400.400 278.657  12
  -6   2  -2 594.192 644.799  11
   6   2   2 1470.18 905.013   5
  -6  -2  -2 588.105 535.997  11
  -6   2  -2 348.993 525.712  10
  -6  -3   7-11.1355 455.826   9
   6  -3  -7-0.58388 163.303   7
  -6   3   6 1089.47 621.664   9
  -6  -3   6 2624.86 898.988   9
  -6  -3   6 2744.36 1127.65   6
  -6   3   6 1112.44 675.941   6
  -6  -3   6 2218.94 832.075  14
  -6   3   6 2056.83 952.813  14
   6  -3  -6 2860.28 1008.13   7
   6   3  -6 3577.05 1197.57   7
  -6   3   5 2908.04 1031.38   9
  -6  -3   5 1743.10 872.189   6
  -6   3   5 2375.23 832.703   6
  -6  -3   5 1409.48 632.780  14
  -6   3   5 1810.60 831.934  14
   6  -3  -5 1589.35 652.452   7
   6   3  -5 1530.12 703.998   7
  -6   3   4 830.628 419.871   9
  -6  -3   4 1864.58 734.876   6
  -6   3   4 352.796 413.513   6
  -6  -3   4 1103.65 590.951  14
  -6   3   4 867.059 555.192  14
   6  -3  -4 1302.02 585.465   7
   6   3  -4 995.548 670.996   7
  -6  -3   3 7048.31 1668.93   6
  -6   3   3 7423.03 1711.72   6
   6  -3  -3 5262.58 1326.10   5
   6   3  -3 5721.44 1390.18   5
  -6  -3   3 4987.47 1341.09  14
  -6   3   3 5280.91 1464.91  14
   6  -3  -3 7005.12 1386.75   7
   6   3  -3 5302.36 1391.26   7
  -6   3   3 8656.04 1646.92   9
  -6   3   2 1963.74 806.658   9
  -6  -3   2 1377.19 694.981  14
  -6   3   2 1272.42 645.221  14
   6  -3  -2 1678.70 710.131   5
   6   3  -2 1768.68 744.551   5
   6  -3  -2 1406.95 597.114   7
   6   3  -2 1847.42 797.318   7
  -6  -3   1 1264.01 655.165  14
  -6   3   1 1993.75 753.462  14
   6  -3  -1 1434.70 724.125   5
   6   3  -1 1398.95 508.178   5
  -6  -3   1 1998.72 724.672  11
   6  -3  -1 1912.62 653.573   7
  -6  -3   0-403.584 278.047  14
   6  -3   0 251.303 299.441  12
   6  -3   0 464.186 405.734   5
   6   3   0 207.552 304.131   5
  -6   3   0 257.511 326.350  11
  -6  -3   0 231.885 414.935  11
  -6   3   0-27.1543 229.042  10
  -6  -3  -1 17830.1 2412.21  14
   6  -3   1 8629.38 1862.78   5
   6   3   1 6106.94 1382.94  12
   6  -3   1 4640.29 1116.96  12
  -6   3  -1 8690.41 1722.17  11
  -6  -3  -1 11853.1 1992.78  11
   6   3   1 6879.66 1757.49   5
  -6   3  -1 13080.6 2318.92  10
   6   3   2 11680.3 2133.07  12
   6  -3   2 9514.42 1806.13  12
  -6  -3  -2 9645.78 2168.24  11
  -6  -4   7-406.779 598.313   9
  -6   4   6 1074.61 525.261   9
  -6  -4   6 1697.70 872.063   6
  -6   4   6 591.261 430.118   6
  -6  -4   6 1851.57 971.090  14
  -6   4   5 1399.01 783.437   9
  -6  -4   5 348.886 178.982   6
  -6   4   5 473.250 282.991   6
  -6  -4   5 170.605 549.410  14
   6   4  -5 149.161 400.966   7
   6  -4  -4 72.2884 216.101   3
  -6   4   4 725.884 620.448   9
  -6  -4   4 1004.08 545.288   6
  -6   4   4 741.202 580.981   6
  -6  -4   4 1929.17 796.963  14
   6   4  -4 1097.55 586.203   7
  -6   4   3 4006.47 1230.45   9
  -6  -4   3 3063.76 1035.52  14
   6  -4  -3 2216.17 850.880   5
   6   4  -3 3543.83 1050.03   5
   6   4  -3 3938.76 1212.76   7
  -6  -4   2 314.941 429.801  14
   6  -4  -2 4052.17 1122.42   5
   6   4  -2 3177.96 1032.65   5
   6   4  -2 4085.23 1258.69   7
  -6  -4   1 1492.79 750.618  14
   6  -4  -1 1435.46 594.070   5
   6   4  -1 2002.80 785.113   5
  -6  -4   0 252.827 232.075  14
   6  -4   0 1513.84 656.937  12
  -6   4   0 167.864 163.696  11
   6  -4   0 659.784 504.478   5
   6   4   0 657.864 487.553   5
  -6  -4   0 297.411 411.634  11
  -6   4   0 1177.28 780.596  10
  -6  -4  -1 19003.8 2556.55  14
   6  -4   1 13863.2 2105.05   5
   6   4   1 10359.0 1956.16   5
   6  -4   1 7489.73 1515.89  12
  -6   4  -1 9883.43 1986.11  11
  -6  -4  -1 11974.2 2159.41  11
  -6   4  -1 14669.4 2558.84  10
   6  -4   2 3016.58 1062.30  12
  -6  -4  -2 1242.14 757.813  11
  -6  -5   6 443.790 607.807   6
  -6   5   6 465.461 414.126   6
  -6   5   5 298.113 399.565   9
  -6  -5   5-703.853 444.594   6
  -6   5   5-898.818 635.500   6
   6  -5  -5 287.621 137.276   8
   6  -5  -4 750.177 559.402   3
  -6   5   4 1159.86 745.754   9
  -6  -5   4 872.051 561.224   6
  -6   5   4 1863.66 810.195   6
  -6  -5   4 1303.37 941.022  14
   6  -5  -4 302.898 165.691   8
   6   5  -4 435.882 444.605   7
   6  -5  -3 4542.20 1185.59   1
  -6  -5   3 7526.74 1809.65  14
   6  -5  -3 6692.36 1457.39   5
   6   5  -3 7703.77 1557.64   5
   6   5  -3 8490.02 1811.14   7
  -6   5   3 10851.2 2077.46   9
   6  -5  -3 4794.12 1202.86   3
  -6  -5   2 624.132 675.521  14
   6  -5  -2 105.967 220.130   5
   6   5  -2 335.190 303.123   5
   6   5  -2-516.475 353.052   7
  -6  -5   1-19.3231 346.408  14
   6  -5  -1 286.353 325.138   5
   6   5  -1-49.2670 275.319   5
  -6  -5   0 461.468 584.303  14
   6  -5   0 91.7772 426.700   5
   6   5   0 302.980 403.930   5
  -6   5   0 115.141 173.451  10
   6  -5   1 1114.97 621.113  12
   6  -5   1 1331.35 934.730   5
   6   5   1 1254.27 813.813   5
  -6  -5  -1 2608.11 1014.75  11
  -6  -6   5 149.849 335.304   6
  -6   6   5 975.049 532.789   6
   6  -6  -5-142.224 401.880   8
   6  -6  -5-23.4448 206.436  13
  -6  -6   4 8481.26 1714.02   6
  -6   6   4 10071.8 1936.01   6
  -6   6   4 10858.5 2161.88   9
   6  -6  -4 6136.28 1482.12   1
   6  -6  -4 7070.88 1449.95   5
   6   6  -4 8408.02 1664.88   5
   6  -6  -4 5892.32 1218.15  13
   6  -6  -4 8036.89 1614.32   3
   6  -6  -3 61.9269 166.535   3
   6  -6  -3-615.672 550.787   5
   6   6  -3 357.544 314.611   5
   6  -6  -3 856.349 535.864   1
  -6   6   3 793.063 823.931   9
  -6  -6   2 2691.24 1166.46  14
   6  -6  -2 1210.51 644.552   5
   6   6  -2 1279.35 712.879   5
   6   6  -2 1939.26 890.683   7
   6  -6  -2 2523.29 994.958   3
   6   6  -1 2424.25 896.593   4
  -6  -6   1 2128.13 1012.16  14
   6  -6  -1 1902.88 726.061   5
   6   6  -1 2175.28 854.321   5
  -6  -6   0 1668.49 1011.31  14
   6  -6   0 2716.99 999.605   5
   6   6   0 2334.92 889.964   5
   6  -6   1 4768.68 1247.07  12
   6  -6   1 3572.73 1384.99   5
   6   6   1 5872.74 1472.16   5
   6  -7  -4 913.500 640.519   3
   6  -7  -3 9706.62 1740.66   1
   6   7  -2 22.3456 194.963   4
   6   7  -1 2475.56 1027.33   4
  -7   0   6 3791.59 1169.58   9
   7   0  -5 4123.99 1266.17   7
  -7   0   4 6841.45 1712.38   6
  -7   0   4 5480.43 1484.12  14
   7   0  -4 6857.00 1621.40   7
  -7   0   3 1699.74 835.060  14
   7   0  -3 2391.58 1003.93   5
   7   0  -3 3536.25 1159.29   7
  -7   0   2 944.231 591.653  14
   7   0  -2 1526.35 841.433   5
   7   0  -2 933.256 332.569   7
  -7   0   1 6039.14 1499.56  14
   7   0  -1 4820.14 1242.94   5
  -7   0   1 4891.43 1180.27  11
  -7   0   0-83.3197 275.338  14
  -7   0   0 728.053 691.316  11
   7   0   1 11522.3 1950.20  12
  -7   1   6 3770.74 1206.30   9
   7  -1  -5 1049.02 713.677   7
  -7  -1   4 2765.64 1316.31   6
  -7   1   4 2203.60 1297.67   6
  -7  -1   4 1342.74 785.465  14
  -7   1   4 1778.63 938.884  14
   7  -1  -4 3380.00 1291.19   7
   7   1  -4 743.031 610.104   7
  -7  -1   3 2120.06 1067.67  14
  -7   1   3 1966.97 861.787  14
   7  -1  -3 1419.86 898.425   5
   7   1  -3 2612.58 1141.76   5
   7  -1  -3 2140.78 948.028   7
   7   1  -3 1922.90 880.880   7
  -7  -1   2 1535.43 920.295  14
  -7   1   2 836.331 475.158  14
   7  -1  -2 96.4764 358.412   5
   7   1  -2 299.699 265.394   5
   7  -1  -2 427.923 96.3065   7
   7   1  -2 803.174 631.897   7
  -7  -1   1 161.231 271.583  14
  -7   1   1-299.797 353.771  14
  -7   1   1 734.603 514.780  11
  -7  -1   1 129.297 239.431  11
   7  -1  -1 1053.17 550.010   7
  -7  -1   0 4945.76 1337.22  14
  -7   1   0 4246.70 1304.37  14
  -7   1   0 3133.49 1039.83  11
  -7  -1   0 5210.03 1407.97  11
   7   1   1-44.4325 142.581  12
   7  -2  -6 1726.12 760.296   7
  -7   2   5-184.712 337.320   9
   7  -2  -5 436.506 313.101   7
  -7  -2   4 4112.71 1321.93   6
   7  -2  -4 2713.14 947.533   7
   7   2  -4 3160.83 1089.95   7
  -7  -2   3 914.789 725.636  14
  -7   2   3-150.757 652.794  14
   7  -2  -3 705.764 543.867   5
   7   2  -3 932.096 710.324   5
   7  -2  -3 387.933 576.566   7
   7   2  -3 412.823 652.689   7
  -7  -2   2 647.344 496.731  14
  -7   2   2 194.942 571.678  14
   7  -2  -2-105.373 387.358   5
   7   2  -2-256.448 367.353   5
   7  -2  -2-404.253 485.618   7
   7   2  -2 321.639 115.290   7
  -7  -2   1 296.155 261.449  14
  -7   2   1-121.348 399.414  14
  -7   2   1 228.252 387.872  11
  -7  -2   0 758.775 468.709  14
  -7   2   0 1122.81 695.979  14
  -7  -2   0 825.560 661.146  11
  -7   3   5 1369.54 711.153   9
  -7   3   4 1004.71 725.465   9
   7  -3  -3 1245.67 883.924   5
   7   3  -3 1934.66 1029.77   5
  -7  -3   2 1257.12 852.387  14
  -7   3   2 2464.95 868.061  14
   7  -3  -2 808.480 506.170   5
   7   3  -2 978.595 572.478   5
  -7  -3   1 2045.80 995.781  14
  -7  -3   0 20651.9 2863.09  14
  -7   4   4 2415.10 998.550   9
   0   0   0    0.00    0.00   0
TITL lt160 in P2(1)/m
REM P2(1)/m (#11 in standard setting)
CELL 0.71073   5.725017   8.680080   6.989471  90.0000 108.2086  90.0000
ZERR    2.00   0.001023   0.001662   0.001214   0.0000   0.0197   0.0000
LATT  1
SYMM -x, y+1/2,-z
SFAC C H O
UNIT 12.00 24.00 2.00
TREF
HKLF 4
END
;
_shelx_hkl_checksum              50690
loop_
_space_group_symop_operation_xyz
'x, y, z'
'-x, y+1/2, -z'
'-x, -y, -z'
'x, -y-1/2, z'
loop_
_atom_site_label
_atom_site_type_symbol
_atom_site_fract_x
_atom_site_fract_y
_atom_site_fract_z
_atom_site_U_iso_or_equiv
_atom_site_adp_type
_atom_site_occupancy
_atom_site_site_symmetry_order
_atom_site_calc_flag
_atom_site_refinement_flags_posn
_atom_site_refinement_flags_adp
_atom_site_refinement_flags_occupancy
_atom_site_disorder_assembly
_atom_site_disorder_group
C3 C 0.5998(3) 0.2500 0.2769(2) 0.0271(4) Uani 1 2 d S T P . .
C2 C 0.5793(3) 0.2500 0.4896(3) 0.0317(4) Uani 1 2 d S T P . .
C1 C 0.8100(4) 0.2500 0.6644(3) 0.0569(7) Uani 1 2 d DS T P . .
H1A H 0.783(5) 0.2500 0.792(3) 0.085 Uiso 1 2 d DRS T P . .
H1B H 0.827(7) 0.144(3) 0.716(6) 0.085 Uiso 0.5 1 d DR . . . .
C4 C 0.3451(4) 0.2500 0.1212(3) 0.0444(6) Uani 1 2 d S T P . .
H4A H 0.366(4) 0.2500 -0.015(4) 0.045(6) Uiso 1 2 d S T P . .
H4B H 0.252(3) 0.342(2) 0.137(2) 0.053(4) Uiso 1 1 d . . . . .
O1 O 0.3826(2) 0.2500 0.5186(2) 0.0564(5) Uani 1 2 d S T P . .
C5 C 0.7419(3) 0.39377(16) 0.2518(2) 0.0376(4) Uani 1 1 d . . . . .
H5A H 0.913(3) 0.3946(16) 0.344(2) 0.045(4) Uiso 1 1 d . . . . .
H5B H 0.663(3) 0.485(2) 0.274(3) 0.055(5) Uiso 1 1 d . . . . .
H5C H 0.746(3) 0.4018(19) 0.112(3) 0.063(5) Uiso 1 1 d . . . . .
H1C H 0.965(3) 0.2500 0.633(4) 0.061(7) Uiso 1 2 d DS T P . .
loop_
_atom_site_aniso_label
_atom_site_aniso_U_11
_atom_site_aniso_U_22
_atom_site_aniso_U_33
_atom_site_aniso_U_23
_atom_site_aniso_U_13
_atom_site_aniso_U_12
C3 0.0261(8) 0.0294(9) 0.0254(9) 0.000 0.0073(7) 0.000
C2 0.0336(9) 0.0306(9) 0.0320(10) 0.000 0.0120(7) 0.000
C1 0.0439(12) 0.096(2) 0.0294(11) 0.000 0.0102(9) 0.000
C4 0.0332(10) 0.0599(15) 0.0365(11) 0.000 0.0058(9) 0.000
O1 0.0381(8) 0.0917(12) 0.0470(9) 0.000 0.0242(7) 0.000
C5 0.0433(8) 0.0324(8) 0.0397(8) 0.0021(5) 0.0169(6) -0.0026(6)
loop_
_atom_type_symbol
_atom_type_description
_atom_type_scat_dispersion_real
_atom_type_scat_dispersion_imag
_atom_type_scat_source
C C 0.0033 0.0016 'International Tables Vol C Tables 4.2.6.8 and 6.1.1.4'
H H 0.0000 0.0000 'International Tables Vol C Tables 4.2.6.8 and 6.1.1.4'
O O 0.0106 0.0060 'International Tables Vol C Tables 4.2.6.8 and 6.1.1.4'
loop_
_citation_id
_citation_doi
_citation_year
1 10.1021/acs.cgd.5b01156 2015
loop_
_geom_angle_atom_site_label_1
_geom_angle_atom_site_label_2
_geom_angle_atom_site_label_3
_geom_angle
_geom_angle_site_symmetry_1
_geom_angle_site_symmetry_3
C2 C3 C5 108.48(9) . .
C2 C3 C5 108.48(9) . 4_565
C4 C3 C2 110.37(15) . .
C4 C3 C5 110.05(10) . .
C4 C3 C5 110.05(10) . 4_565
C5 C3 C5 109.35(15) . 4_565
C1 C2 C3 118.62(16) . .
O1 C2 C3 121.58(16) . .
O1 C2 C1 119.80(18) . .
loop_
_geom_bond_atom_site_label_1
_geom_bond_atom_site_label_2
_geom_bond_distance
_geom_bond_site_symmetry_2
C3 C2 1.527(2) .
C3 C4 1.522(2) .
C3 C5 1.5295(16) 4_565
C3 C5 1.5295(16) .
C2 C1 1.493(3) .
C2 O1 1.204(2) .
loop_
_geom_torsion_atom_site_label_1
_geom_torsion_atom_site_label_2
_geom_torsion_atom_site_label_3
_geom_torsion_atom_site_label_4
_geom_torsion
_geom_torsion_site_symmetry_1
_geom_torsion_site_symmetry_2
_geom_torsion_site_symmetry_3
_geom_torsion_site_symmetry_4
C4 C3 C2 C1 180.000(1) . . . .
C4 C3 C2 O1 0.000(0) . . . .
C5 C3 C2 C1 -59.35(9) . . . .
C5 C3 C2 C1 59.35(9) 4_565 . . .
C5 C3 C2 O1 120.65(9) . . . .
C5 C3 C2 O1 -120.65(9) 4_565 . . .
