#------------------------------------------------------------------------------
#$Date: 2019-12-02 13:46:09 +0200 (Mon, 02 Dec 2019) $
#$Revision: 244843 $
#$URL: file:///home/coder/svn-repositories/cod/cif/4/51/38/4513832.cif $
#------------------------------------------------------------------------------
#
# This file is available in the Crystallography Open Database (COD),
# http://www.crystallography.net/
#
# All data on this site have been placed in the public domain by the
# contributors.
#
data_4513832
loop_
_publ_author_name
'Sobczak, Szymon'
'Katrusiak, Andrzej'
_publ_section_title
;
 Singularities in Molecular Conformation
;
_journal_coden_ASTM              CGDEFU
_journal_issue                   11
_journal_name_full               'Crystal Growth & Design'
_journal_page_first              5530
_journal_page_last               5534
_journal_paper_doi               10.1021/acs.cgd.5b01156
_journal_volume                  15
_journal_year                    2015
_chemical_formula_moiety         'C6 H12 O'
_chemical_formula_sum            'C6 H12 O'
_chemical_formula_weight         100.16
_chemical_melting_point          220.65
_chemical_name_common            pinacolone
_chemical_name_systematic        3,3-Dimethyl-2-butanone
_space_group_crystal_system      monoclinic
_space_group_IT_number           11
_space_group_name_Hall           '-P 2yb'
_space_group_name_H-M_alt        'P 1 21/m 1'
_symmetry_space_group_name_Hall  '-P 2yb'
_symmetry_space_group_name_H-M   'P 1 21/m 1'
_atom_sites_solution_hydrogens   difmap
_atom_sites_solution_primary     direct
_atom_sites_solution_secondary   difmap
_audit_block_doi                 10.5517/cc13lk9k
_audit_update_record
;
2015-10-05 deposited with the CCDC.
2016-03-01 downloaded from the CCDC.
;
_cell_angle_alpha                90
_cell_angle_beta                 108.275(16)
_cell_angle_gamma                90
_cell_formula_units_Z            2
_cell_length_a                   5.6940(9)
_cell_length_b                   8.6422(14)
_cell_length_c                   6.9770(10)
_cell_measurement_reflns_used    2499
_cell_measurement_temperature    120(2)
_cell_measurement_theta_max      28.3950
_cell_measurement_theta_min      3.7420
_cell_volume                     326.01(9)
_computing_cell_refinement
;
CrysAlisPro, Agilent Technologies,
Version 1.171.37.31 (release 14-01-2014 CrysAlis171 .NET)
(compiled Jan 14 2014,18:38:05)
;
_computing_data_collection
;
CrysAlisPro, Agilent Technologies,
Version 1.171.37.31 (release 14-01-2014 CrysAlis171 .NET)
(compiled Jan 14 2014,18:38:05)
;
_computing_data_reduction
;
CrysAlisPro, Agilent Technologies,
Version 1.171.37.31 (release 14-01-2014 CrysAlis171 .NET)
(compiled Jan 14 2014,18:38:05)
;
_computing_molecular_graphics    'Olex2 (Dolomanov et al., 2009)'
_computing_publication_material  'Olex2 (Dolomanov et al., 2009)'
_computing_structure_refinement  'ShelXL (Sheldrick, 2008)'
_computing_structure_solution    'ShelXS (Sheldrick, 2008)'
_diffrn_ambient_temperature      120
_diffrn_detector                 'CCD plate'
_diffrn_detector_area_resol_mean 16.1544
_diffrn_detector_type            Eos
_diffrn_measured_fraction_theta_full 0.976
_diffrn_measured_fraction_theta_max 0.977
_diffrn_measurement_device       'four-circle diffractometer'
_diffrn_measurement_device_type  'Xcalibur, Eos'
_diffrn_measurement_method       '\w scans'
_diffrn_orient_matrix_UB_11      -0.0886087000
_diffrn_orient_matrix_UB_12      0.0369502000
_diffrn_orient_matrix_UB_13      -0.0819690000
_diffrn_orient_matrix_UB_21      0.0928377000
_diffrn_orient_matrix_UB_22      0.0509107000
_diffrn_orient_matrix_UB_23      -0.0110180000
_diffrn_orient_matrix_UB_31      0.0272241000
_diffrn_orient_matrix_UB_32      -0.0527697000
_diffrn_orient_matrix_UB_33      -0.0678707000
_diffrn_radiation_monochromator  graphite
_diffrn_radiation_probe          x-ray
_diffrn_radiation_type           MoK\a
_diffrn_radiation_wavelength     0.71073
_diffrn_reflns_av_R_equivalents  0.0316
_diffrn_reflns_av_unetI/netI     0.0152
_diffrn_reflns_Laue_measured_fraction_full 0.976
_diffrn_reflns_Laue_measured_fraction_max 0.977
_diffrn_reflns_limit_h_max       7
_diffrn_reflns_limit_h_min       -7
_diffrn_reflns_limit_k_max       10
_diffrn_reflns_limit_k_min       -10
_diffrn_reflns_limit_l_max       8
_diffrn_reflns_limit_l_min       -8
_diffrn_reflns_number            5487
_diffrn_reflns_point_group_measured_fraction_full 0.976
_diffrn_reflns_point_group_measured_fraction_max 0.977
_diffrn_reflns_theta_full        25.242
_diffrn_reflns_theta_max         25.990
_diffrn_reflns_theta_min         3.075
_diffrn_source                   'Enhance (Mo) X-ray Source'
_exptl_absorpt_coefficient_mu    0.067
_exptl_absorpt_correction_T_max  1.00000
_exptl_absorpt_correction_T_min  0.62059
_exptl_absorpt_correction_type   multi-scan
_exptl_absorpt_process_details
;
CrysAlisPro, Agilent Technologies,
Version 1.171.37.31 (release 14-01-2014 CrysAlis171 .NET)
(compiled Jan 14 2014,18:38:05)
Empirical absorption correction using spherical harmonics,
 implemented in SCALE3 ABSPACK scaling algorithm.
;
_exptl_crystal_colour            'clear whiteish colourless'
_exptl_crystal_colour_lustre     clear
_exptl_crystal_colour_modifier   whiteish
_exptl_crystal_colour_primary    colourless
_exptl_crystal_density_diffrn    1.020
_exptl_crystal_density_method    'not measured'
_exptl_crystal_description       cylinder
_exptl_crystal_F_000             112
_exptl_crystal_preparation
'The low temperature experiment was performed using OxfordCryo system.'
_exptl_crystal_size_max          0.91
_exptl_crystal_size_mid          0.49
_exptl_crystal_size_min          0.49
_refine_diff_density_max         0.436
_refine_diff_density_min         -0.166
_refine_diff_density_rms         0.058
_refine_ls_extinction_coef       .
_refine_ls_extinction_method     none
_refine_ls_goodness_of_fit_ref   1.095
_refine_ls_hydrogen_treatment    refall
_refine_ls_matrix_type           full
_refine_ls_number_parameters     70
_refine_ls_number_reflns         668
_refine_ls_number_restraints     0
_refine_ls_restrained_S_all      1.095
_refine_ls_R_factor_all          0.0512
_refine_ls_R_factor_gt           0.0485
_refine_ls_shift/su_max          0.000
_refine_ls_shift/su_mean         0.000
_refine_ls_structure_factor_coef Fsqd
_refine_ls_weighting_details
'w=1/[\s^2^(Fo^2^)+(0.0807P)^2^+0.1001P] where P=(Fo^2^+2Fc^2^)/3'
_refine_ls_weighting_scheme      calc
_refine_ls_wR_factor_gt          0.1359
_refine_ls_wR_factor_ref         0.1378
_reflns_Friedel_coverage         0.000
_reflns_Friedel_fraction_full    .
_reflns_Friedel_fraction_max     .
_reflns_number_gt                609
_reflns_number_total             668
_reflns_threshold_expression     'I > 2\s(I)'
_cod_data_source_file            1030727-1030734.cif
_cod_data_source_block           pin_lt120
_cod_depositor_comments
;
 Updated bibliographic information.

 Antanas Vaitkus,
 2019-12-02
;
_cod_database_code               4513832
_shelxl_version_number           2013-4
_chemical_oxdiff_formula         C6H12O1
_shelx_space_group_comment
;
The symmetry employed for this shelxl refinement is uniquely defined
by the following loop, which should always be used as a source of
symmetry information in preference to the above space-group names.
They are only intended as comments.
;
_reflns_odcompleteness_completeness 94.21
_reflns_odcompleteness_iscentric 1
_reflns_odcompleteness_theta     28.77
_shelx_res_file
;
TITL lt120 in P21/m #11
REM reset to P21/m #11
CELL 0.71073 5.694012 8.642158 6.976974 90 108.2749 90
ZERR 2 0.000863 0.001431 0.001028 0 0.0162 0
LATT 1
SYMM -X,0.5+Y,-Z
SFAC C H O
UNIT 12 24 2

L.S. 90
PLAN  5
TEMP -153.15
BOND
MORE -1
CONF
fmap 2
acta
OMIT 0 52
OMIT 5 1 2
OMIT 0 3 7
OMIT 6 3 1
OMIT 3 2 4
OMIT -1 1 8
OMIT 4 1 3
OMIT -2 6 6
OMIT 6 2 1
OMIT 6 0 1
OMIT -1 4 1
OMIT -1 3 1
OMIT 3 4 4
OMIT 0 4 0
OMIT -2 0 6
OMIT -1 5 1
REM <olex2.extras>
REM <HklSrc "%.\\lt120.hkl">
REM </olex2.extras>

WGHT    0.080700    0.100100
FVAR      30.99947
C3    1    0.599784    0.250000    0.276621    10.50000    0.01983    0.02088 =
         0.02146    0.00000    0.00604    0.00000
C2    1    0.578743    0.250000    0.489307    10.50000    0.02571    0.02129 =
         0.02410    0.00000    0.00965    0.00000
O1    3    0.379938    0.250000    0.518558    10.50000    0.02930    0.06798 =
         0.03537    0.00000    0.01805    0.00000
C4    1    0.343731    0.250000    0.119665    10.50000    0.02514    0.03859 =
         0.02893    0.00000    0.00362    0.00000
C1    1    0.810777    0.250000    0.665279    10.50000    0.03265    0.06678 =
         0.02093    0.00000    0.00610    0.00000
C5    1    0.742963    0.395224    0.250927    11.00000    0.03163    0.02240 =
         0.02928    0.00209    0.01108   -0.00256
H5A   2    0.910765    0.395946    0.345080    11.00000    0.02804
H5B   2    0.660896    0.489862    0.275422    11.00000    0.03131
H5C   2    0.746757    0.399176    0.110237    11.00000    0.04514
H1A   2    0.819386    0.125985    0.698897    10.50000    0.04154
H1B   2    0.801804    0.295285    0.788498    10.50000    0.05881
H4A   2    0.359940    0.250000   -0.019257    10.50000    0.04361
H4B   2    0.252660    0.346407    0.134458    11.00000    0.03846
H1C   2    0.958852    0.250000    0.633422    10.50000    0.04631
HKLF 4

REM  lt120 in P21/m #11
REM R1 =  0.0485 for     609 Fo > 4sig(Fo)  and  0.0512 for all     668 data
REM     70 parameters refined using      0 restraints

END

WGHT      0.0784      0.1022

REM Highest difference peak  0.436,  deepest hole -0.166,  1-sigma level  0.058
Q1    1   0.5827  0.2500  0.3786  10.50000  0.05    0.44
Q2    1   0.4818  0.2500  0.2004  10.50000  0.05    0.31
Q3    1   0.7060  0.2500  0.5670  10.50000  0.05    0.26
Q4    1   1.0671  0.2500  0.9303  10.50000  0.05    0.24
Q5    1   0.4519  0.0979 -0.0372  11.00000  0.05    0.22
;
_shelx_res_checksum              41837
_shelx_hkl_file
;
   0   0   1 447011. 2730.67  12
   0   0   1 450544. 2201.19  11
   0   0   1 435839. 2184.60   8
   0   0   1 448859. 2825.52  10
   0   0  -1 438687. 2831.66  10
   0   0  -1 441025. 2790.29  12
   0   0   2 149419. 2307.43  10
   0   0   2 145846. 2458.38   5
   0   0  -2 143058. 2301.65  10
   0   0  -2 147487. 2307.82  12
   0   0  -2 137891. 2558.26   5
   0   0   2 139967. 1570.80   9
   0   0   2 144794. 2187.04  12
   0   0   2 131230. 1202.17   4
   0   0   2 144664. 1746.03   8
   0   0   2 141844. 1504.12  14
   0   0  -2 142227. 1723.36  14
   0   0  -2 143433. 1973.87  11
   0   0   3 38564.8 776.347   4
   0   0   3 42633.8 1186.32   8
   0   0   3 42725.1 1517.66  10
   0   0   3 41525.1 1048.66   9
   0   0  -3 42545.2 1389.51  11
   0   0   3 44180.4 1487.32  12
   0   0   3 43530.5 1668.03   5
   0   0  -3 41789.7 1532.19  10
   0   0  -4 164075. 3568.00  10
   0   0   4 166267. 2324.42   9
   0   0   4 167276. 3325.44  12
   0   0   4 164403. 2681.33   8
   0   0   4 171244. 3767.91   5
   0   0  -4 166237. 3291.08  11
   0   0  -4 165347. 2846.50  14
   0   0  -5 177793. 3500.65  14
   0   0   5 175225. 3881.51  12
   0   0   5 182556. 2642.35   9
   0   0   5 178855. 4286.13   5
   0   0  -5 179804. 4056.71  11
   0   0  -5 176307. 4197.85  10
   0   0  -6 827.878 392.880  10
   0   0  -6 1434.11 506.329  11
   0   0   6 1411.03 494.204   5
   0   0   6 945.687 399.206  12
   0   0  -6 1060.08 332.648  14
   0   0   7 1572.84 495.325  12
   0   0  -7 4190.43 891.807  10
   0   0  -7 3068.67 768.718  11
   0   0  -7 4295.21 694.799  14
   0   0   7 2499.39 761.211   5
   0   0   8 35221.9 2360.13  12
   0   0   8 39212.6 2674.34   5
   0   0  -8 38065.4 2616.32  10
   0   0  -8 37061.5 2742.39  11
   0   1   1 401575. 3013.55  11
   0  -1   1 411121. 2184.26  10
   0   1   1 413132. 2094.06   4
   0  -1   1 408024. 2890.78   5
   0   1   1 418776. 3041.67  14
   0   1  -1 412588. 2927.88  12
   0   1   1 409101. 2599.89   1
   0   1   1 406505. 2896.11   5
   0  -1  -1 417082. 2704.76   1
   0   1  -1 409145. 3022.57   5
   0  -1  -1 395940. 3087.58  11
   0  -1  -1 409622. 3050.90   5
   0   1   1 402513. 3147.42  10
   0   1  -1 403654. 3043.04   8
   0  -1  -1 398312. 3196.30  10
   0  -1   1 411146. 3044.40   8
   0  -1  -1 404194. 2152.57   4
   0   1   1 405087. 3327.83  12
   0  -1   1 409490. 2952.95  12
   0  -1  -2 242630. 3457.21   5
   0   1  -2 257334. 2756.90  10
   0  -1   2 259264. 2745.30  10
   0   1  -2 261087. 3054.34  12
   0  -1   2 258884. 2924.77   8
   0   1   2 253556. 3273.78   5
   0   1   2 253797. 2767.90  11
   0  -1  -2 249711. 3080.28  11
   0  -1   2 250190. 2937.06  12
   0   1   2 265443. 3324.60  10
   0   1  -2 259748. 1772.49   2
   0   1  -2 265664. 3053.58   8
   0   1   2 255059. 3197.38  12
   0  -1   2 267345. 2692.50   4
   0   1   2 254281. 2665.00  14
   0  -1  -2 249888. 3360.90  10
   0   1  -2 251972. 3435.26   5
   0  -1   2 255381. 3240.66   5
   0  -1  -2 258085. 2928.90  14
   0   1   2 259252. 2900.84   9
   0   1   2 254334. 2142.64   1
   0  -1  -2 251402. 3382.18  12
   0  -1   3 55934.3 1359.28   4
   0   1   3 53202.5 1731.88  12
   0   1   3 55384.2 1317.67  14
   0  -1   3 56422.3 1575.45   8
   0   1  -3 56214.8 1665.82   8
   0   1  -3 56254.3 1252.49  14
   0  -1  -3 53907.1 1874.90  10
   0  -1   3 55025.7 1656.67  12
   0   1   3 52577.9 1878.90   5
   0  -1   3 55970.6 1612.50  10
   0   1   3 55685.7 1099.88   8
   0  -1  -3 56049.7 1567.07  14
   0   1   3 50333.2 1463.42   9
   0   1   3 52500.8 964.128   1
   0  -1   3 54907.9 1884.35   5
   0   1  -3 56075.9 1652.02  10
   0   1  -3 51436.5 803.083   2
   0   1  -3 55919.0 1426.03  11
   0  -1  -3 58066.3 1815.35  11
   0  -1  -4 1725.78 424.128  10
   0  -1  -4 1822.96 472.128  11
   0  -1   4 1735.97 285.410   4
   0  -1  -4 1818.49 382.488  14
   0   1   4 1778.11 256.230   8
   0  -1   4 1479.44 151.260   1
   0   1  -4 1740.17 373.929  10
   0   1  -4 2045.78 345.448  14
   0   1  -4 2497.85 412.932  11
   0  -1   4 1656.68 802.373   5
   0   1   4 2228.33 742.954   5
   0   1   4 1623.42 289.987   9
   0   1   4 3594.11 1125.89  12
   0   1  -5 19385.5 1084.96  14
   0   1   5 19672.8 1492.24   5
   0   1   5 18882.2 1339.44  12
   0  -1  -5 20215.4 1250.03  14
   0  -1  -5 19424.9 1463.82  10
   0  -1  -5 20816.9 1465.45  11
   0  -1   5 19613.1 1310.25  12
   0   1  -5 21109.6 1386.69  10
   0  -1   5 20497.0 939.810   4
   0   1   5 19406.3 909.461   8
   0  -1   5 18329.3 1446.46   5
   0   1  -5 18770.7 1257.62  11
   0  -1   6 16898.9 1358.73  12
   0  -1  -6 15895.2 1469.92  11
   0   1   6 15188.2 1297.34  12
   0   1  -6 18324.4 1430.21  10
   0  -1   6 17762.1 1504.95   5
   0  -1  -6 17391.8 1522.07  10
   0   1   6 17614.5 1530.13   5
   0   1  -6 18408.3 1456.59  11
   0  -1  -6 17862.1 1308.39  14
   0   1  -6 15606.8 1114.20  14
   0   1   7 44049.1 2415.64  12
   0  -1   7 44016.6 2582.67   5
   0  -1   7 38877.3 2280.73  12
   0  -1  -7 43529.5 2728.36  11
   0   1  -7 46608.9 2201.38  14
   0  -1  -7 45120.7 2290.12  14
   0   1  -7 47671.3 2555.36  10
   0   1   7 43617.7 2603.77   5
   0   1  -7 42437.9 2490.59  11
   0  -1  -7 47151.8 2761.25  10
   0   1   8 8085.65 1147.12  12
   0  -1  -8 11168.9 1476.58  10
   0   1  -8 10551.2 1356.80  10
   0   1  -8 8571.94 1278.01  11
   0   1   8 11503.1 1488.32   5
   0  -1  -8 10352.0 1495.36  11
   0  -1   8 9731.65 1372.80   5
   0  -1   8 9691.00 1258.18  12
   0   2  -1 337446. 3451.37  12
   0  -2   1 335395. 3506.38   8
   0   2  -1 339599. 2761.24   5
   0  -2  -1 336306. 2570.16   8
   0   2  -1 330445. 3419.42   8
   0  -2   1 333378. 3570.20   4
   0  -2  -1 325035. 3322.84  10
   0   2   1 330094. 2439.80   8
   0  -2  -1 331654. 2737.10   5
   0   2   1 336310. 3253.30   1
   0  -2   1 338997. 2530.36  13
   0   2  -1 340829. 2729.00   9
   0   2   1 333382. 2580.89   5
   0   2   1 332375. 3135.78  10
   0  -2  -1 331343. 3034.54   4
   0  -2  -1 342043. 3406.61   1
   0   2   1 328087. 3483.71  11
   0  -2   1 329866. 2547.55   5
   0  -2   2 148724. 2565.44   4
   0   2   2 153283. 2498.82   5
   0   2  -2 146573. 2649.44   8
   0  -2   2 146614. 2441.40   5
   0  -2  -2 143626. 2787.84  10
   0  -2   2 150587. 2600.35  12
   0   2   2 150824. 2702.48  10
   0  -2  -2 152249. 1882.78   4
   0   2   2 150009. 2203.36   1
   0  -2   2 154631. 2665.26   8
   0   2  -2 156872. 2581.82  12
   0   2   2 146892. 2514.99  11
   0   2  -2 145482. 2661.68   5
   0  -2  -2 145234. 2712.84  11
   0   2   2 146738. 2843.70  12
   0  -2  -2 147588. 2672.19   5
   0  -2   2 150196. 1835.71  10
   0   2   2 146444. 2584.71   9
   0   2   2 152179. 2568.39  14
   0   2   2 146731. 1454.38   8
   0   2   3 67280.7 2033.51   5
   0   2  -3 69476.2 1675.80  10
   0  -2   3 61402.8 1971.24   5
   0  -2   3 65270.2 1819.79   4
   0  -2   3 68442.1 1484.14   1
   0  -2   3 65886.4 1945.64  12
   0  -2  -3 64754.3 2088.95  11
   0   2   3 66521.5 1794.45  14
   0   2  -3 67874.7 1265.70   2
   0   2   3 63858.5 2058.59  12
   0   2  -3 67800.1 2032.16   8
   0  -2   3 65454.4 1600.74  10
   0  -2  -3 63908.6 2183.92  10
   0  -2   4 15558.7 1132.72   5
   0  -2  -4 15857.3 1238.79  11
   0   2   4 13650.6 538.050   8
   0  -2  -4 15656.6 1077.27  14
   0   2  -4 16050.6 993.710  10
   0   2  -4 15167.8 791.904  14
   0  -2  -4 14913.8 1192.14  10
   0   2  -4 15254.3 1123.89   8
   0  -2   4 15607.5 718.146   1
   0  -2   4 15432.2 957.542   4
   0   2   4 15861.0 1155.97   5
   0   2   4 17188.5 1245.12  12
   0   2  -4 12926.3 534.340   2
   0   2  -5 95778.3 2624.99  11
   0   2   5 107470. 3242.21  12
   0  -2  -5 107745. 3544.49  11
   0  -2   5 108043. 2641.00   4
   0  -2   5 103048. 3224.82   5
   0  -2   5 101467. 1724.83   1
   0   2   5 101481. 1738.80   8
   0   2  -5 101736. 2379.64  14
   0  -2  -5 112094. 3158.81  14
   0   2  -5 109939. 2974.62  10
   0   2   5 105158. 3362.80   5
   0  -2   5 107233. 3099.46  12
   0  -2  -5 104644. 3537.12  10
   0   2  -6 32779.1 1561.39  14
   0  -2  -6 31690.1 2161.56  10
   0  -2  -6 36411.0 1986.56  14
   0   2   6 32687.7 1962.74  12
   0   2  -6 31322.2 1789.22  11
   0  -2  -6 35435.9 2277.77  11
   0  -2   6 31856.7 1906.96  12
   0   2   6 34403.2 2131.09   5
   0   2  -6 34759.4 1914.24  10
   0  -2   6 33263.5 2037.85   5
   0   2  -7 1460.32 465.090  11
   0  -2  -7 2067.58 710.709  10
   0   2   7 1664.47 458.165  12
   0   2  -7 2705.37 530.153  14
   0  -2   7 1363.00 518.633  12
   0  -2   7 2271.94 669.197   5
   0   2   7 2952.82 737.184   5
   0  -2  -7 2386.24 743.052  11
   0   2   8 5868.70 995.953  12
   0  -2   8 6596.31 1125.88   5
   0  -2   8 6102.94 1041.60  12
   0   2   8 6820.69 1199.27   5
   0   2  -8 4863.92 920.021  11
   0  -2  -8 6814.18 1185.54  10
   0  -2  -8 8163.99 1387.94  11
   0   3   0 362.443 181.763   8
   0  -3   0 314.338 246.531   4
   0   3   0 343.457 196.842   9
   0   3   0 408.427 127.890  10
   0  -3   0 283.742 143.374   3
   0  -3   0 577.151 252.078   1
   0  -3   0 633.002 220.112   8
   0  -3   0 421.903 146.124  10
   0  -3  -1 129797. 2417.67   4
   0  -3   1 125492. 2657.92   4
   0  -3   1 130729. 2506.87   1
   0   3  -1 130897. 1795.02  13
   0  -3   1 126050. 1503.81   5
   0   3   1 127383. 1953.11   8
   0   3  -1 128015. 2248.22   9
   0  -3   1 132345. 2104.46  13
   0   3   1 126074. 1677.03   6
   0   3   1 134371. 2674.56   9
   0   3   1 129914. 2523.50  11
   0  -3  -1 127875. 2097.81   8
   0   3   1 126921. 1500.68   5
   0   3   1 129786. 2506.89   3
   0  -3   1 125972. 1684.28   6
   0  -3   1 130931. 2590.74   8
   0   3   1 127984. 2118.34  10
   0  -3   1 130257. 1099.58  10
   0  -3  -1 125346. 2313.88  10
   0   3  -1 127298. 2484.16   8
   0  -3  -1 133793. 2611.80   1
   0  -3   2 78882.0 1525.95  13
   0  -3   2 75683.7 1709.46   5
   0   3   2 78330.8 1332.30   8
   0  -3  -2 77275.0 2163.87  11
   0  -3  -2 77806.3 1792.84   4
   0   3   2 74912.5 1718.37   5
   0  -3  -2 79553.5 2068.73   1
   0   3  -2 76581.2 2149.09   8
   0  -3  -2 69021.7 1896.14   5
   0  -3   2 73412.5 2159.80   4
   0  -3   2 75921.0 1940.39   1
   0  -3  -2 76584.9 2226.99  10
   0   3   2 75170.6 1195.93   7
   0   3  -2 79374.3 1444.93   9
   0  -3   2 75476.2 1125.12  10
   0   3  -2 75000.8 1881.96   5
   0  -3   3 19539.3 1156.04   4
   0  -3  -3 19061.4 1278.58  10
   0   3   3 18747.2 1069.74   5
   0   3   3 20459.2 1269.93  12
   0  -3  -3 19817.9 804.558   4
   0  -3   3 18875.2 764.263  10
   0  -3  -3 19335.3 1258.52  11
   0   3   3 19334.4 895.294   7
   0  -3   3 19509.6 1170.60  12
   0   3   3 18180.0 575.830   8
   0  -3   3 19593.2 987.027   1
   0   3  -3 20935.3 1242.22   8
   0  -3   3 18421.5 1069.30   5
   0   3   4 65.5607 48.0050   8
   0  -3  -4 182.653 260.186  11
   0   3   4 52.6391 38.3734   8
   0  -3   4 88.2530 365.586   5
   0  -3  -4-167.338 286.852  10
   0   3  -4 35.4456 202.479   8
   0  -3   4 77.7526 145.243  10
   0   3   4 370.566 253.623   5
   0  -3   4 119.958 142.601   1
   0   3  -4 172.419 149.022   2
   0  -3   4 241.386 325.176   4
   0   3  -5 5720.59 578.298  14
   0   3   5 6131.09 849.086   5
   0  -3  -5 6258.85 938.273  11
   0   3  -5 6410.69 864.542   8
   0   3  -5 2548.26 264.127   2
   0  -3   5 6232.76 752.860   4
   0  -3   5 6419.54 853.718   5
   0   3   5 6151.59 821.721  12
   0  -3   5 5131.30 773.391  12
   0  -3  -5 5467.44 865.856  10
   0   3  -5 4194.79 533.116  11
   0   3   6 11319.2 1201.23   5
   0  -3  -6 9278.43 1234.31  11
   0   3  -6 7853.85 859.992  11
   0   3  -6 9662.87 851.787  14
   0  -3   6 9649.41 1115.74  12
   0  -3  -6 8599.70 1159.26  10
   0  -3   6 9123.31 1073.00   5
   0   3   6 10049.8 1121.21  12
   0   3  -7 10379.2 991.757  14
   0   3   7 6462.22 991.798  12
   0   3   7 11716.7 1370.68   5
   0   3  -7 8277.05 1065.08  11
   0  -3   7 6615.52 1029.02  12
   0  -3  -7 10586.9 1590.78  11
   0  -3   7 8068.52 1185.31   5
   0   3  -8 5073.86 904.715  11
   0  -3   8 6894.01 1116.30  12
   0   3   8 6492.27 1119.26   5
   0  -3   8 6156.70 1118.07   5
   0   3   8 6237.80 1003.89  12
   0  -3  -8 6084.26 1199.14  10
   0  -4   0 480129. 5727.12   4
   0   4   0 448523. 4801.75   8
   0  -4   0 458147. 3953.11  10
   0  -4   0 487047. 5361.65   8
   0   4   1 162220. 1866.37   6
   0   4  -1 166132. 2995.49   9
   0  -4  -1 163888. 2913.72  10
   0  -4   1 163550. 1666.87  10
   0   4   1 155941. 2555.99  10
   0  -4   1 156823. 1776.21   6
   0   4  -1 164856. 2409.34  13
   0   4  -1 161494. 3154.75   8
   0   4   1 164153. 3120.53   3
   0   4   1 164242. 2615.75   8
   0   4   1 161222. 1561.30   5
   0  -4  -1 164757. 2869.58   8
   0  -4  -1 158189. 3188.22   4
   0  -4   1 159292. 1567.94   5
   0  -4   1 158693. 3405.76   4
   0  -4  -2 154021. 3030.61   4
   0   4   2 143474. 2552.92   6
   0  -4   2 148682. 2358.33   5
   0  -4  -2 151160. 2500.10   8
   0  -4   2 145170. 1398.55  10
   0   4  -2 161949. 2635.16   9
   0   4   2 156036. 2319.41   8
   0  -4   2 150604. 2648.99   6
   0   4  -2 148309. 3288.42   8
   0  -4   2 150187. 3462.04   4
   0   4   2 152699. 3434.25   3
   0   4   2 157177. 2383.67   5
   0  -4  -2 149561. 3317.82  10
   0  -4  -3 23348.3 1482.18  10
   0  -4   3 23278.6 1428.29   4
   0   4   3 23287.3 822.471   7
   0  -4  -3 23143.1 1438.37  11
   0  -4   3 22073.3 1138.94   5
   0  -4  -3 24139.0 1130.06   4
   0   4   3 23995.7 1496.90  12
   0   4   3 22596.5 761.773   8
   0   4  -3 23332.1 1449.27   8
   0   4  -3 25619.9 811.598   9
   0   4   3 23626.5 1188.92   5
   0  -4   3 21789.9 695.937  10
   0  -4  -4 850.013 425.215  10
   0  -4  -4 1010.96 241.226   4
   0  -4   4 658.949 715.128   5
   0   4   4 638.108 241.938   7
   0  -4   4 637.891 189.006  10
   0   4   4 1063.68 543.712   5
   0  -4  -4 668.452 355.996  11
   0   4  -4 269.724 308.355   8
   0  -4   4 1878.12 1106.99   4
   0   4   5 72221.9 2711.06   5
   0  -4   5 71393.1 2712.51   4
   0  -4  -5 69851.6 3174.55  10
   0  -4   5 66919.9 2587.24   5
   0   4  -5 72296.9 1803.16   2
   0   4  -5 74497.8 3029.16   8
   0  -4  -5 67124.5 3106.61  11
   0  -4   5 69161.6 2823.15  12
   0   4   5 67583.5 2870.00  12
   0   4   6 42265.2 2404.07  12
   0   4  -6 41992.6 1733.35  14
   0  -4   6 45977.9 2309.33   4
   0  -4  -6 44246.5 2763.29  11
   0   4   6 44103.1 2423.75   5
   0  -4   6 44939.7 2356.54   5
   0  -4  -6 41972.1 2697.29  10
   0  -4   6 43249.9 2465.40  12
   0   4  -6 42904.3 1981.06  11
   0   4   7 721.634 395.262  12
   0  -4  -7 1731.38 653.214  10
   0   4   7 1215.88 529.496   5
   0  -4   7 741.197 390.543  12
   0  -4  -7 714.851 427.341  11
   0   4  -7 938.581 315.092  14
   0  -4   7 1016.28 455.066   5
   0   4  -7 907.981 406.130  11
   0   4  -8 105.498 269.605  11
   0   4   8 730.486 491.160  12
   0   4   8 602.794 394.958   5
   0  -4   8 325.455 303.780   5
   0  -5   0-5.90502 188.092   4
   0   5   0 88.4069 195.796   8
   0  -5   0 305.457 121.572  10
   0  -5  -1 3629.25 501.482  10
   0   5   1 4955.42 639.358   3
   0   5   1 2981.15 224.015   6
   0   5   1 4071.24 492.240   8
   0  -5   1 2813.03 180.830   5
   0   5  -1 4053.76 591.045   8
   0   5   1 3143.60 190.609   5
   0  -5   1 3894.27 643.735   4
   0  -5   1 3660.43 306.966  10
   0  -5  -1 3903.94 588.511   4
   0   5  -1 4324.24 465.681  13
   0  -5   1 2784.38 201.874   6
   0  -5  -2 17497.8 1006.92   8
   0  -5   2 17533.7 1325.47   4
   0   5  -2 17607.6 1234.81   8
   0   5   2 18199.0 779.390   5
   0  -5   2 18262.9 904.108   6
   0   5   2 17371.6 903.806   6
   0  -5  -2 18051.4 1200.43   4
   0   5   2 19202.3 1296.25   3
   0   5   2 18991.4 936.062   8
   0  -5   2 19289.2 825.025   5
   0  -5  -2 19731.2 1290.88  10
   0   5   3 1388.11 238.156   8
   0   5   3 1701.44 334.614   5
   0   5   3 1598.82 416.997   3
   0  -5  -3 1345.24 356.533   4
   0   5  -3 1073.35 453.894   8
   0  -5   3 1393.94 449.829   4
   0  -5  -3 1335.75 407.027  10
   0  -5   3 1600.08 333.647   5
   0   5  -3 1501.92 263.281   9
   0  -5  -4 1006.82 480.975  10
   0   5   4 1997.16 536.576   5
   0  -5   4 1514.61 498.795   4
   0   5  -4 980.771 445.387   8
   0  -5  -4 906.739 274.634   4
   0  -5   4 1628.83 432.315   5
   0   5  -5 1587.71 562.853   8
   0   5  -5 1651.41 330.726   2
   0  -5  -5 1197.65 465.093  10
   0   5   5 1173.86 444.192   5
   0  -5  -5 894.352 377.907  11
   0   5   5 1214.30 419.451  12
   0  -5   5 743.859 348.847   4
   0  -5   5 1249.48 391.455   5
   0  -5  -6 9578.43 1359.15  10
   0   5   6 10163.5 1175.31   5
   0  -5  -6 10732.5 1417.93  11
   0   5  -6 9991.23 1293.85   8
   0  -5   6 8015.69 1004.01   5
   0  -5   6 9245.68 1157.47   4
   0   5   6 9033.63 1148.21  12
   0  -5   7 7930.30 1113.27   5
   0   5   7 8287.29 1192.43   5
   0  -5  -7 9792.33 1513.15  11
   0   5  -7 7683.59 884.269  14
   0  -5  -7 10083.5 1484.27  10
   0   5   7 7459.04 1149.65  12
   0   5  -7 8646.48 1057.91  11
   0   6   0 581312. 6518.22  13
   0   6   0 585628. 6887.47   8
   0   6   1 48189.7 2025.89   3
   0  -6  -1 41948.6 1774.71  10
   0  -6   1 39909.6 2160.24   4
   0   6  -1 42800.5 1973.72   8
   0  -6   1 42225.1 1182.29  10
   0  -6  -1 43630.9 2134.54   4
   0   6   1 44549.3 1745.18   8
   0   6  -1 43282.6 1543.84  13
   0   6   2 1130.54 249.882   6
   0  -6   2 950.691 438.202   4
   0  -6   2 1306.06 211.794   5
   0   6   2 1041.30 268.061   8
   0   6  -2 1199.78 451.671   8
   0   6   2 1097.67 426.234   3
   0  -6  -2 665.275 293.929  10
   0  -6   2 735.796 172.115   6
   0  -6  -2 620.353 309.523   4
   0   6   2 965.896 174.572   5
   0  -6  -3 9112.07 951.465   4
   0   6   3 8712.68 671.355   5
   0  -6   3 8487.18 1076.62   4
   0  -6  -3 9003.70 1053.50  10
   0  -6   3 8092.00 664.505   5
   0   6   3 8292.35 979.147   3
   0   6  -3 8606.28 1043.15   8
   0   6   3 9156.31 661.810   8
   0   6  -4 36691.1 2260.08   8
   0  -6   4 33943.9 1617.99   5
   0   6   4 37966.2 1683.97   5
   0   6   4 31295.3 2147.64  12
   0   6   4 33482.2 2157.51   3
   0  -6  -4 33859.3 2256.17  10
   0  -6   4 34798.7 2180.44   4
   0  -6  -4 35076.5 1726.84   4
   0  -6   5 43325.1 2059.29   5
   0   6   5 47635.7 2175.05   5
   0  -6   5 42127.0 2532.63   4
   0   6   5 41962.7 2517.01  12
   0   6  -5 46792.3 2699.17   8
   0   6  -5 48685.3 1895.60   2
   0  -6  -5 45710.9 2834.80  10
   0  -6   6 344.060 274.985   5
   0  -6  -6 187.298 392.846  10
   0   6   6 256.703 290.458  12
   0  -6   6 656.180 439.326   4
   0   6  -6-50.0502 260.568   8
   0   6   6-660.200 399.919   5
   0   6  -7 819.085 368.617  14
   0   6   7 280.321 373.530  12
   0   6  -7 896.210 401.382  11
   0  -6   7 753.062 422.873   5
   0   6   7-79.0839 334.892   5
   0   7   0-475.811 331.145  13
   0  -7   0 73.0797 133.023   7
   0  -7   0 248.971 352.971   4
   0  -7   0 166.873 170.182  10
   0   7   0 828.792 340.316   8
   0   7  -1 64467.0 2599.26   8
   0   7  -1 68835.2 2138.23  13
   0  -7   1 66002.9 1624.68  10
   0  -7  -1 67144.2 2950.86   4
   0  -7  -1 66584.6 2382.05  10
   0  -7   1 65704.8 2956.28   4
   0   7   1 68322.7 2400.77   8
   0   7   2 6965.09 735.787   8
   0   7   2 8042.57 952.677   3
   0  -7  -2 6448.26 915.535   4
   0  -7   2 7397.95 1044.41   4
   0   7  -2 7486.71 1016.20   8
   0  -7  -2 6038.42 816.823  10
   0  -7  -3 25993.3 1786.11   4
   0   7  -3 27666.1 1947.78   8
   0  -7  -3 29194.6 1983.60  10
   0   7   3 26329.5 1836.84   3
   0  -7   3 24398.3 1925.13   4
   0  -7  -4 1015.88 387.872   4
   0  -7  -4 595.544 508.206  10
   0   7   4 1484.60 963.543  12
   0   7  -4 1225.90 521.377   8
   0  -7   4 2842.59 1200.61   4
   0   7  -5 21180.4 1397.79   2
   0   7   5 17544.6 1711.53   3
   0   7  -5 21909.3 1956.38   8
   0  -7  -5 20078.0 1946.79  10
   0   7   5 19141.0 1782.66  12
   0  -7   5 18950.3 1804.75   4
   0  -7   6 6979.46 1151.87   4
   0   7   6 6228.82 1145.14  12
   0   7  -6 6466.18 1163.53   8
   0   7   6 4669.48 1011.42   3
   0  -7  -6 6673.68 1229.90  10
   0   7  -7 21148.9 1584.01  11
   0   7  -7 18865.3 1411.15  14
   0  -8   0 211929. 3918.18  10
   0   8   0 204052. 4440.20  13
   0   8   0 208297. 4827.84   8
   0   8   1 12946.6 1138.04   8
   0  -8   1 11704.5 1396.45   4
   0   8  -1 11676.3 963.438  13
   0   8  -1 12843.5 1252.18   8
   0  -8  -1 11978.5 1086.07  10
   0  -8  -1 12591.6 1431.03   4
   0  -8  -2 2177.69 660.574   4
   0   8   2 2923.25 646.548   3
   0   8   2 2166.91 489.473   8
   0  -8   2 2322.03 709.868   4
   0   8  -2 2310.56 590.798   8
   0  -8  -2 1566.94 465.791  10
   0  -8  -3 3179.53 715.798   4
   0   8   3 4201.69 801.389   3
   0   8  -3 4105.34 939.392   8
   0  -8  -3 2631.58 616.520  10
   0  -8   3 3210.53 761.580   4
   0   8  -4 17149.5 1733.37   8
   0   8   4 15315.0 1669.46  12
   0  -8  -4 18198.5 1802.76  10
   0  -8   4 17730.5 1845.45   4
   0   8   4 17518.6 1658.29   3
   0   8   5 20985.8 1946.05   3
   0   8  -5 23390.5 2121.40   8
   0   8   5 20329.8 1969.85  12
   0  -8   5 19915.0 2013.69   4
   0  -8  -5 21007.3 2098.75  10
   0  -8   6 485.350 461.204   4
   0   8   6 512.127 436.721  12
   0   9   0 377.497 243.218   8
   0   9   0-89.6847 252.208  13
   0  -9   0-110.152 277.963   4
   0  -9   1 582.742 405.045   4
   0   9  -1 577.221 362.603   8
   0   9  -1 1775.19 436.889  13
   0   9   1 148.607 275.348  13
   0  -9  -1 1506.99 574.629   4
   0   9   1 1366.78 463.902   8
   0  -9   2 2365.42 751.746   4
   0  -9  -2 1690.29 460.851  10
   0   9  -2 2507.42 687.818   8
   0  -9  -2 1714.15 619.779   4
   0  -9  -3 455.159 444.214   4
   0   9   3 265.527 311.411   3
   0  -9  -3 120.622 204.454  10
   0  -9   3-296.475 341.721   4
   0   9  -3 283.928 306.269   8
   0   9   4 1098.65 703.914  12
   0  -9  -4-280.328 349.734  10
   0   9  -4-160.164 429.205   8
   0  -9   4 1296.29 839.405   4
   0   9   4 1582.46 660.478   3
   0  -9   5-839.747 535.874   4
   0   9   5 391.605 355.651  12
   0  -9  -5 274.052 511.499  10
   0  10   0 6384.81 907.708  13
   0 -10   0 6238.86 1257.40   4
   0  10   0 6675.18 1045.29   8
   0  10   1 3916.80 766.922  13
   0  10   1 3702.15 707.376   8
   0  10  -1 3545.82 810.848   8
   0 -10   1 3879.38 937.138   4
   0 -10  -1 3128.26 914.702   4
   0  10  -1 5122.40 747.434  13
   0  10  -2 12029.2 1474.97   8
   0 -10  -2 11881.7 1662.97   4
   0 -10   2 11532.5 1664.61   4
   0  10  -3 1806.65 717.877   8
   0 -10   3 1558.31 680.517   4
   0 -10  -3 2192.53 745.963   4
   0 -10  -3 1349.00 550.043  10
   0 -10  -4 1627.04 913.419  10
   0  11   0 83.7860 408.006   8
   0  11   0 335.395 361.551  13
   0  11   1-265.642 410.775  13
   0  11  -1 665.995 415.498   8
   0 -11  -1 1094.28 637.548   4
   0 -11  -2 131.786 427.994   4
  -1   0   9 185.554 298.602  12
  -1   0   8 24313.6 1827.18  12
  -1   0   8 27896.9 2252.77   5
   1   0  -8 32265.3 2467.60  11
   1   0  -8 30179.6 2125.65  14
   1   0  -7 9656.98 1255.99  11
   1   0  -7 9457.82 1089.52  14
  -1   0   7 9570.36 1221.23   5
   1   0  -7 10431.2 1265.03  10
  -1   0   7 8369.63 982.834  12
   1   0  -6 1159.81 487.153  11
  -1   0   6 391.928 284.786  12
  -1   0   6 602.404 321.386   5
   1   0  -6 1245.04 469.319  10
   1   0  -6 652.872 285.954  14
   1   0  -5 37348.9 1926.08  10
  -1   0   5 36861.6 921.635   2
  -1   0   5 36760.5 2137.75   5
  -1   0   5 36098.0 1102.42   9
   1   0  -5 36435.9 1810.18  11
   1   0  -5 35432.2 1634.97  14
  -1   0   4 80995.7 2064.04  12
  -1   0   4 86021.5 1623.03   9
   1   0  -4 91801.7 2676.48  10
   1   0  -4 86536.6 1930.84   9
  -1   0   4 84976.1 2826.20   5
   1   0  -4 83666.7 2236.85  14
  -1   0   4 89344.0 1453.08   2
   1   0  -4 86090.0 2358.28  11
   1   0  -3 919256. 8033.36   6
   1   0  -3 909861. 6036.44  12
  -1   0   3 924691. 5296.05  11
  -1   0   3 906855. 5569.68  12
  -1   0   3 924066. 4869.36   9
   1   0  -3 915819. 5540.17   9
   1   0  -3 920321. 6424.10  11
   1   0  -2 37258.2 874.113  12
  -1   0   2 37951.4 1251.87  10
   1   0  -2 34565.9 1004.24  11
   1   0  -2 34968.3 1321.23   6
  -1   0   2 34062.9 877.467  11
  -1   0   2 37868.6 1310.88   6
  -1   0   2 36595.1 842.768   9
  -1   0   2 36250.8 936.718  14
  -1   0   2 36833.6 820.437  12
   1   0  -2 35877.2 1029.46  14
   1   0  -2 36873.2 954.963   9
   1   0  -1 11815.7 472.328  14
  -1   0   1 10475.3 402.698   9
   1   0  -1 10652.8 614.269   7
  -1   0   1 11622.8 433.043  14
   1   0  -1 11270.1 451.534   9
  -1   0   1 9733.38 410.505  11
  -1   0   1 11896.9 607.468   6
   1   0  -1 10097.6 597.169   6
  -1   0   1 12131.2 628.686   7
  -1   0   0 700803. 3831.71   5
   1   0   0 692640. 3824.07   6
  -1   0   0 693760. 4382.80   7
   1   0   0 691133. 4419.85   7
   1   0   1 446125. 4281.85   7
   1   0   1 451329. 3799.71  12
  -1   0  -1 454535. 4323.50   7
   1   0   1 451387. 3738.42   5
  -1   0  -1 458626. 3948.84  12
  -1   0  -1 448753. 3182.47  10
  -1   0  -1 456499. 3313.47   8
  -1   0  -2 191048. 2796.25  10
   1   0   2 193887. 3029.62   5
  -1   0  -2 195527. 3235.30  12
   1   0   2 191932. 3376.87   7
  -1   0  -2 190127. 3126.20   5
  -1   0  -2 186665. 2143.16   4
  -1   0  -2 192351. 2327.85   8
   1   0   2 192728. 3069.38  12
   1   0   2 189751. 2517.30  10
   1   0   2 186223. 2414.81   8
  -1   0  -2 190599. 1609.52  14
  -1   0  -3 549.417 168.878  14
   1   0   3 684.139 206.956   8
  -1   0  -3 1075.32 420.993  11
  -1   0  -3 546.236 276.465  10
  -1   0  -3 690.623 169.634   4
   1   0   3 823.646 309.017   5
  -1   0  -3 948.086 234.705   8
  -1   0  -4 117903. 2222.20  14
   1   0   4 116658. 3242.63   5
   1   0   4 114347. 3070.88  12
  -1   0  -4 116344. 3159.55  10
   1   0   4 118212. 2452.29   8
  -1   0  -4 122027. 2425.05   8
  -1   0  -4 114441. 2799.69  11
  -1   0  -5 313449. 5791.01  10
  -1   0  -5 302324. 5392.43  11
  -1   0  -5 318548. 4263.95  14
   1   0   5 312854. 5840.01   5
   1   0   5 296257. 5518.42  12
   1   0   6 3439.03 678.992  12
  -1   0  -6 3404.65 698.359  11
  -1   0  -6 2741.86 629.749  10
   1   0   6 2929.14 665.704   5
   1   0   7 6521.32 1006.44  12
  -1   0  -7 6922.76 1056.01  10
   1   0   7 6783.08 1045.85   5
  -1   0  -7 7139.29 1098.65  11
  -1   0  -8 1842.85 603.083  10
  -1   1   9 1068.38 466.775  12
  -1  -1   9 1349.86 532.118  12
   1  -1  -8 5434.40 1191.84  10
  -1  -1   8 2824.39 1065.40   5
   1   1  -8 5427.30 1093.85  11
  -1   1   8 1519.30 444.004  12
  -1   1   8 3163.86 1179.74   5
   1  -1  -8 6551.14 1171.44  11
   1   1  -8 5790.51 925.079  14
   1  -1  -8 6417.97 1027.85  14
  -1  -1   8 2884.95 672.984  12
   1  -1  -7 1755.55 583.552  10
   1  -1  -7 649.164 373.605  11
  -1   1   7 310.354 312.957   5
   1   1  -7 453.916 219.214  14
  -1  -1   7 953.729 398.590   5
   1  -1  -7 1068.68 409.252  14
  -1   1   7 434.545 244.954  12
   1   1  -7 1095.02 453.746  11
  -1  -1   7 641.869 269.393  12
   1  -1  -6 0.94428 262.255  11
  -1  -1   6 136.145 218.913  12
  -1   1   6 689.490 379.270   5
   1   1  -6-90.4726 178.620  14
  -1  -1   6 327.659 182.618   4
   1  -1  -6 214.832 172.926  14
  -1  -1   6 93.8014 240.746   5
  -1   1   6-35.8914 249.022  12
   1  -1  -6 403.826 318.177  10
   1   1  -6 319.624 292.549  11
   1  -1  -5 1072.87 399.683  14
   1  -1  -5 1479.43 500.590  10
  -1   1   5 1733.35 432.551  12
   1   1  -5 1429.62 391.771  14
   1  -1  -5 1529.18 527.186  11
   1   1  -5 936.595 345.270  11
   1   1  -4 2997.39 304.423   9
  -1  -1   4 3457.02 298.365   2
   1  -1  -4 3157.52 549.579  11
  -1  -1   4 4167.56 597.819   5
   1  -1  -4 4125.73 584.003  14
   1  -1  -4 3194.24 511.042   9
  -1   1   4 2864.65 499.067   5
   1   1  -4 3422.89 434.934  14
  -1   1   4 3508.50 476.182  12
  -1  -1   4 3479.21 442.611  12
  -1   1   4 3390.39 426.247   9
   1  -1  -4 3709.53 639.622  10
   1   1  -4 3395.13 429.462  11
  -1   1   3 327752. 3741.98   9
  -1  -1   3 315584. 4580.58   5
   1  -1  -3 306286. 4076.58  14
   1  -1  -3 319713. 3953.38   9
   1  -1  -3 314721. 4657.54  10
  -1   1   3 321637. 4684.34   5
   1  -1  -3 316847. 3839.18  12
   1   1  -3 321615. 3625.53  12
  -1  -1   3 300886. 3907.50   8
  -1  -1   3 301217. 3500.93  12
   1   1  -3 311175. 3345.00  14
  -1  -1   3 324125. 2740.29   2
   1  -1  -3 313351. 4171.75  11
   1   1  -3 322273. 2664.59   9
  -1  -1   3 327647. 4300.71  10
  -1   1   3 318278. 3520.33  12
   1   1  -3 314302. 3336.23  11
  -1   1   2 619708. 5359.99  10
   1  -1  -2 602552. 4767.05   9
   1   1  -2 597066. 5398.84   6
   1   1  -2 603883. 3932.97  12
  -1   1   2 609748. 5272.58   6
   1   1  -2 600080. 3779.17  14
  -1   1   2 609935. 4633.41  14
   1   1  -2 595151. 3255.78  11
  -1   1   2 612490. 4592.91   9
   1  -1  -2 635035. 5492.46  10
  -1  -1   2 603679. 5222.89   6
  -1  -1   2 620954. 3611.84   2
   1   1  -2 598589. 3806.49   2
  -1   1   2 583774. 3737.66  12
  -1  -1   2 597044. 4069.25  12
   1  -1  -2 585738. 4779.86  11
   1   1  -2 595014. 2994.14   9
  -1   1   2 611134. 4758.59  11
   1  -1  -2 571493. 4826.32  14
   1  -1  -2 591144. 5326.81   6
   1  -1  -1 661963. 4474.27   9
   1  -1  -1 667688. 4298.78   6
  -1  -1   1 730476. 4493.91   6
   1   1  -1 695716. 4420.21   6
  -1  -1   1 672130. 3668.25   2
   1  -1  -1 674193. 4629.75  14
  -1   1   1 704052. 4244.66   7
  -1   1   1 648436. 4511.56  10
  -1   1   1 711439. 4523.12  14
  -1   1   1 672216. 4274.50   9
   1  -1  -1 694350. 4176.62   7
   1   1  -1 656051. 3703.76   2
  -1  -1   1 696907. 4922.77   7
  -1   1   1 649787. 4282.78   6
  -1  -1   0 215617. 2131.49   5
   1  -1   0 214668. 2501.26   7
  -1   1   0 210451. 1850.01  12
  -1  -1   0 204101. 1460.82  11
   1  -1   0 221027. 1897.07  13
  -1   1   0 212823. 2097.90   5
  -1   1   0 203004. 2567.03   8
   1   1   0 214536. 2108.06   6
  -1   1   0 210948. 2486.49   7
  -1   1   0 204787. 2558.62   4
   1  -1   0 214976. 2133.06   6
   1  -1   0 212658. 1908.69  12
  -1  -1   0 220621. 1979.74   2
   1   1   0 212367. 2475.97   7
  -1   1   0 209946. 1979.08   9
  -1  -1   0 209566. 2443.16   7
   1  -1   0 208035. 2106.78   9
   1   1   0 220294. 1976.71   2
   1   1   1 31555.6 1138.32  12
  -1  -1  -1 30837.5 1195.58  12
   1   1   1 31793.3 712.018   2
  -1  -1  -1 31205.4 1080.86   7
  -1   1  -1 31759.6 1001.09   5
   1  -1   1 29794.3 1087.35   8
   1  -1   1 31938.7 997.077  12
   1   1   1 31818.9 993.737   5
   1  -1   1 28570.7 1014.88   4
   1   1   1 30484.4 1057.00   7
  -1  -1  -1 33442.1 1042.98   5
   1  -1   1 30943.6 703.596   9
  -1   1  -1 30319.8 1057.07   4
  -1  -1  -1 31268.9 856.092  11
  -1   1  -1 30113.4 696.582  10
   1  -1   1 31274.6 1184.73   7
  -1  -1  -1 31303.3 979.098  10
   1  -1   1 30723.1 994.300   5
  -1   1  -1 30379.7 1048.85   8
  -1   1  -1 32027.5 1006.70  12
   1   1   2 371214. 2509.61  14
  -1  -1  -2 372474. 4267.31  10
   1  -1   2 378191. 2339.60   9
  -1   1  -2 372868. 3753.89   4
   1  -1   2 369237. 4137.47  12
  -1   1  -2 370822. 3951.62   8
  -1   1  -2 378686. 4381.65   5
   1   1   2 374011. 2228.39   2
   1  -1   2 370464. 4195.60   5
   1  -1   2 370844. 4093.02   8
  -1  -1  -2 382845. 4448.50   5
  -1   1  -2 362540. 3534.93  10
   1   1   2 369539. 4431.82   7
   1   1   2 366353. 4157.81   5
   1  -1   2 353653. 3717.16   4
  -1  -1  -2 376350. 3873.60  11
  -1   1  -2 374472. 2882.22   1
   1   1   2 368551. 4510.43  12
   1  -1   2 386031. 3067.14  10
  -1  -1  -2 363334. 2287.54   8
  -1   1  -3 64790.3 1679.71   4
   1  -1   3 68174.9 1931.82   8
  -1   1  -3 68493.3 1227.29  14
  -1   1  -3 70456.5 1909.16   8
   1   1   3 76656.7 1273.90  14
   1  -1   3 66055.0 1664.09   4
  -1  -1  -3 68731.6 2221.30  10
  -1  -1  -3 55233.4 966.826   1
   1   1   3 66711.9 1234.78   8
   1  -1   3 68857.0 2146.96   5
  -1   1  -3 67581.9 1914.14  10
   1   1   3 87655.5 2515.45  12
  -1  -1  -3 69178.5 2006.99  11
  -1  -1  -3 69023.9 1189.54   8
   1   1   3 69665.4 2148.37   5
   1  -1   3 70847.6 1653.48  10
  -1   1  -4 77565.5 1680.02  14
  -1   1  -4 82745.5 2286.97   8
   1   1   4 76173.5 1370.90  14
   1   1   4 78044.2 2644.81  12
  -1   1  -4 73141.3 2136.20  11
  -1  -1  -4 76843.1 2509.53  11
  -1  -1  -4 85526.4 2086.80  14
   1  -1   4 77441.8 2605.81   5
  -1   1  -4 77442.8 2413.73  10
  -1  -1  -4 78507.8 2746.71  10
   1   1   4 77607.1 1574.60   8
   1   1   4 78261.2 2627.60   5
   1  -1   4 75839.8 2489.82  12
   1  -1   5 296.776 286.148  12
  -1  -1  -5 648.301 349.336  11
   1  -1   5 120.061 278.735   5
   1  -1   5 978.972 147.392   9
  -1  -1  -5 1080.75 449.343  10
  -1  -1  -5 317.807 178.091  14
  -1   1  -5 445.667 279.837  10
  -1   1  -5 545.280 171.794  14
   1   1   5 423.812 336.828  12
  -1   1  -5 306.877 174.629  11
   1   1   5 923.485 442.854   5
  -1   1  -5 445.702 216.081   8
  -1   1  -6 9720.10 1063.41  11
   1   1   6 10626.9 1264.06   5
   1  -1   6 10790.1 1274.60   5
   1  -1   6 11168.9 1195.47  12
   1   1   6 10886.7 1196.04  12
  -1  -1  -6 11811.6 1327.32  10
  -1  -1  -6 12503.8 1340.92  11
  -1   1  -6 12976.5 1245.87  10
  -1   1  -7 2038.95 539.427  11
  -1  -1  -7 1947.12 651.990  11
   1  -1   7 2721.83 729.445  12
   1  -1   7 3120.54 768.975   5
  -1  -1  -7 3092.95 752.217  10
   1   1   7 3061.50 746.414   5
  -1   1  -7 3584.89 743.377  10
   1   1   7 2703.02 676.425  12
  -1  -1  -8 1115.48 497.258  10
  -1   2   9 5394.04 946.105  12
  -1  -2   9 4468.69 899.644  12
  -1  -2   8 20649.6 1969.54   5
   1   2  -8 22905.4 1767.01  14
   1  -2  -8 26916.8 2406.47  11
   1  -2  -8 25528.9 2260.72  10
   1  -2  -8 24759.0 2048.50  14
  -1   2   8 22285.3 1740.80  12
   1   2  -8 23163.4 2005.11  11
  -1   2   8 24102.1 2113.33   5
  -1  -2   8 21380.7 1792.80  12
   1   2  -7 1444.30 436.039  11
  -1   2   7 2258.36 612.793   5
   1  -2  -7 2215.29 694.229  11
  -1  -2   7 2502.94 629.444  12
  -1   2   7 2001.77 525.220  12
   1  -2  -7 2168.21 657.018  10
   1  -2  -7 1334.64 476.616  14
  -1  -2   7 1685.03 530.632   5
   1   2  -7 2522.91 560.263  14
  -1  -2   6 433.063 397.095   5
  -1  -2   6 283.816 246.576   4
   1  -2  -6 334.241 287.460  10
  -1  -2   6 1018.73 359.103  12
  -1   2   6 758.165 370.629  12
   1  -2  -6 754.137 376.733  14
   1  -2  -6 1241.17 498.358  11
   1   2  -6 571.587 262.914  14
   1   2  -6 573.775 271.359  11
  -1   2   6 642.426 363.508   5
  -1   2   5 2150.39 262.964   4
   1   2  -5 2960.96 480.980  11
   1  -2  -5 3521.99 700.069  10
  -1   2   5 2794.24 537.138  12
  -1   2   5 26284.1 1963.41   5
  -1  -2   5 32435.4 2098.00   5
   1  -2  -5 2248.95 627.876  11
  -1   2   5 11757.6 1041.72   1
   1  -2  -5 3025.17 626.504  14
   1   2  -5 2874.15 494.642  14
  -1   2   4 17533.8 774.795   4
   1   2  -4 19583.2 953.794  11
  -1   2   4 18168.6 1345.57   5
   1   2  -4 14255.4 471.761   9
  -1   2   4 18759.1 1080.52  12
   1  -2  -4 17006.5 1255.39  11
  -1  -2   4 18676.4 1112.35  12
   1  -2  -4 17288.1 1246.55  14
   1   2  -4 17773.7 917.581  14
  -1  -2   4 16877.0 1248.91   5
   1   2  -4 15634.4 783.232   2
   1  -2  -4 18968.6 1361.94  10
  -1  -2   3 145221. 3082.32   5
   1  -2  -3 143765. 3101.84  11
   1  -2  -3 148990. 3352.23  10
  -1   2   3 149743. 2716.87  12
  -1   2   3 143460. 2319.13   4
  -1   2   3 150550. 3232.47   5
  -1  -2   3 153126. 2793.68  10
   1  -2  -3 137698. 3114.94   9
   1   2  -3 153179. 1469.23   9
   1   2  -3 153280. 2236.80   2
   1   2  -3 153478. 2050.38  11
   1  -2  -3 144690. 3137.72  14
  -1  -2   2 51552.2 1548.17   6
  -1   2   2 51133.0 1414.95   4
   1   2  -2 56397.0 1278.46   2
   1  -2  -2 52200.4 1597.63   6
  -1   2   2 53891.6 1660.66  11
   1   2  -2 53151.4 1611.57   6
   1   2  -2 56495.8 1497.35  12
  -1   2   2 54782.8 1697.87  10
  -1  -2   2 52169.4 1579.94   8
  -1   2   2 54268.2 1644.37  14
   1  -2  -2 51615.9 1653.20   9
  -1   2   2 49599.3 1255.93   7
  -1   2   2 54161.9 1662.89   9
  -1   2   2 52767.5 1587.23   6
   1  -2  -2 54491.3 1703.65  10
  -1   2   1 832483. 5927.97   4
  -1   2   1 744956. 4444.21   6
  -1   2   1 816117. 4326.00   7
  -1   2   1 746996. 5885.13  14
  -1  -2   1 859062. 5609.31   8
  -1   2   1 826370. 5783.11   8
   1  -2  -1 835424. 5960.47   4
   1  -2  -1 775657. 4792.01   6
   1  -2  -1 795793. 4319.99   7
   1  -2  -1 742323. 5546.14  10
   1   2  -1 770256. 3080.02  13
  -1   2   1 779717. 5178.55  10
   1  -2  -1 790811. 5914.77   9
  -1  -2   1 813229. 5819.22   7
   1   2  -1 769848. 4687.97   2
  -1   2   1 810956. 5212.35   3
   1   2  -1 838510. 4954.29   6
  -1  -2   1 805054. 4553.80   6
  -1   2   1 873618. 6040.53   9
   1   2   0 499604. 3484.96   3
   1  -2   0 490408. 4003.81   7
  -1   2   0 496532. 4844.00   4
   1  -2   0 486867. 3252.97   6
  -1  -2   0 473741. 3784.40   7
  -1  -2   0 511380. 3654.27   8
  -1   2   0 474838. 4525.13   8
   1  -2   0 472625. 4654.88   8
  -1   2   0 499216. 4005.19   9
   1  -2   0 471600. 4685.11   4
   1   2   0 490420. 3237.23   6
   1   2   0 477008. 3862.27   7
   1  -2   0 482958. 4142.00   9
  -1   2   0 458932. 3094.04   5
   1   2   0 489039. 3104.18  11
  -1   2   0 483654. 3963.67   7
  -1   2   0 482018. 3434.06  13
   1  -2   0 515913. 3966.78  13
  -1  -2   0 498085. 3174.93   5
  -1   2   0 492807. 3804.75  12
   1   2   0 502474. 3624.15   2
   1   2   1 5344.99 423.221   5
   1   2   1 6196.79 413.410  11
   1  -2   1 5288.28 428.326   5
  -1  -2  -1 6170.97 467.857   7
  -1  -2  -1 5726.85 300.888   8
  -1   2  -1 5231.32 464.027  12
  -1   2  -1 5612.74 549.972   8
   1  -2   1 5274.51 532.545   4
   1   2   1 4699.57 412.934   7
  -1  -2  -1 5457.51 446.788  10
   1  -2   1 5453.68 491.395  12
   1  -2   1 5601.65 555.772   8
  -1  -2  -1 5430.14 426.090   5
   1  -2   1 5333.16 409.372   9
  -1   2  -1 5186.27 457.005   1
  -1   2  -1 5645.72 543.180   4
  -1  -2  -1 5512.35 453.839  11
   1  -2   1 4314.40 505.137   7
  -1   2  -1 5709.12 433.100   5
  -1   2  -1 5273.02 236.739  10
  -1   2  -1 5406.42 342.569   9
   1  -2   2 150261. 2789.78  12
   1   2   2 156278. 2719.63   7
   1  -2   2 146480. 2852.43   4
  -1   2  -2 154569. 2831.92   4
   1   2   2 151755. 1863.36   2
  -1   2  -2 154728. 2925.85   8
   1  -2   2 151086. 1867.58   9
   1   2   2 153859. 2660.70   5
  -1  -2  -2 151972. 2836.17  11
   1   2   2 160456. 2366.21  14
   1  -2   2 155552. 2704.98   5
  -1  -2  -2 153101. 3010.95  10
   1   2   2 154724. 3244.94  12
  -1   2  -2 153503. 2325.60   1
  -1   2  -2 153255. 1981.64  10
  -1   2  -2 157597. 2853.41   5
   1  -2   3 70613.9 2169.61   5
  -1  -2  -3 74997.5 1578.60   1
   1   2   3 68949.4 1151.10   2
  -1  -2  -3 74520.3 2285.70  11
   1   2   3 72178.9 1617.76  14
  -1   2  -3 70138.5 1772.87  10
   1  -2   3 70058.8 1157.19   9
   1   2   3 69791.9 2153.02   5
   1  -2   3 72885.0 1489.56  10
   1  -2   3 71067.3 2084.20   4
  -1   2  -3 70886.2 2024.85   4
  -1  -2  -3 71872.4 2426.53  10
  -1   2  -3 74497.3 2190.25   8
  -1   2  -4 97185.0 2469.36  10
   1   2   4 92601.1 3011.74  12
   1   2   4 98224.1 2909.38   5
  -1   2  -4 80092.1 1155.65   2
   1  -2   4 94520.3 2890.13   5
   1   2   4 90899.9 1820.17  14
   1   2   4 85395.1 1136.42   2
  -1   2  -4 98880.2 2772.66   8
  -1   2  -4 92154.2 1761.59  14
   1  -2   4 95175.4 2810.41  12
  -1  -2  -4 96483.8 3186.23  10
   1  -2   4 85165.8 1089.64   9
  -1  -2  -4 97484.6 3012.10  11
   1  -2   4 99413.7 2574.52   4
  -1   2  -5 111444. 3054.94  10
   1  -2   5 106732. 3340.81  12
  -1   2  -5 120233. 3333.24   8
   1  -2   5 108987. 3517.55   5
  -1   2  -5 110997. 2328.34  14
   1   2   5 115818. 3686.92  12
   1  -2   5 114412. 2751.28   4
  -1  -2  -5 114550. 3757.41  11
   1   2   5 111572. 3514.11   5
  -1  -2  -5 114903. 3913.28  10
  -1   2  -6 4740.55 786.940  10
   1  -2   6 2972.25 714.803   5
   1   2   6 3199.10 763.225   5
   1  -2   6 3117.87 649.271  12
  -1   2  -6 3801.94 722.335   8
  -1   2  -6 1712.63 399.741  11
   1   2   6 2672.28 623.858  12
  -1  -2  -6 4060.97 807.509  11
  -1  -2  -6 4425.52 857.412  10
   1   2   7 1240.73 491.572  12
   1  -2   7 1127.93 409.608   5
   1  -2   7 946.684 485.081  12
  -1   2  -7 94.3749 320.913  11
  -1  -2  -7 1064.61 567.019  11
   1   2   7 1049.86 458.021   5
  -1  -2  -7 728.543 406.433  10
  -1  -2  -8 2017.57 740.217  10
   1  -3  -8 20638.8 2161.03  11
  -1  -3   8 20583.8 1858.63  12
   1   3  -8 20229.1 1659.82  14
  -1   3   8 19356.6 1958.25   5
   1   3  -8 19826.4 1777.51  11
  -1   3   8 17655.0 1620.52  12
  -1  -3   8 19255.3 1822.97   5
   1  -3  -8 22656.0 2199.25  10
  -1   3   7-52.6340 201.253  12
   1   3  -7 10.8493 230.397  14
   1   3  -7-105.160 293.218  11
  -1  -3   7-95.1396 222.701  12
  -1  -3   7 750.230 496.291   5
  -1   3   7 174.607 257.612   5
   1  -3  -7-197.635 226.156  11
   1  -3  -7 370.343 464.213  10
   1  -3  -6 46266.3 2624.27  11
  -1   3   6 47790.1 2553.39   5
  -1  -3   6 45321.3 2418.21   5
  -1  -3   6 43754.0 2237.19  12
   1   3  -6 47774.0 2053.57  11
  -1  -3   6 48149.7 2099.67   4
   1  -3  -6 44547.0 2633.38  10
   1   3  -6 40781.5 1801.92  14
  -1   3   6 46042.6 2199.38  12
   1  -3  -5 6447.03 976.370  11
   1  -3  -5 6610.87 965.691  10
  -1  -3   5 26434.4 1760.53   5
  -1   3   5 18517.8 1275.16   1
  -1   3   5 12225.6 1379.59  12
  -1  -3   5 33183.8 1821.69  12
  -1   3   5 20159.2 1672.01   5
   1   3  -5 6546.64 657.957  11
  -1   3   4 69882.9 2290.83  12
  -1   3   4 70777.3 1773.40   4
  -1   3   4 73103.6 2265.31   1
  -1  -3   4 68559.9 2398.96   5
   1  -3  -4 67425.8 2555.23  11
  -1   3   4 75860.7 2637.59   5
   1   3  -4 65457.5 885.682   9
   1   3  -4 70889.2 1756.34   2
   1  -3  -4 67677.9 2654.66  10
  -1  -3   3 100666. 2207.73  10
  -1   3   3 99826.1 2236.97   4
  -1   3   3 91034.0 2088.88   8
  -1   3   3 101231. 2658.82   5
  -1  -3   3 93501.0 2466.08   5
  -1   3   3 88688.4 1877.87   7
   1   3  -3 97423.5 2045.68   2
  -1   3   3 93317.7 2511.69  12
   1  -3  -3 103485. 2922.03   9
  -1   3   3 98177.4 2571.80   1
   1  -3  -3 91523.9 2763.48  10
  -1   3   2 7367.80 613.641   6
  -1  -3   2 8207.40 451.745  13
   1  -3  -2 7772.45 722.919  10
   1   3  -2 7294.22 695.145   8
   1   3  -2 7378.91 562.036   2
  -1   3   2 7708.94 614.454   8
  -1   3   2 7310.96 677.871   1
   1  -3  -2 8135.61 792.005   9
  -1   3   2 7463.69 422.561   7
   1  -3  -2 6827.47 593.189   6
  -1   3   2 7434.51 639.459   4
  -1  -3   2 6934.66 555.045   6
  -1   3   2 6939.19 658.106   3
   1  -3  -2 7786.23 675.254   4
   1   3  -2 7881.51 628.398   6
  -1   3   1 331813. 2919.03   6
   1   3  -1 349639. 3232.01   6
  -1   3   1 309152. 3825.44   3
  -1   3   1 346900. 3749.93  10
  -1  -3   1 343691. 4025.33   8
  -1   3   1 346993. 4190.51   8
   1   3  -1 325060. 4018.44   8
  -1  -3   1 336675. 2873.69   6
  -1   3   1 333806. 4558.18   1
   1  -3  -1 343744. 4484.14   4
   1  -3  -1 341785. 4349.39   8
   1  -3  -1 343593. 2740.61   7
   1  -3  -1 333602. 4188.05   3
   1  -3  -1 340715. 3766.81  10
  -1   3   1 344138. 2711.18   7
   1  -3  -1 337890. 3121.85   6
  -1   3   1 349782. 4498.78   4
   1   3  -1 326451. 2793.10  13
   1  -3  -1 324732. 4532.27   9
  -1  -3   1 348650. 4070.20   7
   1   3   0 216902. 2168.64   6
   1  -3   0 205947. 3191.50   9
  -1   3   0 207478. 2114.11  10
  -1   3   0 216074. 3210.32   9
  -1   3   0 205011. 3482.06   1
  -1   3   0 203205. 2723.03  13
  -1   3   0 201438. 3329.82   8
   1  -3   0 204836. 3498.52   8
  -1  -3   0 195572. 2555.89   7
  -1  -3   0 214809. 2087.11   5
   1   3   0 218843. 2694.40  11
  -1   3   0 206938. 3524.77   4
   1   3   0 214763. 2826.91   3
  -1  -3   0 217306. 2818.85   8
   1  -3   0 209177. 2159.59   6
   1  -3   0 216115. 3080.45   3
   1   3   0 199217. 2703.72   7
  -1  -3   0 212563. 2971.85   3
   1  -3   0 202144. 3593.73   4
   1  -3   0 211412. 2802.81   7
  -1  -3   0 215248. 2572.70  10
  -1   3   0 214146. 2038.67   5
  -1   3  -1 22594.5 902.603   9
   1   3   1 21023.6 845.108   7
  -1   3  -1 20399.1 1064.94   1
   1  -3   1 20497.1 1108.32   7
  -1  -3  -1 21746.6 1005.30  11
  -1  -3  -1 22315.4 755.144   8
  -1   3  -1 21926.0 1152.71   8
   1  -3   1 22626.3 1259.91   4
  -1  -3  -1 22081.0 848.890   7
   1   3   1 21364.6 816.433   5
   1   3   1 22185.6 949.955  11
   1  -3   1 20874.1 828.875   5
   1  -3   1 19218.8 959.414   9
  -1   3  -1 22825.9 873.135   5
   1   3   1 20950.3 1049.24   3
  -1  -3  -1 22594.2 892.250   5
  -1  -3  -1 20525.8 1014.94  10
  -1   3  -2 92.3119 169.742   1
  -1   3  -2 11.9308 44.2372  10
   1  -3   2 12.1424 132.095   5
   1   3   2-134.291 184.281  12
   1  -3   2-157.275 118.525   9
  -1   3  -2 54.1079 137.949   5
   1  -3   2-69.5696 217.567  12
   1  -3   2 131.528 157.344   4
   1   3   2 340.292 145.062   7
  -1  -3  -2-20.9121 148.965  11
  -1   3  -2 77.9335 63.4076   9
   1   3   2-156.649 137.044   5
  -1  -3  -2-65.1125 170.757  10
  -1  -3  -3 33121.8 1044.60   4
  -1  -3  -3 35232.8 1354.71   1
  -1   3  -3 32379.5 1602.08   8
   1  -3   3 32022.7 1652.90   4
   1  -3   3 30250.9 874.669   9
   1   3   3 31017.3 1376.10   7
   1   3   3 32374.9 1438.16   5
  -1  -3  -3 31002.2 1653.14  11
  -1   3  -3 33817.1 1038.44  10
   1  -3   3 31800.0 1470.49   5
  -1  -3  -3 34436.3 1780.30  10
   1  -3   4 97.0893 188.210   4
  -1  -3  -4 155.892 277.476  11
   1   3   4-80.0384 88.0388   2
  -1   3  -4 97.2086 196.259   8
   1   3   4 135.221 268.990  12
   1  -3   4 251.467 154.211  10
   1  -3   4-56.6753 222.162   5
   1   3   4-153.313 289.728   5
   1  -3   4-493.436 289.353  12
  -1   3  -4-27.1129 112.893  10
  -1  -3  -4-169.087 269.144  10
   1   3   5 216.154 297.508  12
  -1   3  -5 487.113 247.196  10
  -1  -3  -5 656.047 447.340  11
   1   3   5 49.6140 200.254   5
  -1   3  -5 135.120 206.548   8
  -1   3  -5 293.188 171.683  14
   1  -3   5 722.005 357.580  12
   1  -3   5 127.294 172.630   4
  -1  -3  -5 449.992 322.129  10
   1  -3   5 476.233 290.540   5
   1  -3   6 9577.78 1129.11   5
   1  -3   6 8178.24 1130.79  12
  -1   3  -6 6477.11 847.670  11
   1   3   6 10172.9 1205.63   5
   1   3   6 8565.82 1157.58  12
  -1  -3  -6 11319.1 1379.18  11
  -1   3  -6 10766.7 1210.12   8
  -1  -3  -6 10887.6 1421.24  10
  -1   3  -7 2123.21 555.636  11
   1  -3   7 1492.81 530.328   5
  -1  -3  -7 1990.38 715.788  10
   1   3   7 2702.45 701.371  12
   1   3   7 2755.69 735.663   5
  -1  -3  -7 1630.46 594.384  11
   1  -3   7 1785.52 632.382  12
  -1   4   8 18715.0 1928.93   5
  -1   4   8 15297.4 1558.84  12
  -1  -4   8 17829.7 1810.92   5
   1  -4  -8 20356.1 2192.31  11
   1   4  -8 17252.0 1516.30  14
   1   4  -8 17507.7 1644.60  11
   1  -4  -8 19817.4 2149.78  10
  -1   4   7 11834.6 1372.11   5
  -1   4   7 10958.6 1202.77  12
   1  -4  -7 11968.1 1534.91  11
  -1  -4   7 9076.62 1172.93   5
   1   4  -7 9802.20 1016.67  14
   1   4  -7 10820.1 1101.45  11
   1  -4  -7 10060.6 1445.08  10
   1   4  -6 137.569 169.826  11
  -1   4   6 175.857 258.749  12
   1   4  -6-160.413 183.004  14
  -1  -4   6 273.650 229.472   5
  -1  -4   6 197.935 262.005   4
   1  -4  -6 102.406 265.532  11
  -1   4   6-33.9339 287.109   5
   1  -4  -6 144.322 225.112  10
  -1  -4   5 33089.4 1982.43   4
  -1   4   5 30199.5 2109.69   5
   1   4  -5 23418.0 1166.90   2
   1  -4  -5 23205.2 1764.40  11
  -1   4   5 24163.1 1131.74   8
  -1   4   5 23608.8 1633.54  12
   1  -4  -5 22815.9 1889.27  10
  -1   4   5 32972.0 1696.35   1
  -1   4   4 14979.8 1170.36   5
   1   4  -4 12760.4 621.921   9
  -1   4   4 15134.3 959.389   4
  -1   4   4 14531.5 1117.24   1
  -1   4   4 12755.9 797.656   7
   1  -4  -4 14860.9 1301.49  10
  -1   4   4 13683.5 865.091   8
   1   4  -4 14993.2 906.921   2
  -1  -4   4 12003.4 1010.63   5
  -1   4   4 13450.0 1122.49  12
   1  -4  -3 13847.9 992.985   4
  -1  -4   3 16264.9 783.464  13
   1   4  -3 14332.8 1197.16   8
   1  -4  -3 16595.5 1210.76  10
  -1   4   3 16220.2 1141.54   1
  -1   4   3 15910.0 1060.11   5
  -1   4   3 14251.5 901.650   8
  -1  -4   3 15331.0 977.754   5
  -1   4   3 14164.6 631.214   7
   1   4  -3 16320.1 963.065   2
   1  -4  -2 5513.02 722.856   9
  -1   4   2 5442.56 505.291   6
  -1   4   2 6045.89 686.412   1
  -1   4   2 4947.01 600.876   3
   1   4  -2 5420.02 676.043   8
   1  -4  -2 5040.81 629.358   4
  -1   4   2 4042.36 236.065   7
  -1  -4   2 5475.01 476.260   6
   1  -4  -2 4445.56 578.193  10
  -1   4   2 5271.26 555.085   8
   1   4  -1 485349. 3747.17   6
   1  -4  -1 482325. 3631.36   6
  -1   4   1 435551. 5047.07   3
   1  -4  -1 475338. 3252.68   7
  -1  -4   1 471653. 5130.31   7
  -1   4   1 476860. 5975.19   1
   1   4  -1 453019. 5248.71   8
  -1  -4   1 468450. 3232.10   6
  -1   4   1 478464. 5429.67   8
  -1   4   1 475967. 4616.24  10
   1   4  -1 454850. 4009.32  13
   1  -4  -1 503855. 6159.93   9
   1  -4  -1 489464. 6150.22   4
   1  -4  -1 461525. 4778.92  10
  -1   4   1 466735. 3289.24   6
   1  -4   0 293065. 4422.54   9
  -1   4   0 301039. 2360.54   5
  -1   4   0 289068. 4394.92   8
   1  -4   0 297619. 3568.44   7
  -1  -4   0 277977. 3231.65   7
   1   4   0 295590. 3766.60   8
  -1  -4   0 301891. 3868.40   8
   1  -4   0 292038. 4896.46   4
   1  -4   0 295927. 2547.79   6
  -1   4   0 309274. 3869.84  13
  -1  -4   0 297754. 2436.24   5
   1   4   0 307292. 3824.30  11
  -1   4   0 289106. 4546.35   1
  -1   4   0 298815. 2678.83  10
  -1  -4   0 294841. 3506.88  10
   1   4   0 301538. 2564.36   6
   1  -4   1 6571.69 646.540   9
  -1   4  -1 6633.56 484.135   5
  -1   4  -1 6773.82 715.215   8
   1  -4   1 6488.41 761.909   4
  -1  -4  -1 6834.02 632.160  10
  -1  -4  -1 7377.95 541.523   8
  -1  -4  -1 7068.36 518.448   5
  -1  -4  -1 7814.39 495.715   7
   1   4   1 6544.23 470.233   7
   1   4   1 7101.12 460.600   5
  -1   4  -1 7244.55 741.542   1
   1  -4   1 6490.63 469.810   5
  -1   4  -1 7536.51 640.416   9
   1   4   1 7183.89 684.851   3
   1   4   2 46359.5 1453.84   5
   1  -4   2 43394.1 1489.78   9
  -1  -4  -2 49234.6 2010.50  10
  -1  -4  -2 47670.5 1899.38  11
  -1   4  -2 49217.4 1360.44   9
   1  -4   2 47675.2 1499.31   5
   1  -4   2 46547.7 2093.74   4
  -1   4  -2 45172.5 1946.32   8
  -1  -4  -2 47082.4 1090.16   8
  -1   4  -2 45820.0 1627.55   5
   1   4   2 44669.1 1314.98   7
   1  -4   3 63909.6 2597.60   4
   1   4   3 63744.6 1819.99   7
  -1  -4  -3 67822.8 1843.31   4
  -1  -4  -3 64080.4 2460.24  11
  -1  -4  -3 68190.7 2679.59  10
  -1   4  -3 64284.8 2472.41   8
   1   4   3 65790.7 2054.09   5
   1   4   3 67411.7 2773.51  12
  -1   4  -3 63200.6 1129.90   9
   1  -4   3 65253.7 2075.28   5
  -1  -4  -4 54295.6 2549.21  11
   1   4   4 51753.4 2518.84  12
   1  -4   4 53924.5 2161.24   5
  -1  -4  -4 54273.9 1354.21   4
   1  -4   4 51727.3 2376.21   4
   1   4   4 53736.4 2118.25   5
  -1   4  -4 55206.5 2435.00   8
  -1  -4  -4 51842.7 2625.06  10
   1  -4   4 50588.7 2367.98  12
  -1  -4  -5 44731.0 2661.82  10
  -1   4  -5 46791.8 2422.71   8
   1   4   5 41752.5 2402.92  12
   1  -4   5 38549.1 2107.17   4
   1   4   5 41323.4 2109.51   5
  -1  -4  -5 46127.6 2585.38  11
   1  -4   5 41233.0 2309.54  12
   1  -4   5 41530.0 2102.75   5
  -1   4  -6 4371.06 691.798  11
   1   4   6 3374.14 757.460  12
   1  -4   6 3374.22 731.714  12
   1  -4   6 2904.14 689.712   5
  -1   4  -6 3699.20 742.456   8
  -1  -4  -6 4861.81 980.032  11
  -1  -4  -6 4680.87 927.193  10
   1   4   6 4213.45 776.627   5
   1  -4   7 4564.36 919.176  12
  -1  -4  -7 6083.42 1207.65  11
   1   4   7 5603.04 1103.86  12
  -1  -4  -7 6917.07 1258.40  10
  -1   4  -7 6040.09 934.132  11
   1   4   7 5527.62 985.287   5
   1  -4   7 6259.25 1003.16   5
   1   5  -8 3506.04 704.776  14
  -1   5   8 2735.79 745.980  12
   1   5  -8 3457.35 713.745  11
  -1   5   8 3794.25 908.951   5
  -1  -5   8 3752.58 879.535   5
  -1   5   7 1052.54 420.175   5
  -1   5   7 19.3508 207.067  12
   1   5  -7 793.589 334.264  14
   1   5  -7 1048.71 426.753  11
   1  -5  -7 717.301 514.255  10
  -1  -5   7 998.546 520.722   5
  -1  -5   6 12244.4 1268.10   4
  -1   5   6 13242.9 1303.15  12
  -1  -5   6 11120.3 1177.98   5
   1   5  -6 14127.4 1093.53  14
   1   5  -6 13939.2 1079.80  11
   1  -5  -6 11253.3 1488.83  10
  -1   5   6 13035.1 1307.99   5
  -1  -5   5 5966.39 1020.31   4
  -1   5   5 1975.00 916.697   5
  -1   5   5 5668.98 939.193  12
   1  -5  -5 444.541 354.471  10
  -1  -5   5 3358.49 949.790   5
  -1   5   4 5358.86 578.943   8
  -1   5   4 4408.75 370.441   7
   1   5  -4 5510.97 881.167   8
  -1  -5   4 5001.60 633.700   5
  -1   5   4 2786.81 673.550  12
  -1  -5   4 5072.03 801.657   4
  -1   5   4 5717.40 708.595   5
   1   5  -4 6144.33 688.443   2
  -1   5   4 5555.02 776.272   1
   1  -5  -4 5445.78 859.859  10
   1  -5  -3 39793.6 1839.51   4
   1   5  -3 40518.5 2058.17   8
  -1   5   3 40928.0 1641.88   5
  -1  -5   3 37477.5 1492.62   5
   1   5  -3 42492.0 1690.62   2
   1  -5  -3 39136.3 1995.76  10
  -1   5   3 38661.6 2021.73   3
  -1   5   3 40985.5 1987.38   1
  -1   5   3 39635.4 1571.56   8
  -1  -5   2 13544.4 724.269   6
  -1   5   2 14623.6 789.472   6
   1  -5  -2 13255.9 1089.00   4
   1   5  -2 13476.1 1099.12   8
  -1   5   2 12928.1 777.304   5
  -1  -5   2 11973.7 697.898   5
  -1   5   2 12474.3 1071.99   1
  -1   5   2 12588.4 1040.87   3
   1  -5  -2 12569.2 1000.78  10
  -1   5   2 12718.7 927.823   8
   1  -5  -1 101496. 1531.83   7
   1  -5  -1 107273. 1632.48   6
   1   5  -1 102771. 1626.83   6
   1  -5  -1 111585. 3274.16   4
  -1   5   1 102649. 2749.16   8
  -1   5   1 103348. 3055.00   1
   1   5  -1 101759. 2182.53  13
  -1  -5   1 104501. 2496.20   7
   1  -5  -1 99193.9 2380.81  10
   1  -5  -1 115996. 3323.79   9
   1   5  -1 102693. 2751.72   8
  -1   5   1 100205. 2184.41  10
  -1  -5   1 99439.7 1916.89  10
  -1  -5   0 29.4909 159.498  10
  -1   5   0 568.457 294.734   8
   1   5   0 561.698 228.696   8
   1  -5   0 1287.06 364.432   9
  -1   5   0 442.296 240.762  13
   1  -5   0-28.3724 156.573   7
   1   5   0 134.142 78.0381   6
   1  -5   0 71.7357 72.9412   6
   1  -5   0 224.070 140.576  10
  -1   5   0 62.8121 66.9622   5
   1  -5   0 31.0224 226.966   4
  -1  -5   0 97.6770 94.3586   7
  -1  -5   0 91.2629 61.9703   5
  -1   5   0 691.261 358.839   1
  -1   5   0 6.09207 77.0054  10
   1  -5   1 8598.26 935.769   9
   1   5   1 11923.3 957.200   3
   1  -5   1 8946.29 545.834   5
   1   5   1 10038.3 720.605   8
   1  -5   1 11248.1 1130.67   4
  -1   5  -1 9621.20 930.668   8
   1   5   1 10206.4 557.815   5
  -1  -5  -1 10279.3 564.021   7
  -1  -5  -1 11022.9 793.297   8
  -1  -5  -1 10101.5 624.250   5
  -1   5  -1 9445.65 586.101   5
  -1  -5  -1 12472.7 933.649  10
   1  -5   2 11750.4 1184.26   4
  -1   5  -2 12174.2 1095.22   8
  -1  -5  -2 11101.7 870.092   5
  -1  -5  -2 12315.6 712.058   8
   1   5   2 12730.9 743.341   5
  -1   5  -2 11137.0 834.258   5
  -1  -5  -2 12970.1 1024.03   4
   1  -5   2 13041.7 792.094   5
   1   5   2 10856.0 625.789   7
  -1  -5  -2 12851.1 1101.63  10
   1   5   2 11524.7 1033.04   3
   1  -5   3 9898.24 816.708   5
  -1   5  -3 9211.33 556.953   9
  -1  -5  -3 10219.0 852.612   4
  -1   5  -3 10093.9 1076.17   8
   1  -5   3 9787.94 1117.75   4
   1   5   3 11475.7 1535.13  12
  -1  -5  -3 9587.57 1019.15  11
   1   5   3 9561.70 785.189   5
   1   5   3 8917.15 672.305   7
  -1  -5  -3 9414.38 1089.97  10
   1   5   4 8847.46 877.799   5
  -1   5  -4 8220.04 1063.52   8
   1  -5   4 8007.63 838.555   5
  -1  -5  -4 8519.14 1084.09  11
   1  -5   4 8297.64 1100.18   4
   1   5   4 7983.36 1093.76  12
  -1  -5  -4 9508.66 1192.01  10
   1   5   5 725.893 332.314   5
  -1   5  -5 624.541 357.719   8
   1  -5   5 215.221 338.788   4
  -1  -5  -5 273.904 349.672  10
  -1  -5  -5 615.027 423.826  11
   1   5   5 219.844 336.728  12
   1  -5   5 307.682 257.408   5
   1   5   6 214.084 321.371  12
   1   5   6 715.283 446.203   5
   1  -5   6 386.995 292.504   5
  -1  -5  -6 525.304 357.712  11
  -1   5  -6 664.444 476.368   8
  -1  -5  -6 979.902 511.225  10
  -1   5  -7 766.824 329.159   8
  -1   5  -7 1978.89 606.774  11
   1   5   7 1370.31 573.029   5
   1  -5   7 736.688 388.718   5
   1   5   7 983.587 484.160  12
   1   6  -8 11218.0 1234.20  14
  -1   6   8 13775.3 1612.48   5
   1   6  -7 1973.41 466.167  14
  -1   6   7 1127.43 473.620  12
   1   6  -7 1472.94 436.420  11
  -1   6   7 1988.21 555.056   5
  -1  -6   7 2392.98 614.211   5
   1  -6  -7 1550.59 669.727  10
  -1   6   6 352.968 358.155  12
  -1  -6   6 244.364 338.424   4
  -1  -6   6 86.3438 252.907   5
   1  -6  -6 92.6981 262.787  10
  -1   6   6-97.7348 292.182   5
  -1   6   5 2749.71 682.721  12
  -1  -6   5 4207.27 717.248   5
   1   6  -5 3884.93 567.197   2
  -1   6   5 4427.87 973.325   3
  -1   6   5 3307.52 641.752   5
   1  -6  -5 3292.10 796.370  10
  -1  -6   4 10696.0 1193.88   4
   1   6  -4 9390.14 1113.22   8
  -1   6   4 8499.94 1054.23   3
   1  -6  -4 8891.41 938.688   4
  -1   6   4 9468.41 798.396   8
  -1   6   4 8309.32 1100.66  12
  -1  -6   4 9321.87 849.531   5
  -1   6   4 9736.14 896.212   5
   1  -6  -4 8957.51 1122.70  10
   1   6  -4 10537.4 918.978   2
   1  -6  -3 91798.5 3133.24   4
   1   6  -3 98874.2 3416.33   8
  -1  -6   3 93027.5 3374.00   4
  -1   6   3 98075.1 2397.71   5
  -1   6   3 93028.1 2615.68   8
  -1   6   3 97500.5 3319.60   3
  -1   6   3 96091.0 3272.56   1
  -1  -6   3 93665.9 2269.61   5
   1  -6  -3 92881.2 3182.47  10
  -1   6   2 5572.62 781.396   3
  -1  -6   2 4713.03 778.646   4
   1   6  -2 4917.90 750.703   8
  -1  -6   2 4983.34 411.376   5
  -1   6   2 5231.93 659.502   8
   1  -6  -2 4878.67 743.496   4
  -1   6   2 4714.58 412.093   5
  -1   6   2 6255.74 851.067   1
  -1  -6   2 4981.70 394.258   6
  -1   6   2 4888.90 417.441   6
  -1  -6   2 5163.50 438.398  10
   1  -6  -2 4383.33 631.839  10
  -1  -6   1-47.8319 250.205   4
  -1   6   1 2.85310 34.7202   5
   1   6  -1 776.701 324.542   8
  -1  -6   1-207.351 154.338  10
  -1   6   1 129.900 270.733   8
   1  -6  -1 258.246 680.115   4
   1   6  -1-281.624 201.758  13
  -1   6   1-131.254 317.190  13
   1  -6  -1 679.341 410.754  10
  -1  -6   1-195.175 166.036   7
  -1   6   1 15.2820 42.7156   5
  -1   6   1 1027.70 428.764   1
  -1   6   0 72599.0 1395.50  10
   1  -6   0 70078.5 2951.69   4
  -1  -6   0 74342.5 2816.08   4
   1   6   0 75144.2 2374.91   8
  -1   6   0 72517.3 2600.31   8
   1  -6   0 74677.6 1732.63  10
  -1  -6   0 67488.6 1773.01   7
   1  -6   0 72204.2 1976.32   7
  -1   6   0 78464.6 2304.19  13
  -1  -6   0 73942.2 2193.40  10
   1   6   1 49134.3 1779.26   8
   1  -6   1 47192.2 2494.22   4
  -1   6  -1 47628.4 2200.64   8
  -1  -6  -1 43738.8 1268.50   5
  -1   6  -1 47848.0 1249.69   5
  -1  -6  -1 54126.0 2358.32   4
  -1  -6  -1 49189.4 1198.60   7
  -1  -6  -1 53211.4 2149.03  10
   1   6   1 50795.1 1159.43   6
   1  -6   1 50107.1 1156.25   6
   1   6   1 55551.1 2176.86   3
   1   6   2 15973.9 805.602   5
  -1  -6  -2 16227.3 1277.97   4
   1  -6   2 15751.2 1505.55   4
  -1   6  -2 13766.8 1267.43   8
  -1  -6  -2 14738.0 919.724   8
   1  -6   2 14253.9 801.853   5
  -1  -6  -2 16959.0 1361.53  10
   1   6   2 16040.1 1277.23   3
  -1  -6  -2 13038.1 929.763   5
  -1   6  -3 346.479 391.426   8
  -1  -6  -3 197.083 270.745   4
  -1  -6  -3 72.6942 650.185  10
   1  -6   3 318.879 308.504   5
   1   6   3 929.881 309.373   5
  -1  -6  -4 27023.5 2109.53  10
  -1   6  -4 26709.8 1964.69   8
   1  -6   4 24595.4 1989.35   4
   1   6   4 24175.5 1981.35  12
   1   6   4 27867.3 1517.28   5
   1  -6   4 25527.1 1486.04   5
   1   6   5 89904.6 3075.85   5
   1  -6   5 82733.1 3665.51   4
   1  -6   5 85212.8 3011.82   5
   1   6   5 87444.9 3836.86  12
  -1  -6  -5 88067.1 3875.94  11
  -1   6  -5 93004.0 3852.35   8
  -1  -6  -5 88596.2 4126.79  10
   1  -6   6 975.438 426.925   5
  -1   6  -6 1888.48 620.113   8
   1   6   6 1403.44 511.795  12
  -1  -6  -6 1394.88 665.034  11
   1   6   6 1214.99 449.908   5
  -1  -6  -6 949.463 453.536  10
  -1   6  -7 2024.77 780.360   8
   1   6   7 1788.87 582.089   5
   1  -6   7 1938.70 541.237   5
   1   7  -7 1110.68 440.668  14
  -1   7   7-392.331 447.209  12
  -1   7   6 26.2094 271.918  12
  -1   7   6 329.774 371.584   3
  -1  -7   6 381.651 385.715   4
   1  -7  -6 33.1293 294.457  10
   1   7  -5 1289.06 439.100   2
  -1   7   5 2697.64 796.123  12
   1  -7  -5 1639.37 651.270  10
  -1  -7   4 13172.3 1453.74   4
   1   7  -4 16247.0 1238.36   2
   1   7  -4 14664.3 1540.95   8
   1  -7  -4 14716.7 1344.72   4
  -1   7   4 13000.0 1331.30  12
   1  -7  -4 11863.3 1351.28  10
  -1   7   4 14188.7 1426.40   3
  -1   7   3 15575.8 1452.02   3
  -1  -7   3 14897.3 1501.34   4
   1   7  -3 15219.5 1447.92   8
   1  -7  -3 13424.2 1345.15   4
  -1   7   3 14897.0 1133.31   8
   1  -7  -3 14160.3 1320.42  10
  -1  -7   2 55254.2 2798.79   4
   1   7  -2 56293.8 2592.39   8
  -1   7   2 58568.3 2330.52   8
   1  -7  -2 53820.7 2682.57   4
  -1   7   2 59915.2 2584.80   3
   1  -7  -2 52367.6 2234.11  10
  -1  -7   2 57804.6 1609.53  10
  -1   7   1 36179.2 1909.13  13
   1   7  -1 37545.7 1600.42  13
   1   7  -1 36568.2 1979.17   8
  -1   7   1 37144.0 1926.71   8
   1  -7  -1 42083.5 2480.58   4
  -1  -7   1 43325.5 2433.91   4
  -1  -7   1 36766.1 1654.08   7
   1  -7  -1 36809.6 1652.46  10
  -1  -7   1 38877.0 1537.90  10
   1   7   0 42870.6 1992.02   8
  -1   7   0 45601.9 2219.91   8
  -1   7   0 45882.6 1971.19  13
  -1  -7   0 45786.8 2447.09   4
   1  -7   0 42720.2 2533.83   4
   1  -7   0 45027.6 1430.96  10
  -1  -7   0 40846.6 1407.31   7
  -1  -7   0 45422.7 1887.05  10
  -1  -7  -1 2618.87 568.412  10
  -1   7  -1 1856.23 495.761   8
  -1  -7  -1 2574.74 619.517   4
   1  -7   1 1456.50 455.383   4
   1   7   1 2159.76 443.087   8
  -1   7  -2 45308.8 2415.47   8
  -1  -7  -2 44341.2 2324.32   4
   1   7   2 44720.9 2259.77   3
   1  -7   2 43816.8 2636.65   4
  -1  -7  -2 46934.1 2420.90  10
  -1  -7  -3 2890.09 584.867   4
   1   7   3 2834.14 880.317   3
  -1   7  -3 2922.17 687.491   8
   1  -7   3 3787.40 952.695   4
  -1  -7  -3 2922.20 706.056  10
  -1   7  -4 42211.7 2566.73   8
   1  -7   4 39998.7 2686.17   4
   1   7   4 39222.6 2414.50   3
   1   7   4 38279.7 2627.43  12
  -1  -7  -4 41884.2 2748.02  10
  -1  -7  -5 64.0571 383.646  10
   1   7   5 40.4982 346.334   3
   1   7   5-54.3543 287.074  12
   1  -7   5 340.685 445.555   4
  -1   7  -5-499.758 291.940   8
  -1   7  -6 14744.4 1765.25   8
  -1   8   6-44.9172 353.218  12
  -1  -8   6 76.1659 291.929   4
   1  -8  -6 299.660 443.725  10
  -1   8   5 1004.28 540.463  12
  -1  -8   5 2208.48 729.863   4
   1   8  -5 743.629 408.779   2
   1  -8  -5 1518.14 649.017  10
   1   8  -4 5168.03 742.939   2
   1   8  -4 4502.09 906.769   8
   1  -8  -4 4947.59 896.199  10
   1  -8  -4 5289.62 907.240   4
  -1  -8   4 3812.58 874.535   4
  -1   8   4 6650.32 1057.10   3
  -1   8   3 44421.8 2473.65   3
  -1  -8   3 36857.2 2518.77   4
   1   8  -3 41673.7 2545.48   8
  -1   8   3 40062.6 1961.40   8
   1  -8  -3 39663.1 2508.77   4
   1  -8  -3 36736.4 2200.42  10
   1   8  -2 12.2001 227.414   8
  -1  -8   2-136.195 197.402   7
  -1  -8   2 137.336 248.916   4
  -1   8   2 86.9736 222.954   8
   1  -8  -2 369.849 338.756  10
   1  -8  -2-67.1467 303.020   4
  -1  -8   1 0.96916 164.365   7
  -1   8   1-514.888 383.951   8
   1  -8  -1-2.47672 277.493   4
  -1   8   1-721.966 379.102  13
  -1  -8   1-234.158 312.476   4
   1   8  -1 561.919 340.486   8
  -1  -8   1-117.568 225.042  10
   1   8  -1 205.406 219.319  13
   1  -8  -1-169.348 227.369  10
  -1  -8   0 29890.8 2155.34   4
   1   8   0 32002.5 1854.08   8
  -1   8   0 29281.0 1917.66   8
   1  -8   0 30588.2 2343.57   4
   1   8   0 30435.5 1728.92  13
  -1   8   0 32157.1 1728.82  13
  -1  -8   0 31106.4 1695.75  10
  -1  -8  -1 21705.9 1836.40   4
   1   8   1 20038.0 1397.76   8
  -1   8  -1 18457.4 1592.15   8
   1  -8   1 20193.0 1940.58   4
  -1  -8  -1 21282.5 1562.67  10
  -1  -8  -2 6717.75 983.411  10
   1   8   2 8011.11 1037.00   3
  -1   8  -2 6197.64 949.753   8
   1  -8   2 5324.18 983.085   4
  -1  -8  -2 6056.26 987.189   4
   1  -8   3 9539.41 1677.85   4
   1   8   3 7074.73 1209.97   3
  -1   8  -3 420.017 412.148   8
  -1  -8  -3 1313.92 505.016   4
  -1  -8  -3 2045.08 864.942  10
  -1   8  -4 12261.5 1513.82   8
   1  -8   4 10328.9 1501.48   4
   1   8   4 9548.90 1364.61  12
  -1  -8  -4 11030.6 1505.30  10
   1   8   4 10646.4 1303.06   3
   1   8   5 36321.0 2785.69  12
  -1   8  -5 41944.7 2877.87   8
   1  -8   5 36304.2 2942.49   4
  -1  -8  -5 43445.6 3153.04  10
   1   8   5 36527.7 2537.83   3
   1  -9  -5 822.620 532.199  10
   1   9  -5 426.669 347.362   2
  -1   9   5 627.087 771.193  12
  -1  -9   4 548.214 505.586   4
   1   9  -4 430.749 455.557   8
  -1   9   4 863.386 538.176   3
   1   9  -4 636.791 380.913   2
   1  -9  -4 317.780 428.810  10
  -1   9   3 4347.20 849.268   3
  -1  -9   3 3843.24 906.173   4
   1   9  -3 4170.98 890.013   8
   1  -9  -3 3692.10 747.864  10
   1  -9  -3 2885.17 773.441   4
  -1   9   2-328.609 368.000  13
  -1   9   2-167.970 221.929   8
  -1  -9   2 322.494 316.294   4
   1   9  -2 223.777 333.316   8
   1  -9  -2 141.073 280.229   4
  -1   9   1 22326.4 1672.36  13
  -1  -9   1 22290.3 2066.65   4
   1   9  -1 22354.4 1797.37   8
   1  -9  -1 23622.3 2152.43   4
  -1   9   1 21790.9 1698.59   8
   1   9  -1 21210.8 1362.95  13
   1  -9   0 795.748 539.260   4
   1   9   0 121.523 285.549  13
   1   9   0 177.080 242.856   8
  -1   9   0 388.931 306.398   8
  -1   9   0 888.273 430.943  13
  -1  -9   0 821.224 548.213   4
  -1   9  -1 674.452 424.024   8
  -1  -9  -1 463.556 297.857   4
   1  -9   1 959.990 601.117   4
   1   9   1 216.882 258.295   8
  -1  -9  -1 534.446 271.057  10
  -1  -9  -2 1008.59 546.730   4
   1  -9   2 370.220 469.243   4
  -1   9  -2 464.398 334.277   8
  -1  -9  -2 238.042 236.448  10
   1   9   3 656.638 575.699   3
  -1   9  -3 488.404 452.357   8
   1  -9   3 177.602 422.363   4
  -1  -9  -3 808.262 542.859  10
   1  -9   4 2569.17 837.707   4
   1   9   4 2943.87 771.329   3
  -1  -9  -4 2169.99 718.787  10
   1   9   4 3359.71 915.445  12
   1  10  -4 3017.08 742.021   2
   1 -10  -3 300.602 381.435   4
   1  10  -3-69.6606 287.508   8
   1  10  -3-388.450 331.294   2
  -1 -10   2-415.407 420.166   4
   1  10  -2 496.612 494.234   8
  -1  10   2-149.302 349.912  13
   1 -10  -2-98.3547 340.650   4
  -1 -10   1 33922.2 2693.32   4
   1  10  -1 30791.9 2253.05   8
  -1  10   1 29205.8 2080.43   8
   1 -10  -1 32250.6 2696.67   4
   1  10  -1 29225.7 1687.17  13
  -1  10   1 28917.2 2003.74  13
   1  10   0 13237.6 1296.90  13
  -1 -10   0 12273.7 1646.82   4
   1  10   0 11981.9 1354.48   8
  -1  10   0 11220.6 1327.52   8
   1 -10   0 11380.1 1697.20   4
  -1  10   0 12017.7 1151.01  13
   1  10   1 2691.29 549.107  13
  -1 -10  -1 2006.24 590.049   4
   1 -10   1 2553.52 875.632   4
  -1  10  -1 2660.51 699.924   8
   1 -10   2 2986.42 956.797   4
  -1  10  -2 2970.80 805.241   8
  -1 -10  -2 2199.15 716.142   4
  -1 -10  -2 1857.96 646.267  10
  -1 -10  -3 7563.54 1235.43  10
   1 -11  -3 1671.11 578.359   4
   1 -11  -2 2199.29 766.942   4
   1  11  -2 3636.82 880.446   8
   1  11  -1 11743.9 1496.38   8
  -1  11   1 11467.4 1395.55   8
  -1  11   0 2222.79 645.773   8
   1  11   0 3009.62 664.339  13
  -1 -11  -1-550.553 542.802   4
   1  11   1-3.90691 394.368  13
  -1 -11  -2 2153.93 725.035   4
   2   0  -9 981.858 440.249  14
   2   0  -9 350.740 376.395  11
   2   0  -8 10442.7 1387.45  11
   2   0  -8 9989.86 1324.26  14
  -2   0   8 8610.26 1008.39  12
  -2   0   8 7507.50 1215.90   5
   2   0  -7 7036.23 992.010  14
  -2   0   7 8844.97 916.324  12
   2   0  -7 7709.94 1056.08  11
  -2   0   7 8602.22 1244.28   5
   2   0  -6 3505.68 574.484   9
   2   0  -6 4745.47 819.400  14
   2   0  -6 5367.97 798.199  11
   2   0  -5 52500.3 1845.91   9
  -2   0   5 51492.2 2499.76   5
   2   0  -5 51384.8 2134.16  14
  -2   0   5 50563.1 1672.73  12
   2   0  -5 56841.6 2194.19  11
   2   0  -4-45.5152 175.153   9
   2   0  -4 43.1544 290.487   6
  -2   0   4 201.199 145.882  12
   2   0  -4-275.142 234.542  14
   2   0  -4-25.2298 164.036  11
   2   0  -4-16.8235 137.911  12
   2   0  -3 87063.1 2189.94  14
   2   0  -3 92150.6 2078.44   9
  -2   0   3 91475.4 1698.93   9
  -2   0   3 90330.1 1760.79  11
   2   0  -3 85966.9 2559.00   6
  -2   0   3 86730.5 1432.90  12
   2   0  -3 91943.3 1499.84  12
   2   0  -3 88404.3 1973.94  11
  -2   0   3 88120.9 2545.88   7
  -2   0   2 18028.6 1024.08   6
  -2   0   2 20818.0 1160.51   7
   2   0  -2 15960.5 1152.89   6
   2   0  -2 19651.1 849.136   9
  -2   0   2 19013.5 744.422   9
  -2   0   2 16568.8 729.327  11
   2   0  -2 18656.4 892.274  14
   2   0  -2 18900.3 1145.45   7
  -2   0   2 18166.3 744.518  14
   2   0  -1 9556.45 694.972   6
   2   0  -1 10817.5 591.208   9
   2   0  -1 10935.1 573.661  14
  -2   0   1 12091.3 518.851  14
  -2   0   1 9390.51 758.807   7
   2   0  -1 10754.9 789.034   7
   2   0  -1 10951.2 443.068  13
   2   0  -1 10474.7 382.149  12
  -2   0   1 11770.2 711.804   6
  -2   0   0 370495. 3674.63  12
   2   0   0 372294. 3324.71  12
  -2   0   0 375405. 2129.04  14
   2   0   0 369586. 2701.89  14
  -2   0   0 369795. 4569.35   7
  -2   0   0 360851. 4001.74   5
   2   0   0 378198. 4101.21   6
   2   0   0 377892. 4656.95   7
   2   0   1 286061. 3810.52   5
  -2   0  -1 289657. 3718.26   8
  -2   0  -1 287891. 4415.56   7
   2   0   1 284937. 3668.46  12
  -2   0  -1 290167. 3913.99  12
  -2   0  -2 538171. 5250.73   4
  -2   0  -2 534372. 5091.57   8
   2   0   2 534815. 5879.78  12
  -2   0  -2 539278. 5227.57  10
  -2   0  -2 550633. 3631.12   2
  -2   0  -2 543684. 6780.73   7
   2   0   2 528740. 5843.81   5
   2   0   3 7371.61 812.014  12
  -2   0  -3 7548.42 632.194   8
  -2   0  -3 7172.56 606.351   4
   2   0   3 7789.21 786.979   5
  -2   0  -3 5289.79 299.714   2
  -2   0  -3 7891.54 691.357  11
  -2   0  -3 7875.67 784.940  10
   2   0   4 1347.68 340.115  12
  -2   0  -4 1962.85 445.971  11
   2   0   4 1566.90 401.308   5
  -2   0  -4 1704.09 434.152  10
  -2   0  -4 1947.43 353.173   8
  -2   0  -5 15530.9 1288.27  11
   2   0   5 16142.2 1419.25  12
   2   0   5 17267.9 1428.41   5
  -2   0  -5 17405.9 1454.78  10
   2   0   6 18012.0 1607.98   5
  -2   0  -6 17937.3 1594.80  11
   2   0   6 17429.8 1594.78  12
  -2   0  -6 18711.4 1655.26  10
  -2   0  -7 9454.94 1299.01  11
   2   0   7 7895.99 1188.63  12
  -2   0  -7 10339.1 1341.75  10
   2   0   7 11147.9 1393.71   5
   2  -1  -9 7625.12 1345.67  11
   2   1  -9 6967.00 1200.17  14
   2   1  -9 7478.73 1250.07  11
   2  -1  -9 6830.56 1220.17  14
  -2  -1   8 992.939 557.929   5
   2  -1  -8 1130.68 485.936  14
  -2   1   8 1599.20 635.133   5
   2   1  -8 804.143 375.563  14
   2   1  -8 984.946 477.457  11
   2  -1  -8 707.127 341.916  11
  -2  -1   8 932.563 423.422  12
  -2   1   8 464.962 292.583  12
   2   1  -7 6153.09 911.860  11
  -2  -1   7 5326.88 761.410  12
   2   1  -7 5266.53 855.052  14
  -2   1   7 5476.93 740.971  12
   2  -1  -7 7090.27 1057.65  11
   2  -1  -7 6107.67 957.989  14
  -2   1   7 4755.05 938.966   5
  -2  -1   7 3957.05 853.623   5
   2  -1  -6 22020.9 1465.38   9
   2   1  -6 22483.1 1128.54   9
   2  -1  -6 21379.1 1600.75  14
  -2  -1   6 22681.8 1844.69   5
   2   1  -6 21371.8 1474.85  14
  -2   1   6 22828.4 1864.04   5
   2   1  -6 22703.1 1547.80  11
  -2  -1   6 22785.8 1358.80  12
  -2   1   6 22291.1 1291.71  12
   2  -1  -6 23376.2 1717.76  11
   2  -1  -5 27833.7 1469.83   9
  -2   1   5 29286.6 1895.78   5
  -2  -1   5 26453.1 1795.31   5
   2   1  -5 27557.4 1480.36  14
  -2  -1   5 26691.9 1301.37  12
  -2   1   5 31704.8 1304.46  12
   2  -1  -5 27916.6 1662.00  14
   2   1  -5 28119.8 1200.65   9
   2  -1  -5 25303.4 1588.72  11
   2   1  -5 27458.4 1471.77  11
  -2   1   4 11745.5 1024.42   7
   2  -1  -4 18083.2 1149.92   9
   2   1  -4 12790.0 766.260   9
   2  -1  -4 18362.2 1401.72   6
   2   1  -4 13373.1 1164.01   6
   2  -1  -4 12360.7 995.825  11
   2   1  -4 12607.8 874.586  14
   2  -1  -4 16320.5 1194.00  14
   2  -1  -4 12929.7 807.372  12
  -2  -1   4 10354.7 755.533  12
  -2   1   4 12173.0 660.846  12
   2   1  -4 13287.3 805.294  12
   2   1  -4 12674.1 827.137  11
   2  -1  -3 4367.17 526.195   9
   2   1  -3 4725.21 610.407   6
   2  -1  -3 4454.28 602.854   6
  -2  -1   3 5325.53 325.814  11
   2  -1  -3 4425.48 550.821  14
  -2   1   3 4342.24 584.566   7
   2   1  -3 4436.13 410.629   9
   2   1  -3 5024.80 399.125  12
   2   1  -3 4548.40 470.181  14
  -2   1   3 4884.45 304.038  12
  -2  -1   3 4359.32 631.190   7
   2   1  -3 4914.96 415.636  11
  -2  -1   2 227.291 117.864   2
   2  -1  -2 179.619 180.873  14
   2  -1  -2 96.3651 160.254   9
  -2   1   2-41.4404 109.654   9
   2   1  -2 231.232 130.910   9
   2   1  -2 197.351 185.849   6
   2  -1  -2 335.928 218.593   6
   2  -1  -2 82.9911 119.080   7
  -2  -1   2 179.732 48.8768  11
  -2   1   2 103.557 198.790   7
  -2  -1   2 612.788 297.392   7
  -2   1   1 35978.2 1437.62   7
  -2  -1   1 41430.2 1327.62   6
  -2   1   1 39576.6 1167.57  14
  -2   1   1 40676.1 1149.88   9
  -2   1   1 38604.4 690.375  12
   2   1  -1 41138.1 955.649  14
   2  -1  -1 39503.7 1263.04  14
   2  -1  -1 38511.4 1103.62  13
  -2  -1   1 42034.2 1196.56   2
   2   1  -1 40167.2 1374.74   6
  -2   1   1 41636.7 926.291  13
  -2  -1   1 38529.4 1486.53   7
   2  -1  -1 38024.7 1426.09   7
   2  -1  -1 39153.2 1269.73   9
   2   1  -1 39808.3 1537.64   7
  -2   1   1 38403.7 1287.88   6
   2  -1  -1 39381.3 1376.43   6
  -2   1   0 129872. 2311.60   5
   2   1   0 132550. 2769.03   7
  -2   1   0 132911. 2000.88  12
   2  -1   0 132514. 2147.30   9
  -2   1   0 127780. 2730.72   8
   2   1   0 137640. 1398.44  14
  -2  -1   0 131840. 2347.49   5
  -2   1   0 134267. 1916.36  14
   2   1   0 129639. 2429.29   6
  -2   1   0 128388. 2745.67   7
   2  -1   0 132336. 2789.67   7
  -2  -1   0 140601. 2088.47   2
  -2  -1   0 130066. 2708.18   7
   2   1   0 133567. 2371.76  12
   2  -1   0 132341. 2451.10   6
   2  -1   0 130122. 1889.12  12
   2  -1   1 7099.77 481.817   9
  -2   1  -1 7115.24 380.160  14
  -2   1  -1 7757.08 689.900   8
  -2  -1  -1 7961.56 735.112   7
   2  -1   1 6587.72 605.791   5
   2   1   1 7512.98 674.418  12
  -2   1  -1 6728.52 732.000   7
   2  -1   1 6921.88 568.890  12
  -2   1  -1 7517.79 663.117  12
  -2   1  -1 8062.04 701.061   4
  -2  -1  -1 8033.48 481.921   2
   2   1   1 6036.82 578.064   5
  -2  -1  -1 8147.32 488.550  11
   2  -1   2 177475. 2317.56   9
  -2  -1  -2 172239. 3191.04  10
  -2   1  -2 168000. 3174.44   8
   2  -1   2 164556. 3277.82   5
  -2   1  -2 161269. 3097.86   4
  -2  -1  -2 165147. 3703.24   7
   2  -1   2 177257. 3337.63  12
   2   1   2 167984. 3285.72   5
  -2  -1  -2 164601. 2699.68  11
   2   1   2 177875. 3593.34  12
  -2  -1  -2 170027. 2515.81   8
  -2  -1  -2 157385. 2062.49   2
  -2   1  -2 167773. 2682.93  10
   2  -1   3 11990.2 958.220  12
   2  -1   3 13503.9 650.479   9
  -2   1  -3 11009.6 410.982  14
   2  -1   3 12509.7 1037.87   5
  -2   1  -3 12313.0 886.440   4
  -2  -1  -3 12662.5 667.620   8
  -2   1  -3 12121.4 880.481   8
  -2  -1  -3 11969.7 716.239   4
   2   1   3 13186.6 1122.53  12
   2   1   3 12563.7 1026.03   5
  -2  -1  -3 12151.1 898.001  11
  -2   1  -3 11650.1 869.200  10
  -2  -1  -3 12070.3 1020.10  10
   2  -1   4 41586.1 2044.55  12
   2  -1   4 43019.5 1177.80   9
  -2  -1  -4 43098.7 1243.07   8
  -2   1  -4 44051.2 1785.47   8
  -2   1  -4 42129.0 1904.84  10
   2   1   4 40060.4 2022.02   5
   2   1   4 42857.7 2150.10  12
   2  -1   4 40548.4 2032.26   5
  -2   1  -4 39740.8 1673.29  11
  -2   1  -4 41479.0 1052.77  14
  -2  -1  -4 43790.6 1961.43  11
  -2  -1  -4 42915.4 2133.05  10
  -2   1  -5 5505.86 709.840   8
   2   1   5 3481.38 804.350   5
   2   1   5 3849.22 779.832  12
   2  -1   5 2753.13 662.986  12
  -2  -1  -5 3146.83 653.331  11
   2  -1   5 2937.70 754.533   5
  -2   1  -5 4583.62 680.191  11
  -2   1  -5 5497.85 859.523  10
  -2  -1  -5 4934.17 900.948  10
   2   1   6 4493.15 858.429   5
   2   1   6 4414.37 827.245  12
  -2   1  -6 4031.84 704.798  11
   2  -1   6 4986.71 884.781  12
   2  -1   6 4973.86 885.077   5
  -2  -1  -6 4076.12 791.435  11
  -2   1  -6 5378.72 869.792  10
  -2  -1  -6 5007.31 919.477  10
   2  -1   7 15012.7 1652.99  12
   2   1   7 16477.4 1743.80   5
   2  -1   7 18708.3 1813.55   5
  -2   1  -7 14109.8 1521.44  11
  -2  -1  -7 18657.3 1899.82  10
  -2  -1  -7 19214.0 1939.44  11
   2   1   7 17537.4 1769.77  12
   2   2  -9 858.910 479.527  14
   2  -2  -9 1001.98 479.147  14
   2   2  -9 1409.79 604.853  11
   2   2  -8 66.5924 195.232  11
   2  -2  -8 76.7239 232.254  14
   2   2  -8 957.952 450.706  14
  -2  -2   8-220.147 266.458  12
   2  -2  -8-57.1073 257.142  11
  -2   2   8 211.080 297.449   5
  -2  -2   8-211.026 406.047   5
   2   2  -7 15084.6 1373.17  14
   2  -2  -7 16079.4 1589.12  14
  -2  -2   7 14464.0 1587.16   5
  -2  -2   7 14751.0 1355.09  12
   2  -2  -7 16968.7 1660.76  11
   2   2  -7 17378.5 1485.72  11
  -2   2   7 14809.1 1596.27   5
  -2   2   7 15074.8 1207.06  12
   2  -2  -6 14670.4 1387.92   9
   2   2  -6 15504.4 1249.82  11
  -2   2   6 19814.4 1273.21  12
  -2   2   6 20832.8 1996.13   5
  -2  -2   6 24546.8 2118.30   5
   2   2  -6 14770.2 1190.51  14
  -2  -2   6 24528.2 1597.40  12
   2  -2  -6 16184.0 1477.83  11
   2  -2  -6 15025.3 1399.93  14
   2  -2  -5 10536.6 1001.08   9
   2   2  -5 11456.2 686.333   9
  -2   2   5 10131.2 1130.44   5
  -2  -2   5 9357.30 1061.31   5
   2   2  -5 9636.09 853.530  14
   2  -2  -5 11272.5 1147.16  14
  -2   2   5 10197.6 810.554  12
   2   2  -5 10326.3 847.037  11
   2  -2  -5 9211.97 989.977  11
  -2   2   5 9813.07 982.065   7
   2  -2  -4 65721.0 2499.83  14
   2  -2  -4 67055.5 2324.96   9
   2   2  -4 65272.4 1528.09   9
   2  -2  -4 62083.5 2548.59   6
   2   2  -4 64274.5 2632.94   6
   2   2  -4 62716.0 1869.10  14
  -2   2   4 58108.6 2116.94   7
  -2   2   4 65620.9 1689.39  12
   2   2  -4 65280.3 1713.96  11
   2   2  -3 33766.3 1641.88   6
   2  -2  -3 32845.2 1602.55   6
   2   2  -3 33900.3 1005.03   9
   2  -2  -3 35249.2 1658.67  14
   2   2  -3 35999.2 1226.93  14
   2  -2  -3 33727.3 1560.65   9
  -2   2   3 33487.6 1460.93   7
   2   2  -3 34682.2 941.018  11
   2   2  -3 34571.6 1310.96   2
  -2   2   3 34707.0 1031.79  12
   2   2  -3 35090.9 1233.47  12
  -2  -2   3 33411.3 1731.37   7
   2  -2  -2 200477. 3238.17   7
   2   2  -2 194065. 3562.45   6
   2  -2  -2 188144. 3544.14   6
   2  -2  -2 186464. 3560.59   9
   2   2  -2 187982. 2879.72   2
  -2  -2   2 198524. 3887.96   7
  -2   2   2 208604. 3358.22   7
  -2   2   2 193525. 3028.18   3
   2  -2  -2 180505. 3613.03  14
   2   2  -1 2744.77 364.831   2
  -2   2   1 2388.84 304.231  13
   2  -2  -1 2063.85 349.246   9
   2  -2  -1 1882.14 270.479   3
   2   2  -1 2422.56 366.422   6
   2  -2  -1 1818.17 309.987   6
  -2   2   1 2079.33 354.101   7
  -2   2   1 2326.30 377.863  14
  -2   2   1 2176.01 410.587   8
   2  -2  -1 2526.22 376.881   7
  -2  -2   1 2643.31 431.759   7
   2   2  -1 2329.29 402.896   7
  -2  -2   1 2680.60 336.404   6
  -2   2   1 2518.44 350.776   6
  -2   2   1 2460.87 248.769  12
  -2  -2   1 2340.65 214.763   3
   2   2   0 7471.56 606.729   6
   2  -2   0 7396.54 607.213   9
  -2   2   0 7475.11 599.935  14
  -2   2   0 7590.18 541.398   9
   2   2   0 7567.40 674.456   7
   2  -2   0 7399.74 609.633   6
  -2   2   0 7525.55 726.285   8
  -2  -2   0 8529.06 591.863   5
   2   2   0 8746.47 580.901   2
   2  -2   0 8382.11 556.107  12
  -2   2   0 7626.00 674.727   7
  -2   2   0 8427.21 535.702  12
   2  -2   0 7292.33 687.711   7
  -2  -2   0 7053.43 631.484   7
  -2   2   0 5660.62 573.593   5
  -2  -2   0 8363.92 437.298  11
   2   2   0 7740.49 457.683   3
  -2  -2  -1 88608.7 2067.42  10
   2   2   1 82560.1 2114.51   5
   2  -2   1 86865.2 1907.75   9
  -2   2  -1 86824.9 2442.07   8
   2   2   1 90208.3 1798.46   2
  -2   2  -1 89236.4 2595.43   7
   2  -2   1 88023.8 2065.71  12
   2   2   1 91266.5 2522.90  12
  -2  -2  -1 88020.1 2380.60   7
   2  -2   1 84358.4 2159.44   5
  -2  -2  -1 89626.8 1839.74  11
   2  -2   2 105818. 2629.30   5
  -2  -2  -2 106812. 2873.30   7
   2   2   2 126396. 3240.15  12
  -2   2  -2 103032. 2743.89   8
  -2  -2  -2 107881. 1745.25   8
   2   2   2 106947. 1878.89   2
   2   2   2 110241. 1685.60  14
   2  -2   2 121056. 2780.80  12
   2  -2   2 108239. 2071.71   9
   2   2   2 104142. 2564.22   5
  -2  -2  -2 104201. 2409.41  11
  -2   2  -2 106138. 1959.76  10
  -2  -2  -2 101956. 2676.28  10
  -2   2  -3 246.606 170.657   1
   2  -2   3 1.64910 132.896   9
  -2   2  -3 51.3016 197.133   8
   2  -2   3 90.9854 212.887  12
  -2  -2  -3 88.5618 67.8377   8
   2   2   3-67.7173 65.2786  14
   2   2   3 1.94716 273.997  12
  -2  -2  -3 145.113 193.065  11
   2   2   3 400.425 219.906   5
   2  -2   3 480.186 309.622   5
  -2   2  -3 238.807 199.786  10
  -2  -2  -3 585.504 315.735  10
   2  -2   4 19038.5 824.232   9
   2  -2   4 18563.2 1371.59   5
  -2   2  -4 18293.1 708.630  14
  -2   2  -4 19252.3 1306.94   8
   2  -2   4 18890.8 1387.15  12
   2   2   4 19214.7 1490.98  12
   2   2   4 19186.7 1400.82   5
  -2  -2  -4 20558.8 1445.32  11
  -2  -2  -4 19403.9 1517.79  10
  -2   2  -4 18833.7 1198.48  10
   2   2   5 13255.3 1263.05   5
  -2   2  -5 12810.6 1119.52   8
   2  -2   5 10837.9 1164.58  12
   2   2   5 11627.9 1245.46  12
   2  -2   5 11461.3 1213.15   5
  -2  -2  -5 11982.6 1241.22  11
  -2   2  -5 11028.6 1027.83  11
  -2   2  -5 12064.2 1072.40  10
  -2  -2  -5 11558.5 1316.72  10
  -2  -2  -6-539.351 263.072  10
   2   2   6 686.038 459.345  12
   2  -2   6-3.99586 222.778  12
  -2  -2  -6 484.820 411.602  11
  -2   2  -6 170.147 224.931  11
   2   2   6-4.00077 286.823   5
   2  -2   6 15.1236 244.304   5
   2   2   7 8208.42 1251.66  12
   2   2   7 8901.12 1275.83   5
   2  -2   7 8470.31 1213.79   5
   2  -2   7 6946.81 1120.63  12
  -2   2  -7 7064.50 1061.01  11
  -2  -2  -7 10678.3 1488.22  10
  -2  -2  -7 9315.32 1383.92  11
   2   3  -9 30453.8 2360.93  14
  -2   3   8 382.788 508.800   5
   2   3  -8-172.604 302.655  14
   2   3  -8 232.843 349.476  11
   2  -3  -8-208.162 359.894  11
  -2  -3   8 4.67811 324.374   5
   2  -3  -7 9891.59 1294.47  14
   2   3  -7 8902.54 1017.68  14
  -2   3   7 10405.3 1330.11   5
  -2  -3   7 9534.42 1235.01   5
   2  -3  -7 10113.1 1306.43  11
  -2   3   7 9570.86 987.972  12
   2   3  -7 10805.7 1116.98  11
   2  -3  -7 9205.42 1334.52  10
  -2   3   7 8162.39 1027.93   7
   2  -3  -6 2353.44 666.597  11
  -2  -3   6 3049.57 692.375   5
   2  -3  -6 3621.59 718.013  14
   2   3  -6 2019.75 436.777  14
  -2   3   6 1698.44 444.014   1
  -2   3   6 2870.63 689.633   5
   2   3  -6 2933.75 493.311  11
  -2   3   6 2105.97 496.195   7
  -2   3   6 2582.13 489.104  12
   2  -3  -6 2852.87 766.710  10
   2  -3  -5 14010.1 1396.33   9
   2   3  -5 16079.2 746.814   9
  -2   3   5 15618.8 1387.74   5
  -2  -3   5 14423.7 1364.76   5
   2   3  -5 11473.8 911.611  14
  -2   3   5 12592.5 1050.74   7
   2   3  -5 14548.3 931.955  11
   2  -3  -5 14721.8 1485.75  10
   2  -3  -5 15806.7 1437.68  14
  -2   3   5 14918.3 1009.37  12
   2   3  -4 3380.42 440.311   2
  -2   3   4 3379.65 470.148  12
   2   3  -4 3412.48 336.191   9
   2  -3  -4 2819.90 576.626   9
   2  -3  -4 3385.00 670.652  14
   2  -3  -4 2944.85 606.904   6
   2   3  -4 4083.91 748.393   6
   2   3  -4 3557.56 379.503  11
  -2   3   4 3295.88 523.931   7
   2  -3  -4 3482.27 708.236  10
   2  -3  -3 170331. 3852.02   9
   2   3  -3 185577. 3180.78   2
   2   3  -3 176376. 3784.29   6
  -2   3   3 165214. 3027.47   7
  -2   3   3 167216. 2843.61  12
   2  -3  -3 168290. 3630.39   6
  -2  -3   3 155126. 3889.13   7
   2   3  -3 179803. 1913.50  11
   2  -3  -2 16801.9 1192.63   9
   2   3  -2 18524.4 1095.07   6
   2  -3  -2 17595.1 1054.33   6
  -2   3   2 20055.8 1215.34   8
  -2   3   2 18699.1 955.323   7
   2   3  -2 18226.2 958.261   2
   2  -3  -2 16238.9 911.236   7
  -2  -3   2 17738.5 1228.93   7
  -2   3   2 18246.1 1006.94   3
   2  -3  -1 198098. 3679.80   9
  -2   3   1 198419. 3837.10   8
   2  -3  -1 195619. 3085.20   6
  -2   3   1 196974. 3071.27  13
  -2   3   1 182115. 2797.61  12
  -2   3   1 196145. 3171.24   7
   2  -3  -1 194504. 3194.04   7
   2   3  -1 209573. 3186.65   6
  -2  -3   1 192428. 3518.78   7
   2   3  -1 215615. 3188.02   2
   2   3  -1 198467. 1576.73  11
  -2   3   1 187392. 2948.12  10
  -2  -3   1 199954. 2854.01   6
  -2   3   1 199352. 2889.08   6
  -2  -3   1 203262. 2606.78   3
   2   3   0 39871.0 1209.09   3
  -2   3   0 37599.3 1545.69   7
   2  -3   0 38028.5 1528.18   9
  -2  -3   0 38467.2 1505.07   7
   2  -3   0 37692.7 1762.21   4
  -2   3   0 38734.6 1269.72   5
  -2   3   0 37053.4 1716.19   8
  -2   3   0 38885.9 1288.89  12
   2   3   0 42915.6 1385.32   2
  -2  -3   0 37465.0 1279.88   5
   2   3   0 37378.0 1534.66   7
  -2  -3   0 38145.7 1125.24  11
   2   3   0 39229.0 936.794  11
   2   3   0 40779.4 1361.29   6
   2  -3   0 38200.9 1347.29   6
   2  -3   1 104919. 2409.14   9
  -2  -3  -1 109330. 2614.09   7
  -2   3  -1 107347. 2959.10   8
   2   3   1 110021. 3081.23  12
   2  -3   1 110977. 2623.36  12
   2  -3   1 105691. 3030.98   4
   2   3   1 114316. 2214.69   2
   2  -3   1 108260. 2418.57   5
   2   3   1 104091. 2346.74   5
   2   3   1 109129. 1880.16  11
  -2  -3  -1 108636. 2353.11  11
  -2  -3  -1 110032. 2525.17  10
   2  -3   2 45528.9 1500.95   9
   2  -3   2 48528.5 1781.60   5
   2   3   2 47685.8 1388.12   2
  -2  -3  -2 42296.9 978.603   8
   2  -3   2 47051.8 2081.16   4
  -2   3  -2 45779.5 2000.20   8
  -2  -3  -2 46201.6 1871.46   7
  -2   3  -2 47245.4 1798.38   1
   2  -3   2 55956.1 2051.91  12
   2   3   2 58319.3 2401.65  12
   2   3   2 46551.6 1704.00   5
  -2  -3  -2 47074.2 1786.75  11
  -2   3  -2 46450.3 1161.42  10
  -2  -3  -2 46408.0 1917.22  10
   2  -3   3 14386.8 808.777   9
   2  -3   3 14686.4 1186.44  12
   2   3   3 13995.9 775.345  14
  -2   3  -3 14080.4 1163.70   8
   2  -3   3 13125.2 1158.37   4
  -2  -3  -3 14683.7 1247.51  10
  -2   3  -3 14584.2 818.164  10
   2   3   3 14088.2 745.267   2
   2   3   3 15313.2 1110.35   5
   2  -3   3 14273.7 1090.85   5
  -2  -3  -3 13928.9 1114.71  11
  -2   3  -3 14188.2 921.297   1
   2   3   3 14370.4 1288.03  12
  -2   3  -4 25556.3 1617.75   8
   2   3   4 24345.4 893.023   2
   2  -3   4 26182.1 1688.45  12
   2   3   4 23477.1 1736.75  12
   2   3   4 24768.8 1573.22   5
   2  -3   4 23167.0 1540.55   5
  -2  -3  -4 25299.9 1703.83  11
  -2   3  -4 25034.5 1254.25  10
  -2  -3  -4 26060.6 1857.07  10
  -2   3  -5 21715.3 1597.32   8
  -2  -3  -5 22360.2 1814.63  11
   2  -3   5 19528.9 1608.93  12
   2   3   5 17172.9 1575.60  12
   2  -3   5 19031.5 1549.72   5
   2   3   5 19081.4 1544.26   5
  -2  -3  -5 22605.6 1917.58  10
  -2   3  -6 4056.97 713.984  11
  -2  -3  -6 2727.44 712.499  10
  -2   3  -6 3417.86 708.991   8
   2  -3   6 2179.41 625.793  12
   2   3   6 3359.29 825.449  12
  -2  -3  -6 2784.04 746.706  11
   2   3   6 2482.06 636.795   5
   2  -3   6 2827.75 643.619   5
   2   3   7 168.053 285.719   5
   2  -3   7 95.4680 273.701   5
  -2  -3  -7 97.6542 335.473  10
   2   4  -8 4896.42 848.990  14
   2  -4  -8 6588.56 1272.17  10
  -2  -4   8 5803.94 1055.79   5
  -2   4   8 5835.36 1085.87   5
  -2   4   7 11965.9 1423.74   5
  -2  -4   7 9373.02 1227.24   5
   2   4  -7 8057.25 965.876  14
  -2   4   7 10450.6 1092.99  12
   2   4  -7 11290.5 1118.63  11
   2  -4  -7 13451.0 1656.66  10
  -2   4   6 38323.5 2076.44   1
  -2   4   6 39638.0 2433.65   5
  -2   4   6 36783.6 1856.69  12
  -2  -4   6 36556.4 2276.42   5
  -2   4   6 31084.5 1708.17   7
   2   4  -6 37267.4 1706.54  11
   2  -4  -6 37560.5 2468.27  10
  -2   4   5 5915.57 857.201   5
   2  -4  -5 5125.50 1080.46   9
   2   4  -5 6653.76 459.754   9
   2   4  -5 5888.92 571.398  11
   2   4  -5 5320.66 629.365   2
  -2   4   5 5438.70 690.116   8
   2   4  -5 4684.07 588.636  14
  -2   4   5 5847.79 809.870   1
  -2   4   5 5535.52 670.204  12
  -2   4   5 4971.52 638.731   7
  -2  -4   5 5546.73 803.941   5
   2  -4  -5 5533.76 897.514  10
   2  -4  -4 85479.0 3338.04   9
   2   4  -4 100355. 1839.28  11
   2  -4  -4 93520.6 3038.68   6
   2   4  -4 98333.0 3191.78   6
  -2   4   4 87684.4 2668.00   8
  -2  -4   4 97444.8 1756.26  13
   2   4  -4 100168. 2608.66   2
  -2   4   4 92094.7 2626.39  12
  -2   4   4 94408.4 2375.41   7
   2  -4  -4 100738. 3490.60  10
   2  -4  -3 42255.5 2085.39   9
   2   4  -3 45028.7 1931.37   6
   2  -4  -3 41453.6 1813.35   6
  -2   4   3 39158.1 1790.64   8
  -2   4   3 41209.3 1398.71   7
   2   4  -3 46422.3 1694.97   2
  -2  -4   3 37637.4 2003.01   7
   2  -4  -3 44180.1 2053.01  10
  -2   4   3 38741.8 1870.45   3
   2   4  -2 243271. 3761.43   2
   2  -4  -2 259672. 4893.64   9
  -2   4   2 265268. 4241.25   3
   2   4  -2 258436. 4115.79   6
   2  -4  -2 257668. 3995.96   6
  -2   4   2 273293. 4713.56   8
  -2  -4   2 260015. 4732.97   7
  -2   4   2 265685. 3408.39   7
   2  -4  -2 246344. 3344.51   7
   2   4  -1 17569.0 952.452   6
   2  -4  -1 15874.3 905.398   6
  -2   4   1 16995.5 842.165   6
   2  -4  -1 15806.3 1163.06   9
  -2   4   1 16171.4 1164.72   8
   2  -4  -1 15703.9 1249.97   4
  -2   4   1 16553.0 926.813   7
  -2   4   1 17065.6 1004.45  13
   2  -4  -1 15724.6 935.408   7
  -2  -4   1 15241.7 1031.07   7
   2   4  -1 16686.2 960.988   2
   2   4  -1 17560.5 709.379  11
  -2   4   1 15214.8 896.341  10
  -2  -4   1 16431.3 902.067   3
   2  -4   0 64777.7 2231.62   9
   2   4   0 76092.9 1920.37   3
  -2   4   0 69481.6 2486.36   8
  -2  -4   0 68973.8 2057.11   7
   2  -4   0 66496.7 2538.04   4
   2   4   0 70274.9 1549.02  11
  -2  -4   0 70698.1 1747.19   5
  -2   4   0 68177.8 1717.12   5
   2   4   0 72209.6 1984.46   2
  -2   4   0 69445.4 2449.20   1
  -2   4   0 68357.8 1545.64  10
  -2  -4   0 67559.6 1887.12  10
   2   4   0 70713.4 1838.78   6
   2  -4   0 68943.5 1836.00   6
   2  -4   1 40806.3 1679.50   9
  -2  -4  -1 42394.5 1337.38   8
  -2   4  -1 41336.4 1965.37   8
   2  -4   1 40451.0 2083.62   4
  -2   4  -1 43533.1 1928.06   1
   2   4   1 43589.2 1653.86   3
  -2  -4  -1 40509.3 1596.61   7
   2   4   1 43020.4 1494.43   5
   2  -4   1 38744.2 1494.62   5
  -2  -4  -1 44566.4 1639.12  11
   2   4   1 43231.3 1511.24   2
  -2  -4  -1 40833.3 1697.77  10
   2  -4   2 17477.2 1048.31   9
  -2  -4  -2 16938.1 1173.54  11
  -2  -4  -2 15891.4 1219.03  10
  -2   4  -2 17684.5 1185.86   1
  -2  -4  -2 16285.5 658.541   8
  -2   4  -2 17252.0 1335.67   8
   2  -4   2 17644.0 1443.81   4
  -2  -4  -2 18060.0 1151.34   7
   2   4   2 17505.7 1054.00   5
   2   4   2 17907.1 944.993   2
  -2   4  -2 14255.5 545.108  10
   2  -4   2 17449.4 1081.69   5
   2   4   3 343.640 221.907   5
   2  -4   3 575.061 242.874   9
   2  -4   3 697.430 375.941  12
   2   4   3 159.485 132.956   2
  -2   4  -3-80.2060 318.664   8
  -2   4  -3 29.4055 229.766   1
   2   4   3-219.432 332.151  12
   2  -4   3 478.453 398.714   4
  -2  -4  -3 223.343 281.382  11
  -2   4  -3 195.329 99.5984  10
   2  -4   3 425.819 244.556   5
  -2  -4  -3-181.511 270.452  10
   2   4   4 31610.6 2124.33  12
   2   4   4 31710.8 1769.90   5
   2  -4   4 30328.6 1980.23   4
  -2   4  -4 32296.6 1984.87   8
  -2  -4  -4 31940.9 2022.56  11
   2  -4   4 33718.7 2015.88  12
   2   4   4 31703.6 1174.47   2
   2  -4   4 31631.9 1779.18   5
  -2  -4  -4 31694.3 2159.44  10
   2   4   5 9103.90 1068.63   5
  -2   4  -5 11493.9 1250.09   8
   2  -4   5 8846.78 1133.91  12
   2   4   5 8983.21 1221.93  12
   2  -4   5 9241.45 1082.32   5
   2  -4   5 9842.79 1158.06   4
  -2  -4  -5 10035.5 1267.11  11
  -2  -4  -5 8655.34 1247.54  10
  -2  -4  -6 1678.92 567.907  10
  -2   4  -6 2172.54 613.937   8
   2  -4   6 1603.30 516.578  12
   2   4   6 1736.33 590.385  12
  -2  -4  -6 1913.30 636.715  11
   2   4   6 2167.04 642.899   5
   2  -4   6 1361.60 529.371   5
   2   5  -8 249.928 256.150  14
  -2   5   8 376.168 288.946   5
  -2  -5   8 747.226 341.347   5
  -2  -5   7-70.7568 237.325   4
   2   5  -7 359.125 293.092  14
  -2   5   7-83.8679 311.699   5
  -2  -5   7 261.991 247.454   5
   2  -5  -7-172.546 411.332  10
   2   5  -6 1483.80 371.011   2
   2   5  -6 1984.78 394.828  11
   2   5  -6 3280.54 598.742  14
  -2   5   6 2078.61 519.707   1
  -2   5   6 1474.51 426.288  12
  -2   5   6 1084.33 416.884   5
  -2  -5   6 2860.02 618.982   5
   2  -5  -6 2256.95 677.333  10
   2   5  -5 621.704 244.586   2
  -2   5   5 458.822 259.721  12
  -2   5   5 485.900 287.124   1
  -2   5   5 654.822 262.938   5
  -2  -5   5 793.171 334.855   5
   2   5  -5 852.253 260.960  11
  -2   5   5 481.649 254.427   8
   2  -5  -5-11.6115 324.540  10
   2  -5  -4 11872.0 1346.62   9
  -2   5   4 11371.8 1021.07   8
  -2   5   4 13978.5 1193.64   5
  -2  -5   4 11842.4 1036.36   5
  -2   5   4 12392.6 750.758   7
  -2   5   4 11560.9 1173.56   1
  -2   5   4 12149.6 1049.66  12
   2   5  -4 12540.2 984.470   2
   2  -5  -4 11971.9 1225.94  10
  -2   5   4 12594.6 1212.39   3
   2  -5  -3 17500.0 1175.43   6
   2   5  -3 17083.2 1194.12   6
  -2   5   3 16553.5 1216.82   8
  -2   5   3 15993.8 1350.81   1
  -2   5   3 17347.8 796.894   7
  -2  -5   3 14411.5 1296.08   7
   2   5  -3 19016.8 1163.22   2
   2  -5  -3 15070.6 1399.52   9
   2  -5  -3 16379.9 1370.56  10
  -2   5   3 17293.4 1299.49   3
   2   5  -2 5847.42 620.313   6
   2  -5  -2 5250.19 568.296   6
  -2   5   2 6361.28 747.083   3
   2  -5  -2 5197.41 780.403   9
   2   5  -2 5634.85 631.191   2
   2   5  -2 5552.13 409.620  13
  -2   5   2 5321.29 709.469   8
  -2   5   2 4448.19 727.700   1
  -2   5   2 5562.44 484.222   7
   2  -5  -2 5075.23 474.946   7
  -2  -5   2 4529.37 705.359   7
   2  -5  -2 4534.96 719.690   4
  -2  -5   2 5724.13 527.907   6
  -2   5   2 4985.72 524.824   6
   2   5  -1 19989.5 1014.90   6
   2  -5  -1 18432.1 960.140   6
   2  -5  -1 20102.3 1413.29   9
  -2  -5   1 19119.2 881.747   5
  -2  -5   1 18843.3 1189.83   7
  -2   5   1 19161.5 1352.34   8
   2  -5  -1 18583.8 1487.02   4
  -2   5   1 19454.8 1455.16   1
  -2   5   1 20721.6 1231.60  13
   2  -5  -1 18961.0 1037.44   7
   2   5  -1 21611.7 977.519  11
   2   5  -1 20022.0 1185.73   2
  -2   5   1 17075.1 865.852   5
  -2   5   0 3811.31 674.890   8
  -2  -5   0 4678.44 479.944   5
   2  -5   0 4841.22 667.366   9
  -2   5   0 5092.54 578.267  13
  -2   5   0 4884.46 737.017   1
  -2   5   0 4767.55 451.278   5
  -2  -5   0 4238.56 520.782   7
   2  -5   0 5168.41 836.878   4
  -2   5   0 5167.60 422.066  10
   2   5   0 4719.01 590.836   2
  -2  -5   0 4440.98 535.201  10
   2   5   0 4810.26 506.233   6
   2  -5   0 4189.48 456.319   6
  -2  -5  -1 3856.40 585.446  10
   2   5   1 4002.67 568.584   3
   2  -5   1 3302.44 592.503   9
  -2  -5  -1 3463.31 434.160   8
   2   5   1 3506.68 493.880   2
  -2  -5  -1 3650.99 492.888   7
   2  -5   1 3480.74 713.629   4
  -2   5  -1 3845.25 643.123   1
   2   5   1 4011.64 471.061   6
   2  -5   1 3618.41 454.952   6
  -2   5  -1 4605.35 715.870   8
   2  -5   2 24231.4 1360.63   9
  -2   5  -2 26367.6 1730.88   8
  -2  -5  -2 24247.8 930.311   8
  -2  -5  -2 24462.1 1329.06   7
   2  -5   2 22925.7 1758.08   4
   2   5   2 28133.2 1965.00  12
   2  -5   2 25390.5 1344.59   5
  -2  -5  -2 26313.9 1536.55  11
   2   5   2 25776.4 1280.99   2
  -2   5  -2 25721.2 1559.27   1
   2   5   2 28153.9 1606.33   3
  -2  -5  -2 26210.8 1672.61  10
   2   5   2 25021.6 1278.53   5
   2  -5   3 199.745 189.935   9
  -2  -5  -3-246.031 325.500  10
   2   5   3 130.800 137.229   2
   2   5   3 82.2132 173.476   5
   2  -5   3 342.215 279.766   5
   2   5   3 233.269 282.735  12
   2  -5   3 301.315 369.335   4
  -2  -5  -3 207.890 246.926  11
  -2   5  -3-13.9834 243.940   8
  -2   5  -4 23253.5 1784.42   8
   2  -5   4 24104.6 1879.55   4
   2   5   4 24287.9 1540.07   5
   2   5   4 20433.9 1796.65  12
   2  -5   4 23078.8 1534.71   5
   2   5   4 23948.4 1173.56   2
  -2  -5  -4 22164.7 1759.15  11
  -2  -5  -4 23865.6 1976.97  10
  -2   5  -5 1277.72 547.053   8
   2  -5   5 686.470 362.388  12
  -2  -5  -5 696.386 349.970  11
   2   5   5 599.681 378.916  12
   2  -5   5 790.063 401.676   4
   2   5   5 954.365 385.980   5
   2  -5   5 1098.75 443.590   5
  -2  -5  -5 1465.73 615.760  10
  -2   5  -6 1246.66 554.854   8
   2  -5   6 1673.37 591.445  12
   2   5   6 1801.05 679.066  12
  -2  -5  -6 1569.77 625.284  11
   2   5   6 1797.82 555.769   5
   2  -5   6 2296.65 591.165   5
  -2  -5  -6 1077.36 389.805  10
  -2   6   8 1460.82 647.200   5
  -2  -6   8 744.478 413.591   5
   2   6  -7 3276.15 640.745  14
  -2  -6   7 3293.05 748.478   4
  -2   6   7 2694.42 707.836   5
  -2  -6   7 2003.35 547.727   5
   2  -6  -7 4190.02 987.095  10
  -2  -6   6 14906.2 1771.91   4
  -2  -6   6 11079.9 1462.83   5
  -2   6   6 4887.71 1127.50   5
  -2   6   6 674.438 949.539  12
  -2   6   6 18057.8 1858.97   3
  -2   6   6 12659.5 1375.22   1
  -2   6   5 6760.38 965.660   1
  -2  -6   5 7980.09 947.384   5
  -2   6   5 8212.04 981.627   5
   2   6  -5 7878.63 840.885   2
  -2   6   5 6457.74 853.701  12
   2  -6  -5 7056.92 1127.60  10
  -2   6   5 8241.07 1100.32   3
  -2   6   4 173.344 257.416   1
  -2   6   4-359.684 313.506   3
   2   6  -4 370.276 245.097   2
  -2   6   4 248.659 215.318   8
   2  -6  -4 484.361 354.378  10
  -2   6   4 246.181 296.598   5
  -2  -6   4 73.2996 223.770   5
   2  -6  -3 17074.1 1573.27   9
  -2   6   3 17391.8 1395.97   3
  -2   6   3 14639.1 1385.71   1
  -2   6   3 15378.7 1243.64   8
  -2  -6   3 14027.4 987.921   5
   2  -6  -3 15868.6 1400.83   4
  -2  -6   3 13367.8 1321.70   7
   2   6  -3 17288.8 1207.99   2
   2  -6  -3 16569.1 1363.82  10
   2  -6  -2-185.533 320.491   9
  -2  -6   2 30.4321 128.668   6
   2   6  -2 287.128 194.075   6
   2  -6  -2 75.0225 132.941   6
  -2   6   2 1024.79 458.516   3
   2   6  -2 383.411 251.873   2
  -2   6   2-379.223 328.669   8
  -2   6   2-650.951 481.460  13
   2   6  -2 560.591 219.363  13
   2  -6  -2-223.918 242.137   4
  -2  -6   2 384.962 264.188   7
  -2   6   2 261.228 254.600   1
   2  -6  -1 116.059 128.268   7
  -2  -6   1 72.8221 92.2341   5
   2  -6  -1 394.572 225.356   9
  -2  -6   1-33.2779 158.001  10
   2   6  -1 380.937 188.662   6
   2  -6  -1 369.245 193.444   6
   2  -6  -1 278.927 306.739   4
  -2   6   1 537.603 281.317   8
  -2   6   1 985.700 377.891  13
   2   6  -1 271.610 234.569   2
  -2   6   1 316.278 317.529   1
  -2  -6   1 633.714 299.739   7
   2  -6   0 7189.48 913.346   9
  -2   6   0 8542.79 1024.95   1
  -2   6   0 7783.63 952.199   8
   2  -6   0 7250.78 1045.10   4
  -2   6   0 7554.91 775.794  13
  -2  -6   0 7213.35 551.150   5
  -2  -6   0 7055.40 685.654   7
  -2   6   0 7821.63 505.402  10
  -2  -6   0 7891.03 795.324  10
   2   6   0 7900.05 814.886   2
   2   6   0 7927.60 603.123   6
   2  -6   0 7612.49 599.510   6
   2  -6   1 19249.7 1385.71   9
   2   6   1 23120.3 1403.69   3
  -2   6  -1 18181.5 1507.84   8
  -2   6  -1 19476.6 1518.38   1
   2  -6   1 16584.3 1592.35   4
  -2  -6  -1 19233.4 1085.89   7
  -2  -6  -1 18737.4 1354.64  10
   2   6   1 19080.7 1006.35   6
   2  -6   1 18692.9 1002.83   6
   2   6   1 20063.2 1251.21   2
   2  -6   2 69542.8 2510.83   9
  -2  -6  -2 73177.5 2184.89   7
  -2   6  -2 69897.3 3021.50   8
   2  -6   2 64271.6 3185.46   4
   2   6   2 71022.4 2148.85   5
   2  -6   2 66804.8 2155.22   5
  -2  -6  -2 72084.2 2979.01  10
   2   6   2 74049.3 2340.33   2
   2   6   2 71958.3 2710.93   3
   2   6   3 408.645 237.135   5
   2  -6   3 737.990 281.673   5
   2   6   3-104.731 346.910   3
   2   6   3 932.459 247.657   2
  -2   6  -3 548.249 293.539   8
   2   6   3 633.082 345.373  12
   2  -6   3 298.616 380.451   4
  -2  -6  -3 563.367 326.292   4
  -2  -6  -3 547.921 248.460  10
  -2   6  -4 832.794 395.336   8
   2   6   4 421.966 353.823  12
   2  -6   4 393.170 352.858   4
  -2  -6  -4-129.088 254.008  11
  -2  -6  -4 678.272 481.826  10
   2   6   4 241.170 284.498   5
   2  -6   4 96.2761 265.446   5
  -2   6  -5 8408.05 1234.64   8
   2   6   5 9322.86 1371.67  12
   2   6   5 8529.97 1052.25   5
   2  -6   5 6969.96 939.233   5
   2  -6   5 6088.64 1073.97   4
  -2  -6  -5 8437.27 1212.08  11
  -2  -6  -5 7788.55 1327.07  10
  -2  -6  -6 6179.65 1187.92  11
  -2   6  -6 7804.96 1236.56   8
   2  -6   6 7258.98 1052.08   5
   2   6   6 6072.90 923.900   5
  -2  -7   7 7885.96 1234.85   4
   2   7  -6 504.244 316.082   2
  -2   7   6 258.989 300.474   3
  -2  -7   6 1431.13 598.608   4
   2  -7  -6 1303.97 609.377  10
  -2  -7   5 7718.07 1154.57   4
  -2   7   5 7116.51 1023.72   3
  -2   7   5 5938.20 953.536  12
   2   7  -5 8037.60 929.348   2
  -2   7   5 8589.50 1152.29   1
   2  -7  -5 7560.67 1183.88  10
  -2   7   4 10739.4 1222.33   3
  -2   7   4 9701.66 1011.42   8
  -2  -7   4 9727.99 1279.46   7
   2   7  -4 12070.2 1103.70   2
   2  -7  -4 10141.0 1202.91  10
  -2   7   4 10749.2 1266.95   1
  -2   7   3 7505.91 1021.16   3
  -2   7   3 6583.25 859.234   8
  -2   7   3 5930.73 919.940   1
   2  -7  -3 7548.29 1085.07   4
  -2  -7   3 6179.25 889.874   7
   2   7  -3 7139.88 867.856   2
   2  -7  -3 6838.26 929.571  10
  -2  -7   2 275.547 174.161  10
   2  -7  -2 370.317 365.021   9
   2   7  -2 311.631 293.985   2
  -2   7   2 973.907 394.485   1
  -2   7   2 292.673 332.740   8
  -2   7   2-425.309 359.593  13
   2   7  -2 426.481 222.677  13
   2  -7  -2 653.919 459.509   4
  -2  -7   2 173.796 303.282   7
   2  -7  -1 3852.54 846.125   9
  -2   7   1 4744.91 810.291   1
  -2   7   1 4688.98 759.056   8
   2   7  -1 4769.56 540.263  13
  -2   7   1 3981.59 636.573  13
   2   7  -1 4638.25 693.244   2
  -2  -7   1 4489.06 646.369   7
   2  -7  -1 3855.93 773.864   4
  -2  -7   1 4640.83 617.331  10
  -2   7   0 581.226 401.060   1
   2  -7   0 309.550 333.532   9
  -2   7   0 794.204 470.626   8
  -2   7   0 537.636 361.993  13
  -2  -7   0 954.517 383.070  10
   2   7   0 650.310 383.085   2
   2  -7   0 730.481 392.665   4
  -2  -7   0 520.292 245.666   7
   2  -7   1 19617.1 1537.73   9
   2   7   1 21107.4 1463.09   3
  -2   7  -1 22852.1 1835.27   8
   2  -7   1 16203.1 1677.71   4
  -2  -7  -1 19117.8 1486.97  10
   2   7   1 19538.1 1341.12   2
   2   7   2 12822.4 1226.72   3
  -2  -7  -2 11470.3 1227.32   4
  -2   7  -2 10865.6 1285.26   8
   2  -7   2 11081.1 1451.62   4
  -2  -7  -2 11717.0 1316.59  10
   2   7   2 11585.1 1025.63   2
  -2  -7  -3 9883.25 1093.96   4
  -2   7  -3 9515.21 1221.36   8
   2  -7   3 9225.73 1284.70   4
   2   7   3 9692.92 1374.08  12
   2   7   3 11677.1 1007.70   2
  -2  -7  -3 8727.42 1232.19  10
   2   7   3 7394.03 1042.61   3
  -2   7  -4 17999.0 1762.94   8
   2  -7   4 17977.8 1870.87   4
   2   7   4 15358.5 1749.91  12
  -2  -7  -4 17049.0 1855.38  10
   2   7   4 13434.7 1544.36   3
   2   7   5 4433.34 875.222   3
  -2   7  -5 8399.34 1278.04   8
  -2  -7  -5 7693.87 1350.05  10
   2  -7   5 5933.92 1142.84   4
   2   7   5 6580.57 1188.97  12
   2   8  -6 501.416 601.242   2
   2  -8  -6 108.513 321.221  10
  -2  -8   5 2720.81 823.821   4
   2   8  -5 2120.21 522.474   2
  -2   8   5 2322.13 681.368   3
  -2   8   5 1685.54 536.411  12
   2  -8  -5 2816.98 778.256  10
  -2  -8   4 877.609 475.080   4
  -2   8   4 1145.67 555.518   3
   2   8  -4 448.083 279.646   2
  -2   8   4 674.919 389.307   1
  -2  -8   4 121.532 254.839   7
   2  -8  -4 760.520 448.858  10
  -2   8   3 9766.49 1195.49   3
  -2   8   3 6994.09 935.412   8
  -2  -8   3 9107.12 1273.24   4
  -2  -8   3 7416.10 1032.22   7
   2  -8  -3 6894.81 1092.26   4
  -2   8   3 7562.04 1142.91   1
   2  -8  -3 8214.34 1060.78  10
   2   8  -3 8483.76 1019.71   2
  -2  -8   2 341.611 254.983  10
  -2  -8   2 488.800 461.888   4
  -2   8   2 704.044 414.097   8
  -2   8   2 83.5272 251.700  13
   2   8  -2 137.891 237.720   2
   2   8  -2 435.929 228.055  13
  -2   8   2 594.917 515.338   1
  -2  -8   2 484.102 351.473   7
   2  -8  -2 394.047 438.791   4
  -2  -8   1 622.419 447.506   4
  -2   8   1 447.061 424.845   8
   2   8  -1 243.165 208.676  13
  -2   8   1 447.544 352.362  13
   2   8  -1 255.483 258.151   2
  -2   8   1 415.238 475.794   1
   2  -8  -1 1111.86 502.764   4
  -2  -8   1 510.003 223.999  10
  -2  -8   0 2095.87 610.500   4
  -2   8   0 2161.22 581.033   8
  -2   8   0 3627.13 642.286  13
   2   8   0 1734.92 425.154   2
   2  -8   0 2054.12 722.359   4
  -2  -8   0 2337.26 525.531  10
  -2  -8  -1 12726.6 1428.01   4
  -2   8  -1 11673.7 1369.84   8
   2  -8   1 10783.1 1496.91   4
  -2  -8  -1 12500.0 1281.54  10
   2   8   1 11700.6 1122.21   2
   2   8   2 33567.9 2055.01   3
  -2  -8  -2 31087.1 2191.97   4
  -2   8  -2 30383.8 2233.78   8
   2  -8   2 28340.0 2434.23   4
  -2  -8  -2 31780.8 2267.04  10
   2   8   2 31244.0 1805.08   2
   2   8   3 444.286 325.853   3
  -2   8  -3 2516.45 736.572   8
   2   8   3 1146.53 375.378   2
   2   8   3 1207.16 585.436  12
   2  -8   3 1649.71 608.096   4
  -2  -8  -3 1617.09 611.577  10
   2   8   4-176.354 315.421   3
   2   8   4 322.833 354.293  12
  -2   8  -4 618.734 459.458   8
   2  -8   4 186.025 307.422   4
  -2  -8  -4-76.6435 286.447  10
   2  -8   5 4004.63 1029.11   4
   2   9  -5 5600.23 910.317   2
  -2  -9   5 4135.15 966.651   7
   2  -9  -5 4484.43 961.282  10
   2   9  -4 4926.06 811.993   2
  -2  -9   4 4692.18 1013.95   4
   2  -9  -4 4524.98 942.412  10
  -2  -9   4 3665.63 869.273   7
  -2   9   3 4361.88 793.120  13
   2  -9  -3 4304.56 958.264   4
   2   9  -3 4691.22 819.972   2
  -2   9   3 5058.68 841.570   8
  -2  -9   3 6099.30 1126.83   4
   2   9  -2 558.837 375.027   2
  -2   9   2 613.003 270.017   8
  -2  -9   2 23.7124 268.782   4
  -2   9   2 463.275 334.890  13
   2  -9  -2-14.5812 301.229   4
  -2   9   1 13020.2 1232.07  13
  -2  -9   1 12643.7 1561.95   4
  -2   9   1 13012.2 1397.01   8
   2  -9  -1 11213.5 1552.12   4
   2   9  -1 13166.0 1092.64  13
   2   9  -1 14239.1 1324.76   2
  -2   9   0-55.2821 318.242   8
  -2  -9   0 295.343 312.891   4
   2   9   0 72.5558 237.841   2
   2  -9   0 63.7659 388.460   4
  -2  -9   0 251.965 257.587  10
  -2   9  -1 417.288 432.754   8
  -2  -9  -1 235.034 285.178   4
   2   9   1-211.665 334.902   2
   2  -9   1-52.8791 371.911   4
  -2  -9  -1 691.549 477.244  10
  -2   9  -2 3340.91 878.273   8
   2   9   2 3418.39 675.344   2
  -2  -9  -2 3305.48 797.713   4
   2  -9   2 2006.41 721.740   4
  -2  -9  -2 2588.93 700.830  10
   2   9   3 2002.27 572.286   3
  -2   9  -3 2865.82 830.666   8
  -2  -9  -3 1735.84 670.829  10
   2   9   3 1829.34 532.551   2
   2   9   3 2308.90 825.072  12
   2  -9   3 1479.42 704.764   4
   2 -10  -3 2058.61 759.860   4
  -2 -10   2 29650.6 2608.52   4
  -2  10   2 26327.2 2065.40   8
   2 -10  -2 30749.4 2693.47   4
  -2  10   2 26376.9 2096.55  13
   2  10  -2 26099.1 1939.77   2
  -2  10   1-12.9242 294.076   8
   2 -10  -1-241.955 552.940   4
  -2 -10   1 261.432 438.814   4
  -2  10   1 314.392 291.826  13
   2  10  -1 136.979 262.714   2
  -2 -10   0 13340.4 1685.87   4
  -2  10   0 13624.9 1531.38   8
   2 -10   0 12191.0 1740.46   4
   2  10   0 14033.9 1307.30  13
   2  10   0 13815.4 1392.29   2
  -2  10  -1 5835.93 1050.60   8
   2 -10   1 4672.34 1137.00   4
  -2 -10  -1 4447.84 1026.11   4
   2  10   1 4965.52 843.422   2
  -2 -10  -2 80.4906 540.566   4
   2  10   2 329.894 364.119   2
  -2 -10  -2 1250.31 677.157  10
   2  10   3 528.699 296.007   2
  -2  11   1 15215.9 1692.85   8
   3   0  -9 789.622 501.206  14
  -3   0   9 357.748 440.056   7
   3   0  -8 18549.1 1743.29  11
   3   0  -8 18535.8 1845.74  14
  -3   0   8 15669.4 1855.92   5
  -3   0   8 16123.6 1740.65   7
  -3   0   7 17513.7 1835.13   5
  -3   0   7 14790.1 1601.48   7
   3   0  -7 19537.1 1730.99  14
   3   0  -7 17638.2 1523.42  11
   3   0  -6 2183.35 452.746   9
   3   0  -6 2273.70 657.204   6
  -3   0   6 1898.43 382.869  12
   3   0  -6 2250.89 489.361  11
   3   0  -6 2324.34 537.306  14
  -3   0   6 1760.02 518.770   7
   3   0  -5 3010.01 573.509  14
   3   0  -5 3787.15 570.858   9
   3   0  -5 3700.60 789.564   6
   3   0  -5 3256.44 417.710  12
  -3   0   5 3969.15 748.089   7
   3   0  -4 12181.7 1173.76   6
   3   0  -4 13422.7 995.911   9
   3   0  -4 11728.6 978.052  14
   3   0  -4 11089.5 555.792  12
  -3   0   4 11787.4 1161.16   7
   3   0  -3 285661. 5303.72   6
   3   0  -3 268515. 4138.69   9
   3   0  -3 255148. 4136.64  14
  -3   0   3 293360. 5374.57   7
  -3   0   3 260935. 3368.00  11
   3   0  -2 118362. 3133.73   6
   3   0  -2 117626. 2510.30   9
   3   0  -2 109751. 2415.83  14
  -3   0   2 112063. 3109.70   7
  -3   0   2 109330. 1270.65   3
   3   0  -1 2647.64 266.990  12
   3   0  -1 3495.79 430.865   9
   3   0  -1 2937.42 480.532   6
  -3   0   1 3026.45 288.593  14
   3   0  -1 2232.18 309.387  14
   3   0  -1 2368.88 271.662  13
  -3   0   1 2432.67 468.257   7
   3   0   0 81509.1 1936.51   9
   3   0   0 72501.1 1519.80  14
  -3   0   0 72364.2 2543.75   7
   3   0   0 77405.0 1862.85  12
  -3   0   0 78590.4 2103.03  12
   3   0   0 74893.1 2330.97   6
   3   0   1 318.403 230.627   5
  -3   0  -1 502.351 231.955   8
   3   0   2 4615.53 664.986   5
   3   0   2 4263.56 612.606  12
  -3   0  -2 4210.10 568.839   8
  -3   0  -2 3852.87 716.502   7
  -3   0  -2 3277.31 524.752  10
   3   0   3 3349.30 643.468   5
  -3   0  -3 2819.41 484.063   8
  -3   0  -3 3228.55 548.267  11
   3   0   3 3487.54 618.969  12
  -3   0  -3 1818.15 408.003  10
  -3   0  -4 9959.93 866.641   8
   3   0   4 6801.07 926.496  12
   3   0   4 6403.08 975.430   5
  -3   0  -4 6484.93 820.198  11
  -3   0  -4 9962.24 1135.17  10
   3   0   5 7912.37 1060.02  12
   3   0   5 8995.87 1183.15   5
  -3   0  -5 8205.43 993.400  11
  -3   0  -5 7797.24 1061.51  10
   3   0   6 15422.7 1628.32  12
   3   0   6 20064.5 1844.27   5
  -3   0  -6 16901.6 1602.50  11
  -3   0  -6 17361.6 1713.12  10
   3   1  -9 6845.59 1203.28  14
   3  -1  -9 7101.43 1272.69  14
   3  -1  -9 9225.28 1387.77  11
  -3   1   9 4999.61 1000.48   7
   3   1  -8 507.433 314.905  11
   3   1  -8 522.501 421.448  14
   3  -1  -8 251.054 316.467  14
   3  -1  -8-405.724 470.034  11
  -3   1   8 971.484 603.176   5
  -3  -1   8 759.399 430.356   5
  -3   1   8 160.957 252.695   7
  -3  -1   8 657.875 503.166   7
   3  -1  -7 351.390 330.630   9
   3  -1  -7 600.445 404.875  14
  -3   1   7-276.268 345.953   5
  -3  -1   7 253.504 292.353   5
   3  -1  -7-125.200 225.139  11
   3   1  -7 276.084 319.192  14
   3   1  -7 7.24537 203.014  11
  -3   1   7 14.6566 202.643   7
  -3  -1   7 92.7256 312.069   7
   3  -1  -6 543.606 331.591  14
   3  -1  -6 109.177 168.322   9
   3   1  -6 179.253 192.382   9
  -3   1   6 149.139 141.655  12
   3  -1  -6 34.1825 361.328   6
   3   1  -6 46.7667 273.347   6
   3   1  -6 208.565 245.964  14
   3   1  -6 250.520 266.145  11
  -3   1   6-1.98451 256.964   7
  -3  -1   6 605.128 456.768   7
   3  -1  -5 22924.2 1498.27   9
   3   1  -5 24842.4 1334.43   9
   3   1  -5 24924.8 1853.84   6
   3  -1  -5 23363.3 1780.90   6
   3   1  -5 23327.4 1521.12  14
   3  -1  -5 24210.6 1661.50  14
  -3   1   5 22449.9 927.665  12
  -3  -1   5 19627.9 1678.64   7
   3   1  -5 22898.8 1288.52  11
  -3   1   5 21821.3 1667.74   7
   3  -1  -4 13430.2 1065.51   9
   3   1  -4 10787.1 1129.68   6
   3  -1  -4 11185.9 1148.37   6
   3   1  -4 11966.0 871.066   9
   3   1  -4 12424.8 997.259  14
   3  -1  -4 12624.3 1085.80  14
   3   1  -4 12109.6 656.271  12
  -3   1   4 10451.4 1087.07   7
  -3  -1   4 12558.6 1232.28   7
  -3  -1   4 13093.9 579.012  11
   3  -1  -3 1077.00 331.917   9
   3   1  -3 1128.17 287.039   9
   3   1  -3 957.744 360.350   6
   3  -1  -3 980.735 412.564   6
   3   1  -3 969.871 265.142  14
   3  -1  -3 1219.45 380.745  14
  -3   1   3 1139.48 219.108  13
   3   1  -3 952.934 173.299  12
  -3  -1   3 1387.80 167.861  11
  -3   1   3 1014.79 328.597   7
  -3  -1   3 1471.35 503.637   7
  -3   1   2 4520.40 348.281   3
   3  -1  -2 4638.55 572.414   9
   3   1  -2 4294.19 469.095   9
   3   1  -2 4204.43 599.436   6
   3  -1  -2 3686.83 557.931   6
   3   1  -2 3957.13 445.574  14
   3  -1  -2 3834.24 517.960  14
  -3   1   2 4301.49 368.671  13
  -3  -1   2 3681.23 272.396  11
  -3   1   2 3589.92 576.450   7
  -3  -1   2 3597.51 578.537   7
   3   1  -1 68632.6 1532.61  14
   3  -1  -1 66809.4 1990.54   9
  -3   1   1 70913.7 1649.44  14
   3  -1  -1 70590.1 1956.04  14
   3  -1  -1 73471.2 1766.13  13
   3  -1  -1 71141.6 1280.74  12
  -3   1   1 68685.8 2406.02   7
  -3  -1   1 70121.8 2462.93   7
  -3   1   1 69986.8 1421.65  12
   3   1  -1 71203.6 1704.74  12
   3  -1  -1 68622.8 1305.15   3
   3   1  -1 73351.2 2293.55   6
   3  -1  -1 71831.7 2291.78   6
   3  -1   0 12387.1 795.209   9
  -3   1   0 13771.0 1082.84   8
   3   1   0 12460.5 561.655  14
  -3   1   0 12742.4 596.312  14
  -3   1   0 12631.7 1065.38   7
   3  -1   0 12690.2 730.577  12
  -3  -1   0 12393.3 1077.92   7
   3   1   0 11771.6 810.178  12
  -3   1   0 13270.4 795.581  12
   3   1   0 12688.8 977.504   6
   3  -1   0 12535.5 985.173   6
   3  -1   1 58355.4 1707.85   9
  -3   1  -1 59363.5 2254.47   8
  -3   1  -1 57616.7 929.750  14
   3   1   1 50904.9 849.077  14
  -3   1  -1 58161.1 2445.82   7
  -3  -1  -1 57427.3 2373.66   7
   3  -1   1 57184.9 1841.78  12
   3   1   1 57294.8 1996.01  12
   3   1   1 58930.3 2147.65   5
   3  -1   1 59678.1 2179.93   5
  -3  -1  -1 60533.6 1473.55  11
  -3  -1  -2 796.007 331.145  10
  -3   1  -2 645.598 248.149  10
   3   1   2 675.277 289.003   5
   3  -1   2 766.834 340.297   5
   3  -1   2 1083.92 270.696   9
  -3   1  -2 244.378 250.358   8
  -3  -1  -2 521.157 252.623   8
   3  -1   2 493.400 278.677  12
   3   1   2 170.276 202.706  12
  -3   1  -2 463.542 353.808   7
  -3  -1  -2 415.804 306.593   7
  -3  -1  -2 671.787 219.302  11
   3   1   3 1024.69 389.982   5
   3  -1   3 1649.90 504.488   5
  -3  -1  -3 1194.97 262.881   8
   3  -1   3 1270.78 299.847   9
   3   1   3 1799.37 514.250  12
  -3   1  -3 1195.73 372.291   8
   3  -1   3 948.892 345.771  12
  -3  -1  -3 1527.60 373.102  11
  -3   1  -3 591.598 239.144  10
  -3  -1  -3 848.341 253.108  10
   3  -1   4 9533.60 695.356   9
  -3   1  -4 10482.7 958.178   8
   3  -1   4 9740.70 1098.50  12
   3   1   4 9909.34 1125.36  12
   3   1   4 10384.9 1154.32   5
   3  -1   4 9334.86 1089.69   5
  -3  -1  -4 10641.7 1041.25  11
  -3   1  -4 10729.7 952.934  11
  -3   1  -4 10607.0 1040.77  10
  -3  -1  -4 11695.0 1223.62  10
   3  -1   5 967.418 435.719  12
   3   1   5 1562.01 539.183  12
  -3  -1  -5 1063.67 398.038  11
  -3   1  -5 1361.36 444.359  11
  -3   1  -5 1175.77 425.375  10
   3   1   5 2517.76 677.130   5
   3  -1   5 1197.48 476.721   5
  -3  -1  -5 1443.60 514.525  10
   3  -1   6 4518.69 897.454  12
   3   1   6 4460.97 919.889  12
  -3  -1  -6 4971.69 940.390  11
  -3   1  -6 4941.77 850.763  11
  -3  -1  -6 3619.75 802.536  10
   3   1   6 4238.27 873.805   5
   3  -1   6 5150.28 934.472   5
  -3  -1  -7 2984.55 801.887  10
   3   2  -8 9239.21 1256.64  14
   3  -2  -8 8691.30 1299.54  14
  -3   2   8 6644.30 1093.35   7
  -3   2   8 7386.69 1309.77   5
  -3  -2   8 7688.26 1268.04   5
   3   2  -7 32.6743 271.904  14
   3  -2  -7 502.369 346.326   9
   3  -2  -7 55.4875 268.292  14
  -3   2   7 38.9619 412.762   5
  -3  -2   7-99.2772 262.373   5
   3   2  -7 35.2855 196.117  11
  -3   2   7-56.0404 273.300   7
  -3  -2   7 49.2645 241.958   7
   3  -2  -6 9840.70 1071.53   9
   3   2  -6 9669.57 824.857   9
   3  -2  -6 10873.2 1352.62   6
   3   2  -6 12147.2 1416.50   6
   3  -2  -6 8130.25 1093.89  14
   3   2  -6 10270.4 1092.62  14
  -3   2   6 9096.77 1094.63   7
  -3  -2   6 10009.6 1324.81   7
   3   2  -6 9186.36 892.847  11
   3  -2  -5 63495.9 2598.20   9
   3   2  -5 66834.6 2051.84   9
   3   2  -5 65495.5 3028.70   6
   3  -2  -5 61706.7 2908.58   6
   3   2  -5 58958.8 2283.90  14
   3  -2  -5 61691.8 2746.51  14
  -3   2   5 62536.8 1523.91  12
  -3   2   5 59069.0 2571.04   7
  -3  -2   5 54856.2 2781.77   7
   3   2  -5 62195.5 1962.71  11
   3   2  -4 689.940 194.434  11
   3  -2  -4 891.752 301.092   9
   3   2  -4 805.744 241.975   9
   3   2  -4 797.165 393.588   6
   3  -2  -4 1070.31 482.227   6
   3   2  -4 1008.25 338.122  14
   3  -2  -4 685.909 347.332  14
   3   2  -4 1058.19 253.158  12
  -3   2   4 946.522 146.231  12
  -3   2   4 792.141 353.151   7
  -3  -2   4 284.605 232.244   7
  -3   2   3 24755.0 1148.39  13
   3   2  -3 27147.2 1788.46   6
   3  -2  -3 28553.6 1747.43   6
   3  -2  -3 32068.6 1691.15   9
   3   2  -3 24473.5 1068.46   9
   3   2  -3 24888.9 1173.96  14
   3  -2  -3 28175.1 1637.01  14
   3   2  -3 27856.7 1126.58  12
  -3   2   3 32695.8 1691.63   7
  -3  -2   3 32035.8 1886.68   7
  -3   2   3 28789.8 1309.65   3
   3   2  -2 114722. 3062.00   6
   3  -2  -2 112383. 3033.66   6
   3  -2  -2 111547. 2924.78   9
  -3   2   2 121049. 2156.86   3
  -3   2   2 101687. 1102.82  12
  -3  -2   2 112177. 1371.62   3
   3  -2  -2 108887. 2927.11  14
   3   2  -2 115199. 2180.88  14
  -3   2   2 113010. 2088.62  13
  -3   2   2 112762. 3034.05   7
  -3  -2   2 109548. 3226.12   7
   3  -2  -1 58365.9 2016.70   9
   3   2  -1 60770.8 1387.41  14
  -3   2   1 55261.1 2159.79   7
  -3   2   1 57701.9 1299.45  12
  -3  -2   1 54782.0 2198.07   7
  -3  -2   1 55819.8 878.369  11
   3  -2  -1 57708.9 1557.12   3
   3   2  -1 59797.7 2087.46   6
   3  -2  -1 56336.0 2058.07   6
   3  -2   0 21694.5 1157.66   9
  -3   2   0 22242.2 1465.44   8
  -3   2   0 22197.5 1029.45  14
   3  -2   0 21806.0 1028.75  12
  -3   2   0 23131.0 1447.69   7
  -3   2   0 22859.1 1060.26  12
  -3  -2   0 22953.6 1423.93   7
   3   2   0 24062.2 1310.49  12
  -3  -2   0 22460.6 802.483  11
   3   2   0 21159.7 741.922   3
   3   2   0 22579.2 1293.85   6
   3  -2   0 22216.0 1281.18   6
   3  -2   1 62629.5 1930.63   9
  -3   2  -1 62325.9 2424.73   8
  -3   2  -1 64237.9 1555.33  14
  -3   2  -1 63030.0 2584.72   7
   3  -2   1 66091.2 2002.88  12
  -3  -2  -1 63354.8 2445.50   7
   3   2   1 63794.8 2291.80  12
   3   2   1 63785.4 2210.50   5
   3  -2   1 64861.4 2262.19   5
  -3  -2  -1 62470.6 1658.91  11
  -3  -2  -1 63813.0 2023.77  10
  -3  -2  -2 298.668 192.438  10
  -3   2  -2 367.545 199.738  10
   3   2   2 282.322 248.377   5
   3  -2   2 592.978 299.623   5
   3  -2   2-339.512 232.699   9
  -3   2  -2 491.765 143.202  14
   3   2   2 299.763 282.015  12
  -3   2  -2 177.132 249.095   8
  -3  -2  -2 590.464 206.744   8
   3  -2   2 350.579 215.801  12
  -3  -2  -2 528.910 302.655   7
  -3  -2  -2 328.473 148.904  11
   3  -2   3 43864.7 1574.59   9
  -3   2  -3 47862.3 2174.74   8
  -3  -2  -3 47438.5 1425.47   8
   3  -2   3 45427.4 2126.36  12
   3   2   3 44696.1 2137.12   5
   3  -2   3 47877.2 2208.44   5
  -3  -2  -3 46287.1 1979.91  11
   3   2   3 46019.6 2275.73  12
  -3   2  -3 45799.0 1783.14  10
  -3  -2  -3 46164.3 2240.82  10
  -3   2  -4 6297.31 838.093   8
   3  -2   4 3420.84 685.470  12
   3   2   4 4011.77 780.880  12
  -3  -2  -4 5174.83 729.405  11
  -3   2  -4 6396.84 844.353  10
  -3  -2  -4 6722.19 990.761  10
   3   2   4 2678.48 716.784   5
   3  -2   4 2516.10 750.639   5
   3  -2   5 1086.17 391.305  12
   3   2   5 1347.39 458.111  12
  -3  -2  -5 2110.29 601.456  11
  -3   2  -5 1638.66 453.658  11
  -3  -2  -5 1209.49 468.877  10
   3   2   5 1129.66 481.773   5
   3  -2   5 1504.95 495.493   5
   3  -2   6 13514.7 1493.33  12
   3   2   6 12966.4 1516.45  12
   3   2   6 13558.0 1541.99   5
   3  -2   6 12192.7 1442.76   5
  -3  -2  -6 14937.8 1655.01  11
  -3   2  -6 13445.6 1369.77  11
  -3  -2  -6 13032.8 1607.16  10
   3  -3  -8 12238.3 1651.53  14
   3   3  -8 11630.0 1407.45  14
  -3  -3   8 13336.5 1654.57   5
  -3   3   8 13602.2 1659.22   5
   3  -3  -7 160.177 321.337   9
   3   3  -7 386.095 323.314  14
   3  -3  -7 889.009 456.142  14
  -3   3   7 1140.13 633.373   5
  -3  -3   7 1627.11 696.801   5
  -3   3   7-67.6697 190.769   7
   3  -3  -6 40873.1 2435.18   9
  -3   3   6 40379.9 2563.79   5
  -3  -3   6 39249.3 2437.47   5
   3   3  -6 34892.6 1934.08  14
   3  -3  -6 42447.1 2626.64  14
  -3   3   6 38223.6 2147.32   7
  -3  -3   6 37503.2 2584.17   7
   3   3  -6 42185.8 1823.27  11
   3  -3  -5 40101.8 2214.26   9
   3   3  -5 40195.5 1496.74   9
   3  -3  -5 36867.7 2234.12   6
   3   3  -5 39951.3 2354.69   6
   3  -3  -5 36203.9 2293.18  14
   3   3  -5 35454.1 1733.65  14
  -3   3   5 41116.2 1378.30  12
  -3   3   5 37668.7 1988.33   7
  -3  -3   5 34695.8 2278.59   7
   3   3  -5 39559.9 1456.12  11
   3  -3  -4 139822. 3930.58   9
   3   3  -4 142611. 4068.62   6
   3  -3  -4 141096. 4003.24   6
   3   3  -4 140829. 2630.25   9
   3   3  -4 133664. 3007.28  14
   3  -3  -4 144649. 4124.67  14
  -3   3   4 145703. 2226.24  12
  -3   3   4 141212. 3587.16   7
  -3  -3   4 137791. 4207.37   7
   3   3  -4 135105. 2010.89  11
   3  -3  -3 2949.16 581.035   9
  -3   3   3 3194.83 510.051   3
   3   3  -3 3359.02 641.906   6
   3  -3  -3 3992.28 666.832   6
   3   3  -3 2687.32 450.887   2
  -3   3   3 1770.24 384.004  13
  -3   3   3 3038.67 333.878  12
  -3   3   3 3258.25 550.160   7
  -3  -3   3 2841.62 661.584   7
   3   3  -2 63968.4 2304.78   6
   3  -3  -2 62383.7 2257.68   6
  -3  -3   2 66371.7 1407.40   3
   3  -3  -2 62413.2 2413.97   9
  -3   3   2 67237.8 1864.75   3
  -3   3   2 59842.7 2464.96   8
   3   3  -2 68634.1 2128.48   2
  -3   3   2 67930.4 1864.02  13
  -3   3   2 61008.5 1283.59  12
  -3   3   2 63182.9 2212.70   7
  -3  -3   2 60188.4 2456.80   7
   3  -3  -1 19870.6 1301.73   9
  -3   3   1 21211.6 1496.29   8
   3   3  -1 20224.5 1143.19   2
  -3   3   1 22251.0 1360.64   7
  -3   3   1 22115.6 899.221  12
  -3  -3   1 20641.7 1362.88   7
   3   3  -1 21339.1 1265.03   6
   3  -3  -1 21272.8 1274.22   6
   3   3   0 55923.4 1409.63   3
   3  -3   0 51917.6 2001.44   9
  -3   3   0 55679.6 2385.47   8
   3   3   0 55874.3 1845.50   2
  -3   3   0 53066.8 2258.39   7
  -3  -3   0 51791.5 2166.77   7
   3   3   0 56336.4 2242.11  12
  -3  -3   0 57643.6 1495.97  11
   3   3   0 56501.8 2025.41   6
   3  -3   0 56808.4 2058.87   6
   3  -3   1 14501.5 1022.36   9
  -3   3  -1 14879.1 1264.97   8
   3   3   1 13869.3 908.284   2
  -3   3  -1 14595.7 1269.27   7
   3  -3   1 14164.9 1022.19  12
  -3  -3  -1 14014.9 1160.49   7
   3   3   1 15355.4 1239.45  12
  -3  -3  -1 15563.7 941.108  11
   3   3   1 15218.1 1110.15   5
   3  -3   1 15632.4 1145.43   6
  -3  -3  -1 14344.8 1048.18  10
  -3  -3  -2 60588.7 2569.10   7
   3  -3   2 56971.4 1995.36   9
  -3   3  -2 59350.3 2539.25   8
   3  -3   2 60428.8 2301.07  12
   3   3   2 60491.6 2597.91  12
   3   3   2 62487.6 2329.82   5
   3  -3   2 63575.5 2417.96   5
  -3  -3  -2 59758.8 2110.90  11
  -3  -3  -2 61910.9 2420.68  10
  -3   3  -2 60121.1 1653.84  10
   3   3   3 534.843 285.139   5
   3  -3   3 1025.06 394.279   5
   3  -3   3 1199.45 312.105   9
  -3   3  -3 1437.51 462.608   8
   3  -3   3 569.689 302.436  12
   3   3   3 851.355 364.731  12
  -3   3  -3 694.589 301.298   1
  -3  -3  -3 417.805 316.044  11
  -3   3  -3 1130.33 310.233  10
  -3  -3  -3 435.465 197.192  10
  -3   3  -4 19564.1 1539.09   8
   3  -3   4 14486.1 1374.45  12
   3   3   4 13883.0 1428.55  12
   3   3   4 15137.3 1394.02   5
   3  -3   4 14771.4 1395.09   5
  -3  -3  -4 17679.3 1501.96  11
  -3  -3  -4 17411.2 1670.27  10
  -3   3  -5 2071.39 549.563   8
   3   3   5 1709.29 616.127  12
   3  -3   5 1809.63 580.755  12
  -3  -3  -5 2554.80 627.739  11
  -3  -3  -5 1947.05 539.025  10
   3   3   5 1223.32 516.249   5
   3  -3   5 1635.18 552.707   5
   3  -3   6 2533.04 719.812  12
  -3  -3  -6 1998.64 695.222  11
  -3  -3  -6 1086.13 539.773  10
   3   3   6 2208.72 650.470   5
   3  -3   6 1366.53 540.583   5
   3   4  -8 1841.10 496.073  14
  -3  -4   8 3250.44 788.883   5
  -3   4   7 7533.17 1240.06   5
  -3  -4   7 6727.76 1195.70   5
   3   4  -7 3005.09 606.619  14
  -3  -4   7 6699.40 1226.75   7
   3  -4  -6 6159.69 1019.17   9
  -3  -4   6 6394.27 1047.95   5
   3   4  -6 4132.68 653.728  14
  -3   4   6 5810.44 813.854   7
  -3   4   6 7002.28 1045.62   5
  -3  -4   6 5570.56 1050.13   7
   3  -4  -5 101640. 3774.45   9
   3   4  -5 111505. 2399.23   9
   3  -4  -5 103271. 3717.15   6
   3   4  -5 111894. 3978.60   6
   3   4  -5 95861.5 2824.19  14
  -3   4   5 102738. 2482.11  12
  -3   4   5 102057. 3081.53   7
  -3  -4   5 92713.8 3841.74   7
   3   4  -4 287.864 241.459   2
   3  -4  -4 652.165 458.579   9
  -3   4   4 434.440 226.237   3
   3   4  -4 466.805 234.283   6
   3  -4  -4 307.665 256.288   6
  -3   4   4 876.526 459.753   8
  -3   4   4 414.589 187.529  12
   3   4  -4 681.409 145.792  11
  -3   4   4 803.367 294.994   7
  -3  -4   4 613.833 384.716   7
   3   4  -3 3503.62 546.040   2
   3  -4  -3 2501.93 624.255   9
  -3   4   3 3567.29 555.286   3
   3   4  -3 3019.85 603.617   6
   3  -4  -3 2610.20 574.412   6
  -3   4   3 3399.87 575.378   8
  -3   4   3 3125.82 508.343  13
  -3   4   3 3377.05 530.084   7
  -3  -4   3 2807.97 631.239   7
  -3  -4   2 39121.0 1317.45   3
   3   4  -2 40442.2 1829.63   6
   3  -4  -2 37531.7 1748.20   6
   3  -4  -2 38999.6 2048.79   9
  -3   4   2 37566.5 2028.55   8
   3   4  -2 37310.9 705.261  13
  -3   4   2 41368.6 1677.84  13
   3   4  -2 40999.5 1761.44   2
  -3   4   2 36709.1 1312.97  12
  -3   4   2 37128.2 1674.06   7
  -3  -4   2 36751.5 1951.99   7
   3  -4  -1 80418.6 2834.43   9
  -3   4   1 79316.2 2975.60   8
  -3   4   1 81749.5 2611.64   7
   3   4  -1 86763.6 2431.67   2
  -3   4   1 88622.2 2168.79  13
  -3  -4   1 79757.8 2735.17   7
   3   4  -1 84824.1 2503.69   6
   3  -4  -1 80119.5 2456.83   6
   3  -4   0 18898.1 1323.98   9
   3   4   0 21329.8 1021.62   3
  -3   4   0 19472.0 1497.72   8
  -3   4   0 19539.2 1388.39   7
   3   4   0 20336.4 1163.40   2
  -3  -4   0 19311.4 1339.65   7
   3   4   0 20521.4 1245.63   6
   3  -4   0 19416.0 1243.95   6
   3  -4   1 77535.7 2599.14   9
  -3   4  -1 80486.5 3074.68   8
   3   4   1 86562.1 2350.41   2
  -3  -4  -1 81437.6 2774.49   7
   3   4   1 85388.5 3166.39  12
  -3  -4  -1 80245.0 2326.00  11
   3   4   1 83470.3 2542.26   6
   3  -4   1 80921.8 2587.72   6
   3   4   1 80882.9 2290.49   3
  -3  -4  -1 77837.3 2552.14  10
  -3   4  -2 17.5370 104.506  10
  -3  -4  -2 508.402 305.612  10
   3   4   2 102.875 232.968   5
   3  -4   2 310.175 225.210   5
   3   4   2 565.984 228.164   2
   3  -4   2-20.3993 205.667   9
  -3   4  -2 695.297 301.584   8
  -3   4  -2 214.390 239.981   1
   3  -4   2 794.905 326.329  12
   3   4   2 186.765 329.478  12
  -3  -4  -2 75.3619 301.214   7
  -3  -4  -2 288.863 153.579  11
   3  -4   3 61861.9 2214.24   9
  -3   4  -3 66456.7 2465.14   1
  -3   4  -3 66111.1 2899.78   8
   3   4   3 66193.8 1968.75   2
   3  -4   3 64761.9 2776.52  12
   3   4   3 62459.9 2999.24  12
   3   4   3 65821.1 2560.82   5
   3  -4   3 64432.2 2619.59   5
  -3  -4  -3 67828.0 2733.62  11
  -3  -4  -3 65100.5 2942.82  10
   3   4   4 2715.43 622.973   5
   3  -4   4 2422.94 725.267   5
  -3   4  -4 3948.99 769.892   8
   3  -4   4 1801.38 624.671  12
   3   4   4 2204.32 703.070  12
  -3  -4  -4 4748.98 875.949  11
  -3  -4  -4 4951.14 982.379  10
  -3   4  -5 7761.83 1101.56   8
   3  -4   5 7199.53 1120.80  12
   3   4   5 8450.01 1109.51   5
   3  -4   5 8114.06 1103.71   5
   3   4   5 6644.38 1097.15  12
  -3  -4  -5 8502.55 1204.23  11
  -3  -4  -5 9176.76 1364.58  10
   3   4   6 9992.62 1338.29   5
   3  -4   6 8258.48 1206.28   5
  -3  -4  -6 10390.1 1480.21  11
  -3   5   8 1560.78 583.823   5
  -3  -5   8 2680.98 714.492   5
   3   5  -7 526.344 348.194  14
  -3   5   7 837.494 611.964   5
  -3  -5   7-586.112 436.030   5
  -3  -5   7 666.050 521.550   7
   3  -5  -6 4720.15 1011.14   9
   3   5  -6 5847.80 794.273  14
  -3   5   6 5098.73 856.588   1
  -3   5   6 4844.43 750.168   8
  -3   5   6 5784.71 961.755   5
  -3  -5   6 4767.76 919.263   5
  -3   5   6 6006.94 988.983   3
  -3  -5   6 5534.13 1085.32   7
  -3   5   5 16782.0 1506.83   1
   3  -5  -5 17028.1 1639.84   9
   3   5  -5 17265.7 943.235   9
   3  -5  -5 16842.9 1523.48   6
   3   5  -5 17850.3 1610.61   6
  -3   5   5 14744.3 1306.32   8
   3   5  -5 19202.0 1379.82   2
  -3  -5   5 14994.9 1571.29   7
  -3   5   5 15957.7 1458.38   3
   3  -5  -4 48691.7 2652.52   9
   3   5  -4 51911.4 2500.22   6
   3  -5  -4 46907.3 2345.66   6
  -3   5   4 44507.6 2282.19   8
   3   5  -4 52627.2 2222.76   2
  -3   5   4 47192.0 1835.73   7
  -3   5   4 42004.9 1767.69  12
  -3  -5   4 45906.7 2609.57   7
  -3   5   4 48856.7 2337.16   3
   3  -5  -3 701.861 410.125   9
   3   5  -3 356.631 257.080   2
   3   5  -3 117.235 250.295   6
   3  -5  -3 283.464 272.918   6
  -3   5   3 682.804 308.022   3
  -3   5   3 82.8115 290.138  13
  -3   5   3 1007.04 487.462   8
  -3   5   3 158.745 190.386   7
  -3  -5   3 483.456 427.539   7
   3  -5  -2 2065.07 532.813   9
   3   5  -2 2907.46 500.956   2
   3   5  -2 2388.77 472.363   6
   3  -5  -2 1897.90 439.239   6
  -3   5   2 3107.69 651.289   8
   3   5  -2 2817.19 270.670  13
  -3   5   2 2059.77 428.891  13
  -3   5   2 2037.88 399.610   7
  -3  -5   2 2147.73 531.625   7
   3   5  -1 6900.63 711.038   6
   3  -5  -1 5333.71 669.374   6
   3  -5  -1 5840.13 839.256   9
  -3   5   1 6344.44 906.540   8
  -3   5   1 5732.55 655.511  13
  -3   5   1 5852.98 741.742   7
   3   5  -1 6895.22 746.199   2
  -3  -5   1 5873.87 774.861   7
   3   5  -1 5955.12 346.700  11
   3  -5   0 4446.91 693.306   9
  -3   5   0 4730.66 807.825   1
  -3  -5   0 5760.98 730.264   7
   3   5   0 5582.79 666.302   2
   3   5   0 5432.53 433.082  11
  -3   5   0 4854.75 486.965  10
  -3  -5   0 4708.22 618.461  10
  -3   5   0 3746.84 729.399   8
   3   5   0 5629.38 671.435   6
   3  -5   0 5728.29 687.836   6
   3   5   1 24208.0 1323.20   3
   3  -5   1 20686.8 1447.49   9
   3  -5   1 21174.2 1793.28   4
  -3   5  -1 20792.9 1673.54   8
  -3   5  -1 23374.1 1695.50   1
  -3  -5  -1 23756.9 1493.79   7
   3   5   1 24712.4 1341.29   2
   3   5   1 23422.2 1795.80  12
   3   5   1 26034.7 1440.92   6
   3  -5   1 21833.2 1355.27   6
  -3  -5  -1 21684.3 1465.30  10
   3  -5   2 8099.78 896.695   9
  -3   5  -2 8997.43 1025.36   1
  -3   5  -2 8828.84 1119.62   8
  -3  -5  -2 9314.77 1009.03   7
   3   5   2 9231.88 812.206   2
   3   5   2 8104.65 1121.46  12
  -3  -5  -2 8596.80 914.390  11
   3   5   2 9146.59 921.576   5
   3  -5   2 8893.54 920.675   5
   3   5   2 7563.09 882.166   3
  -3  -5  -2 8600.58 1017.50  10
   3   5   3-296.713 256.423   5
   3  -5   3-76.1530 212.522   5
   3   5   3 303.279 194.566   2
  -3   5  -3 508.267 324.945   1
  -3   5  -3 50.8387 302.326   8
   3   5   3 221.611 365.364  12
  -3  -5  -3-88.9480 251.353  11
  -3  -5  -3 392.720 352.025  10
   3   5   4 1292.66 429.723   5
   3  -5   4 1531.40 520.488   5
  -3   5  -4 881.450 378.043   8
   3  -5   4 1442.43 560.995  12
   3   5   4 1414.84 660.263  12
  -3  -5  -4 1447.89 490.703  11
  -3  -5  -4 1273.45 525.715  10
   3   5   5 495.975 353.865   5
   3  -5   5 69.4923 247.248   5
  -3   5  -5 206.373 254.422   8
   3  -5   5-152.636 304.234  12
   3   5   5-167.618 401.682  12
  -3  -5  -5-47.5921 382.859  11
  -3  -5  -5 318.696 395.822  10
  -3   6   8 4060.92 908.897   5
  -3   6   7 3891.80 850.519   3
   3   6  -7 3770.42 726.194  14
  -3   6   7 4628.88 945.150   5
  -3  -6   7 3410.02 806.060   5
  -3  -6   7 3995.86 1054.05   7
  -3   6   6 223.170 301.338   3
   3   6  -6 1354.36 478.775  14
  -3   6   6 483.456 281.784   1
  -3   6   6 616.819 274.593   5
  -3  -6   6 786.386 381.417   5
  -3  -6   6 554.202 453.743   7
   3   6  -6 419.199 209.390   2
   3   6  -5 3192.37 605.503   2
   3  -6  -5 2983.15 867.233   9
  -3   6   5 3122.79 666.050   3
  -3   6   5 2215.78 531.182   8
  -3   6   5 2804.07 602.595   5
  -3  -6   5 2927.13 656.728   5
  -3  -6   5 2926.32 794.836   7
  -3   6   5 2493.38 680.558   1
  -3   6   4 134.724 272.538   1
   3  -6  -4-359.131 410.139   9
   3   6  -4 162.331 227.370   2
  -3   6   4 204.103 231.617   3
   3  -6  -4 134.551 255.273   6
   3   6  -4 622.105 404.750   6
  -3   6   4 338.746 287.535   8
  -3  -6   4 705.412 425.299   7
   3  -6  -3 32051.5 2325.27   9
   3   6  -3 38118.5 2040.72   6
   3  -6  -3 36087.8 1932.27   6
  -3   6   3 35828.9 2024.57   3
  -3   6   3 37477.0 2200.58   8
  -3   6   3 35579.1 1966.33  13
   3   6  -3 33956.6 1836.75   2
  -3   6   3 34200.7 2235.12   1
  -3  -6   3 33330.9 2224.94   7
   3  -6  -2 17674.5 1704.54   9
   3   6  -2 23421.2 1420.34   6
   3  -6  -2 21208.8 1325.15   6
  -3   6   2 21615.0 1686.14   8
   3   6  -2 22883.4 867.984  13
  -3   6   2 22249.5 1402.44  13
  -3   6   2 20585.2 1213.12   7
  -3   6   2 20157.4 1711.05   1
   3   6  -2 23379.1 1479.36   2
  -3  -6   2 21832.0 1599.24   7
  -3  -6   1 412.393 137.003  10
  -3   6   1 1407.27 509.632   1
   3  -6  -1 1536.77 497.096   9
   3   6  -1 1785.76 404.105   6
   3  -6  -1 1894.44 418.874   6
   3   6  -1 2619.57 499.459   2
  -3   6   1 2248.41 451.875  13
  -3   6   1 2140.99 512.769   8
  -3  -6   1 1841.59 447.571   7
   3  -6   0 7806.48 998.516   9
  -3   6   0 9311.72 1161.24   8
  -3   6   0 7881.80 1046.71   1
  -3  -6   0 8530.99 915.647   7
   3   6   0 9591.21 928.360   2
   3  -6   0 6615.13 1148.80   4
  -3  -6   0 6893.46 784.745  10
   3   6   0 9784.61 855.022   6
   3  -6   0 8914.78 850.488   6
  -3  -6  -1 580.177 287.340  10
   3  -6   1 2396.53 1013.58   9
   3   6   1 770.829 374.989   6
   3  -6   1 707.639 446.298   6
   3   6   1 924.004 430.027   2
   3   6   1 713.534 522.018   3
   3  -6   1 1188.78 1323.47   4
  -3   6  -1 798.886 556.295   8
  -3  -6  -1 546.027 332.463   7
  -3   6  -1 698.868 379.689   1
   3   6   2 2875.80 539.951   6
   3  -6   2 2679.87 535.226   6
   3  -6   2 2172.00 506.409   9
   3   6   2 2185.99 430.453   2
   3   6   2 2229.38 460.157   3
  -3   6  -2 1914.99 507.843   1
   3   6   2 2770.57 731.168  12
  -3  -6  -2 2498.79 497.659   7
  -3   6  -2 3347.38 756.475   8
   3  -6   2 1656.07 592.169   4
  -3  -6  -2 1453.84 469.009  10
   3   6   3 1828.55 457.151   5
   3  -6   3 2161.82 534.520   5
   3   6   3 2126.01 535.090   3
   3   6   3 1804.00 393.416   2
  -3   6  -3 2153.07 645.102   8
   3   6   3 2733.66 745.281  12
  -3  -6  -3 2317.16 588.254  11
   3  -6   3 2305.20 732.255   4
  -3  -6  -3 2447.75 712.137  10
   3   6   4 2977.43 710.395   5
   3  -6   4 2980.44 725.580   5
  -3   6  -4 4746.21 925.742   8
   3   6   4 2128.82 795.507  12
  -3  -6  -4 4502.17 883.732  11
   3   6   4 654.130 266.109   3
  -3  -6  -4 5363.30 1049.18  10
   3   6   5 1460.47 498.088   5
   3  -6   5 913.272 426.939   5
  -3   6  -5 1034.78 520.666   8
  -3  -6  -5 1570.72 567.698  11
  -3  -7   7 1249.08 527.636   4
   3   7  -6 3971.82 734.308   2
  -3   7   6 3109.75 775.034   3
  -3   7   6 3870.17 825.291   1
  -3  -7   6 3530.94 907.818   7
  -3   7   5 9756.35 1256.38   3
  -3   7   5 8585.81 1223.59   1
  -3   7   5 7567.48 1005.02   8
   3   7  -5 9668.21 1102.49   2
  -3  -7   5 8678.84 1285.25   7
   3  -7  -4 1168.69 537.059   9
   3   7  -4 1781.34 467.685   2
  -3   7   4 1260.83 471.789   1
  -3   7   4 1174.30 470.674   3
  -3   7   4 1290.59 446.578   8
  -3  -7   4 1450.99 595.870   7
  -3   7   4 804.984 311.533  13
   3  -7  -3 304.406 297.224   9
   3   7  -3 410.703 289.432   2
  -3   7   3 4.83538 211.560   1
  -3   7   3-297.784 349.939  13
  -3   7   3-193.715 250.358   8
  -3  -7   3-44.7956 208.982   7
   3  -7  -2 12477.2 1541.36   9
  -3   7   2 14089.4 1486.69   1
  -3   7   2 16026.3 1501.53   8
  -3   7   2 16508.1 1289.29  13
   3   7  -2 16702.7 1332.70   2
  -3  -7   2 13322.1 1300.92   7
  -3  -7   1-158.636 239.598  10
  -3   7   1 605.984 322.751   8
  -3   7   1 205.156 244.971   1
   3  -7  -1 483.216 403.822   9
   3   7  -1 766.296 288.556   2
   3  -7  -1 785.238 509.286   4
  -3  -7   1 706.098 339.164   7
  -3  -7   0 2382.65 529.004  10
   3  -7   0 2829.55 693.806   9
   3   7   0 3746.37 646.419   2
  -3   7   0 3804.70 951.314   8
  -3   7   0 3329.51 873.694   1
   3  -7   0 2634.13 806.102   4
  -3  -7   0 4033.31 641.494   7
   3  -7   1 16906.0 1499.48   9
   3   7   1 20947.8 1436.15   3
  -3   7  -1 18271.0 1697.31   8
   3  -7   1 16594.3 1818.66   4
   3   7   1 21063.5 1408.86   2
  -3  -7  -1 17704.7 1521.21  10
  -3   7  -1 20416.9 1725.74   1
   3  -7   2 3271.50 660.874   9
   3   7   2 3846.42 648.858   2
   3   7   2 3491.09 670.381   3
  -3   7  -2 4377.27 826.021   1
  -3   7  -2 3162.38 802.315   8
   3   7   2 3058.95 839.189  12
   3  -7   2 2842.31 854.755   4
  -3  -7  -2 3037.45 735.195  10
  -3   7  -3-509.812 400.706   8
   3   7   3 181.152 156.436   2
   3   7   3 448.181 297.405   3
   3   7   3 316.401 294.866  12
   3  -7   3 626.522 459.360   4
  -3  -7  -3-388.760 363.798  10
   3   7   4 2612.96 669.843   3
  -3   7  -4 6452.37 1154.87   8
   3   7   4 3839.56 985.656  12
   3  -7   4 3410.81 962.286   4
  -3  -7  -4 4864.39 1045.33  10
   3   7   5-14.8722 335.403   3
   3   8  -6 1652.91 518.920   2
  -3   8   6 1609.77 669.446   1
  -3  -8   6 2281.95 772.949   7
   3   8  -5 2708.00 683.037   2
  -3   8   5 2335.52 659.276   3
  -3   8   5 2550.85 754.844   1
  -3  -8   5 1971.74 659.960   7
   3   8  -4 0.94169 228.873   2
  -3   8   4 252.457 297.139   3
  -3   8   4 175.332 267.938   8
  -3   8   4-77.2299 267.198   1
  -3   8   4 181.806 279.592  13
  -3  -8   4-59.0594 312.808   7
   3  -8  -3 7684.78 1324.91   9
  -3   8   3 9856.71 1366.17   1
  -3   8   3 8125.09 1124.67   8
  -3   8   3 9543.46 1153.08  13
   3   8  -3 8492.46 1054.44   2
  -3  -8   3 8814.23 1223.03   7
   3  -8  -2 7777.87 1219.88   9
  -3   8   2 6268.66 1075.60   1
  -3   8   2 5303.08 912.515   8
  -3   8   2 6079.60 844.410  13
   3   8  -2 7445.46 936.432   2
   3  -8  -2 4853.45 1039.81   4
  -3  -8   2 5521.10 834.594   7
  -3  -8   2 5720.26 746.167  10
  -3  -8   1 265.983 242.258  10
   3  -8  -1 470.082 388.504   9
   3   8  -1 556.297 323.240   2
  -3   8   1 159.878 332.277   1
  -3   8   1 257.366 305.622   8
  -3   8   1 353.544 322.046  13
   3  -8  -1 144.640 455.945   4
  -3  -8   0 3917.11 720.744  10
   3  -8   0 2453.94 652.670   9
  -3   8   0 4714.53 960.735   1
   3   8   0 4315.33 721.031   2
  -3   8   0 4319.73 846.586   8
   3  -8   0 1714.22 713.380   4
   3  -8   1 2038.81 1002.23   9
   3   8   1 1504.79 461.141   2
  -3   8  -1 1400.58 482.436   8
  -3   8  -1 2226.68 657.360   1
   3  -8   1 2303.51 819.778   4
  -3  -8  -1 2434.47 1001.04  10
  -3  -8  -2 1769.40 669.772   4
   3   8   2 1168.57 368.310   2
   3   8   2 1447.58 478.299   3
  -3   8  -2 1057.44 414.148   8
   3   8   2 897.547 609.207  12
   3  -8   2 1017.25 599.934   4
  -3  -8  -2 559.304 415.298  10
   3   8   3 794.035 428.632   3
  -3   8  -3 1346.17 543.530   8
   3   8   3 893.689 496.537  12
   3  -8   3 682.639 507.338   4
  -3  -8  -3 2009.64 660.273  10
   3   8   4 386.020 383.510   3
   3  -8   4 1853.25 803.213   4
  -3  -9   5 8134.24 1346.95   7
   3   9  -4 21555.0 1760.59   2
  -3  -9   4 18411.7 1853.48   7
  -3   9   4 21670.4 2084.07   1
  -3   9   3 112.869 428.132   1
   3   9  -3 219.598 320.701   2
  -3   9   3 123.601 313.988   8
  -3   9   3-276.243 310.447  13
  -3   9   2 1292.02 525.544   1
   3   9  -2 1845.66 514.878   2
  -3   9   2 1216.58 502.954   8
  -3   9   2 2392.23 623.169  13
   3  -9  -2 472.895 490.384   4
  -3   9   1 209.378 429.595   1
   3   9  -1 375.287 252.194   2
  -3   9   1 356.969 339.717   8
  -3   9   1 782.151 455.171  13
   3  -9  -1 1.70189 466.248   4
  -3  -9   1-184.490 187.109  10
  -3   9   0 11044.9 1414.84   8
   3  -9   0 9992.67 1604.39   4
   3   9   0 12487.9 1270.41   2
  -3  -9   0 10748.9 1236.50  10
  -3   9  -1 8357.16 1303.78   8
  -3  -9  -1 6487.32 1105.10   4
   3   9   1 8053.39 1003.71   2
   3  -9   1 5534.50 1220.22   4
  -3  -9  -1 6908.84 1070.47  10
   3   9   2 3392.10 655.619   2
   3  -9   2 3412.17 1004.08   4
  -3  -9  -2 3256.76 723.249  10
   3   9   3 652.908 404.705   3
  -3  10   3 9454.23 1315.19   8
  -3  10   2 1109.22 457.613   8
   3 -10  -2 2022.06 715.641   4
  -3 -10   1 14637.8 1828.30   4
  -3  10   1 13222.6 1619.71   8
  -3 -10   0 268.336 344.435   4
  -3 -10  -1 18747.9 2031.75   4
  -3 -10  -1 19152.4 1911.87  10
   4   0  -8 1081.16 553.809  14
  -4   0   8 547.304 566.925   5
  -4   0   8-139.860 286.202   7
   4   0  -7 555.138 307.451   9
   4   0  -7 566.835 435.651   6
   4   0  -7 455.876 310.369  14
  -4   0   7 118.734 284.186   7
   4   0  -6 84780.0 3134.13   9
   4   0  -6 84655.1 3898.81   6
   4   0  -6 82619.6 3458.19  14
  -4   0   6 81815.7 3663.59   7
   4   0  -5 71958.1 2718.11   9
   4   0  -5 66942.0 3164.09   6
   4   0  -5 67680.9 2826.42  14
  -4   0   5 74195.1 1678.67  13
  -4   0   5 70160.4 3211.20   7
   4   0  -4 15103.0 1507.44   6
   4   0  -4 13744.4 1206.28   9
   4   0  -4 13745.2 1202.16  14
  -4   0   4 14408.8 580.609  13
  -4   0   4 16183.9 1567.86   7
   4   0  -3 53615.7 2467.20   6
   4   0  -3 53790.7 2124.84   9
   4   0  -3 53429.8 2097.21  14
  -4   0   3 55684.7 2617.85   7
  -4   0   3 56337.3 1647.67  11
  -4   0   3 53905.8 1074.32   3
   4   0  -2 41938.7 2113.23   6
   4   0  -2 38489.6 1717.87   9
   4   0  -2 36142.8 1602.89  14
   4   0  -2 36431.0 817.378  12
  -4   0   2 40036.8 2154.87   7
   4   0  -1 23325.0 1281.04   9
   4   0  -1 21935.9 1135.74  14
   4   0  -1 22786.7 974.374  12
  -4   0   1 24561.9 1918.14   7
   4   0  -1 23021.1 1543.54   6
   4   0   0 22591.9 1267.86   9
   4   0   0 19918.7 959.146  14
  -4   0   0 19151.0 1578.99   7
   4   0   0 22509.3 1177.84  12
   4   0   0 19610.1 1500.29   6
   4   0   1 26801.8 1330.41   9
  -4   0  -1 25870.8 1639.54   8
  -4   0  -1 25328.8 1826.72   7
   4   0   1 24735.2 1406.60  12
   4   0   1 25241.0 1682.77   6
   4   0   2 86406.3 2425.72   9
  -4   0  -2 84367.1 2900.68   8
  -4   0  -2 82673.2 3538.46   7
   4   0   2 79444.3 2805.05  12
   4   0   2 85220.1 3153.70   5
  -4   0  -2 80496.6 2595.13  10
  -4   0  -3 1243.67 383.842  10
   4   0   3 1205.36 502.833   5
   4   0   3 1285.76 366.817   9
  -4   0  -3 1936.28 464.039   8
   4   0   3 1005.60 407.095  12
  -4   0  -3 1763.18 425.204  11
   4   0   4 2975.84 704.278   5
   4   0   4 4129.14 580.096   9
   4   0   4 2562.88 615.666  12
  -4   0  -4 3852.95 658.458  11
  -4   0  -4 3786.46 747.667  10
   4   0   5 4347.52 881.755   5
   4   0   5 4669.03 910.913  12
  -4   0  -5 4289.64 795.124  11
  -4   0  -5 3596.97 780.885  10
  -4   1   9 1888.16 690.314   7
  -4   1   8 10366.6 1561.96   5
  -4  -1   8 10328.9 1571.63   5
   4   1  -8 13313.0 1643.52  14
   4  -1  -8 11458.7 1563.13  14
  -4   1   8 10514.0 1443.88   7
  -4  -1   8 10172.0 1542.22   7
   4  -1  -7 8211.44 1534.80   6
   4   1  -7 8801.64 1584.10   6
   4  -1  -7 3061.62 839.042   9
   4   1  -7 1727.00 569.753  14
   4  -1  -7 3216.57 879.425  14
  -4   1   7 2072.18 676.631   7
  -4  -1   7 1708.33 644.509   7
   4   1  -6 4667.38 719.204   9
   4  -1  -6 4323.49 767.555   9
   4   1  -6 4647.18 975.188   6
   4  -1  -6 5471.96 1031.51   6
   4   1  -6 4427.93 778.961  14
   4  -1  -6 4407.58 826.673  14
  -4   1   6 3991.81 881.588   7
  -4  -1   6 4254.07 904.815   7
   4  -1  -5 83330.8 3115.98   9
   4   1  -5 78872.5 3437.80   6
   4  -1  -5 76533.6 3386.47   6
   4   1  -5 82371.1 2767.77   9
   4   1  -5 76854.4 2949.04  14
   4  -1  -5 77497.8 3171.41  14
  -4   1   5 74041.1 3244.94   7
  -4  -1   5 74424.0 3434.28   7
   4   1  -4 15068.3 1471.64   6
   4  -1  -4 15336.3 1492.04   6
   4  -1  -4 16164.9 1312.38   9
   4   1  -4 15548.6 1164.07   9
   4   1  -4 13524.0 1139.20  14
   4  -1  -4 13524.8 1261.75  14
  -4   1   4 12433.0 714.032  13
  -4   1   4 16523.3 1525.96   7
  -4  -1   4 14706.6 1492.06   7
   4  -1  -3 505.250 275.708   9
   4   1  -3 437.441 255.880   9
   4   1  -3 659.234 251.379   6
   4  -1  -3 1141.42 405.791   6
  -4   1   3 1044.93 205.673   3
   4   1  -3 835.037 259.192  14
   4  -1  -3 491.132 236.286  14
   4   1  -3 565.303 131.883  12
   4   1  -3 711.650 144.268  12
  -4  -1   3 915.878 164.721  11
  -4   1   3 1552.30 466.373   7
  -4  -1   3 1221.43 441.204   7
   4  -1  -2 110.667 220.056   9
   4   1  -2 265.629 288.719   6
   4   1  -2 627.822 318.337   9
   4  -1  -2 91.8056 281.745   6
   4   1  -2 315.664 151.004  14
   4  -1  -2 577.731 226.193  14
   4   1  -2 356.301 99.4671  13
   4   1  -2 380.420 146.124  12
  -4   1   2 325.664 275.428   7
  -4  -1   2 387.634 286.598   7
   4   1  -1 4854.21 607.173   9
   4   1  -1 4243.12 728.306   6
   4  -1  -1 4006.16 709.692   6
   4  -1  -1 3086.57 508.866   9
   4   1  -1 2754.87 382.831  14
   4  -1  -1 3629.57 520.816  14
   4  -1  -1 3576.48 361.006  12
  -4   1   1 3768.58 451.118  12
   4   1  -1 3312.22 408.990  12
  -4   1   1 2953.34 671.122   7
  -4  -1   1 4096.81 831.011   7
   4  -1   0 66585.8 2211.68   9
  -4   1   0 63847.0 2701.22   8
  -4   1   0 62222.3 1282.60  14
   4   1   0 62217.4 1547.07  14
  -4   1   0 64931.1 2831.61   7
   4  -1   0 63668.8 1886.78  12
  -4  -1   0 67827.0 2858.51   7
   4   1   0 63537.2 2076.62  12
   4   1   0 65656.0 2584.63   6
   4  -1   0 65417.6 2620.28   6
   4   1   1 4739.79 743.272   6
   4  -1   1 3826.15 712.895   6
   4  -1   1 3964.34 540.768   9
  -4   1  -1 3229.04 666.139   8
  -4  -1  -1 3574.32 622.485   8
   4   1   1 4617.16 670.579  12
   4  -1   1 3336.73 515.993  12
  -4   1  -1 3855.64 764.563   7
  -4  -1  -1 4082.77 773.910   7
  -4  -1  -1 4005.71 452.530  11
  -4  -1  -2 898.158 345.570  10
  -4   1  -2 1061.64 347.853  10
   4   1   2 721.124 361.118   5
   4  -1   2 219.967 297.399   5
   4  -1   2 695.971 264.400   9
  -4   1  -2 1009.70 381.431   8
  -4  -1  -2 795.744 317.842   8
   4  -1   2 1345.44 403.566  12
   4   1   2 892.609 382.294  12
  -4   1  -2 1096.17 507.949   7
  -4  -1  -2 999.604 442.865   7
  -4  -1  -2 1076.59 302.254  11
   4   1   3 3334.88 772.008   5
   4  -1   3 4334.03 847.572   5
   4  -1   3 3481.97 571.871   9
  -4   1  -3 7406.47 930.666   8
   4  -1   3 2531.43 635.611  12
   4   1   3 3413.18 732.451  12
  -4  -1  -3 5611.82 726.483  11
  -4   1  -3 5785.29 746.128  10
  -4  -1  -3 5897.59 830.567  10
   4   1   4 4097.11 804.188   5
   4  -1   4 3777.83 745.347   5
   4  -1   4 2991.88 687.136  12
   4   1   4 4106.88 796.540  12
  -4   1  -4 4307.03 711.275  11
  -4  -1  -4 4623.46 739.563  11
  -4   1  -4 4245.04 761.850  10
  -4  -1  -4 4184.03 850.221  10
   4   1   5 5234.99 950.605   5
   4  -1   5 3658.58 809.854   5
   4  -1   5 2819.19 744.433  12
   4   1   5 3135.67 707.896  12
  -4  -1  -5 3695.78 708.472  11
  -4   1  -5 3594.96 700.177  11
  -4  -1  -5 3895.65 822.770  10
  -4  -1  -6 10911.8 1509.45  10
   4   2  -8 6614.67 1153.22  14
   4  -2  -8 6234.97 1131.56  14
  -4   2   8 4982.50 1128.45   5
  -4  -2   8 5165.45 1074.47   5
  -4   2   8 4482.77 931.898   7
  -4  -2   8 4786.46 1028.73   7
   4  -2  -7 4091.50 800.354   9
   4  -2  -7 4132.76 991.832   6
   4   2  -7 5174.85 1075.14   6
   4   2  -7 3914.29 833.518  14
   4  -2  -7 3222.71 805.558  14
  -4   2   7 2618.52 650.169   7
  -4  -2   7 2891.66 849.818   7
   4  -2  -6 18095.4 1587.16   9
   4   2  -6 17747.9 1306.73   9
   4   2  -6 17881.2 1796.68   6
   4  -2  -6 16927.0 1729.20   6
   4   2  -6 16550.4 1487.24  14
   4  -2  -6 16986.6 1640.57  14
  -4   2   6 14937.0 1573.69   7
  -4  -2   6 14469.0 1697.78   7
   4  -2  -5 89048.6 3392.40   9
   4   2  -5 89493.4 3745.21   6
   4  -2  -5 83604.9 3595.25   6
   4   2  -5 90638.4 2757.17   9
   4   2  -5 84682.9 2977.44  14
   4  -2  -5 87192.8 3467.22  14
  -4   2   5 85039.0 3369.79   7
  -4  -2   5 87042.3 3734.04   7
   4   2  -4 72195.3 3261.95   6
   4  -2  -4 71457.0 3199.02   6
   4  -2  -4 80148.5 3058.62   9
   4   2  -4 67061.3 2272.41   9
  -4   2   4 72883.3 2091.55  13
   4   2  -4 65852.8 2401.89  14
   4  -2  -4 64001.8 2847.50  14
  -4   2   4 77515.2 3168.68   7
  -4  -2   4 79428.9 3493.79   7
  -4   2   4 79530.7 2358.52   3
   4   2  -3 31108.4 1935.55   6
   4  -2  -3 31005.0 1917.14   6
   4  -2  -3 33125.5 1885.67   9
  -4   2   3 34355.3 1251.02   3
   4   2  -3 25110.5 1303.15   9
   4   2  -3 34122.1 1537.29  14
   4  -2  -3 32228.7 1864.08  14
  -4   2   3 33974.5 1222.94  13
  -4   2   3 31798.7 1940.66   7
  -4  -2   3 31785.5 2056.60   7
   4  -2  -2 191.194 300.469   9
   4   2  -2-488.960 397.899   6
   4  -2  -2 57.8847 254.882   6
   4   2  -2 477.654 250.970  14
   4  -2  -2-5.65321 249.492  14
   4   2  -2 127.445 65.7402  13
   4   2  -2 95.1281 144.554  12
  -4   2   2 102.614 266.470   7
  -4  -2   2-437.613 284.644   7
   4  -2  -1 39036.6 1881.84   9
  -4   2   1 38292.7 2266.60   8
   4   2  -1 40474.7 1361.65  14
   4  -2  -1 38502.9 1306.37  12
  -4   2   1 36839.5 2114.55   7
  -4  -2   1 38757.3 2155.37   7
  -4   2   1 41131.6 1347.58  12
   4   2  -1 41072.4 1680.56  12
  -4  -2   1 39933.2 933.965  11
   4  -2  -1 35320.8 1256.64   3
   4   2  -1 41244.3 2034.86   6
   4  -2  -1 40704.1 2041.71   6
   4  -2   0 103928. 3004.45   9
  -4   2   0 115761. 3848.10   8
   4   2   0 104321. 1928.71  14
  -4   2   0 109296. 3752.66   7
   4  -2   0 111562. 2589.71  12
  -4  -2   0 107104. 3613.94   7
   4   2   0 109275. 2992.40  12
  -4  -2   0 109561. 2026.51  11
   4   2   0 114461. 3426.46   6
   4  -2   0 112712. 3437.00   6
   4   2   1 2220.63 551.982   6
   4  -2   1 2093.81 571.625   6
   4  -2   1 1375.78 325.068   9
   4   2   1 1749.73 200.316  14
  -4   2  -1 2266.35 590.173   8
   4  -2   1 2618.26 492.981  12
   4   2   1 2226.22 507.548  12
  -4   2  -1 1956.47 618.365   7
  -4  -2  -1 2352.86 596.556   7
  -4  -2  -1 1436.36 274.942  11
   4  -2   2 10346.6 911.938   9
  -4   2  -2 11134.0 1183.04   8
  -4  -2  -2 11573.1 977.538   8
  -4  -2  -2 12120.4 1335.46   7
   4  -2   2 10738.9 1012.60  12
   4   2   2 10993.4 1143.93  12
   4   2   2 9970.26 1165.21   5
   4  -2   2 10311.0 1160.58   5
  -4  -2  -2 11240.7 921.511  11
  -4  -2  -2 10858.3 1079.46  10
  -4   2  -2 11849.6 912.803  10
   4   2   3 4957.64 843.109   5
   4  -2   3 4685.25 836.271   5
   4  -2   3 4869.37 632.008   9
  -4   2  -3 6104.95 901.693   8
   4  -2   3 5333.52 803.792  12
   4   2   3 4412.75 829.253  12
  -4  -2  -3 5427.38 704.760  11
  -4   2  -3 5411.95 692.232  10
  -4  -2  -3 6008.22 862.337  10
   4   2   4 3305.11 738.110   5
   4  -2   4 3131.45 730.140   5
  -4   2  -4 2780.18 657.314   8
   4  -2   4 3333.48 721.594  12
   4   2   4 3511.80 768.378  12
  -4  -2  -4 3659.69 695.117  11
  -4  -2  -4 3690.90 805.267  10
   4   2   5 2322.29 692.885   5
   4  -2   5 2118.97 669.253   5
   4  -2   5 1509.04 549.898  12
   4   2   5 2512.47 727.881  12
  -4  -2  -5 2778.36 692.398  11
  -4   2  -5 3436.27 691.326  11
  -4  -2  -5 2500.57 698.440  10
  -4   3   8 14926.5 1821.76   5
  -4  -3   8 15984.3 1876.29   5
   4   3  -8 13014.0 1576.89  14
   4  -3  -8 16912.5 1984.94  14
  -4  -3   8 13503.0 1871.24   7
   4  -3  -7 38040.2 2547.38   9
   4  -3  -7 32328.1 2614.75   6
   4   3  -7 37688.9 2859.91   6
   4   3  -7 31257.5 2208.07  14
   4  -3  -7 37737.1 2779.49  14
  -4   3   7 33760.2 2309.66   7
  -4  -3   7 32077.6 2613.68   7
   4  -3  -6-428.966 407.037  14
   4  -3  -6 515.948 370.816   9
   4   3  -6 278.316 257.314   9
   4   3  -6-102.930 284.961   6
   4  -3  -6-109.714 357.052   6
   4   3  -6 522.656 376.586  14
  -4   3   6-200.756 250.875   7
  -4  -3   6-268.542 343.738   7
  -4   3   5 3081.16 564.524   3
   4  -3  -5 2672.97 654.212   9
   4   3  -5 4124.46 561.621   9
   4   3  -5 3769.15 758.330   6
   4  -3  -5 3413.71 770.825   6
   4   3  -5 3330.86 624.291  14
   4  -3  -5 2513.99 633.405  14
  -4   3   5 3499.07 704.058   7
  -4  -3   5 3330.54 860.349   7
   4  -3  -4 25312.8 1844.59   9
   4   3  -4 24405.5 1876.60   6
   4  -3  -4 23058.9 1814.29   6
   4   3  -4 17136.9 1117.78   9
   4   3  -4 20193.1 1305.40  14
   4  -3  -4 21877.5 1783.79  14
  -4   3   4 23542.2 1301.17  13
  -4   3   4 27919.0 1816.93   7
  -4  -3   4 26191.3 2054.75   7
  -4   3   4 23533.5 1369.44   3
   4   3  -3 35682.8 2100.10   6
   4  -3  -3 35324.2 2084.87   6
   4  -3  -3 35064.6 2080.93   9
  -4   3   3 38439.1 1492.51   3
   4   3  -3 34529.0 1545.31  14
  -4   3   3 38243.8 1462.24  13
  -4   3   3 32625.5 1925.44   7
  -4  -3   3 33173.0 2112.97   7
   4  -3  -2 358.659 341.013   9
   4   3  -2 452.969 271.295   6
   4  -3  -2 468.306 341.533   6
   4   3  -2 850.320 269.119  14
  -4   3   2-61.6227 301.815   8
  -4   3   2 282.928 114.966  12
  -4   3   2 466.290 356.257   7
  -4  -3   2 506.463 320.165   7
   4  -3  -1 36087.1 1951.10   9
  -4   3   1 38112.9 2339.27   8
   4   3  -1 39836.1 1331.66  14
  -4   3   1 39862.1 2200.24   7
  -4   3   1 37792.5 1354.20  12
  -4  -3   1 38649.6 2204.11   7
   4   3  -1 37721.3 1854.09  12
  -4  -3   1 36980.7 929.669  11
   4   3  -1 42340.7 2089.59   6
   4  -3  -1 40610.9 2063.47   6
   4   3   0 77476.4 1528.95   3
   4  -3   0 76562.5 2755.29   9
  -4   3   0 77323.7 3190.89   8
   4   3   0 82035.5 1686.61  14
   4  -3   0 76406.9 2375.89  12
  -4   3   0 78450.8 3175.89   7
  -4  -3   0 78081.6 3080.91   7
   4   3   0 78876.1 2802.02  12
  -4  -3   0 80952.7 1907.00  11
   4   3   0 81213.1 2891.93   6
   4  -3   0 81044.9 2960.30   6
   4  -3   1 81162.2 2756.70   9
  -4   3  -1 83004.6 3322.07   8
   4   3   1 84429.1 1465.74  14
  -4   3  -1 82359.1 3441.44   7
   4  -3   1 83667.7 2694.02  12
  -4  -3  -1 80703.4 3242.61   7
   4   3   1 78952.7 2979.81  12
  -4  -3  -1 82123.1 2325.45  11
   4   3   1 73084.4 2044.77   3
   4   3   1 85909.1 3015.64   6
   4  -3   1 86369.0 3100.84   6
  -4  -3  -1 81728.2 2713.50  10
   4  -3   2 5389.37 838.249   5
   4  -3   2 6333.16 802.939   9
  -4   3  -2 7291.48 979.689   8
   4  -3   2 6649.29 856.872  12
   4   3   2 6845.66 955.326  12
  -4  -3  -2 6554.32 978.941   7
   4   3   2 6925.68 896.100   5
  -4  -3  -2 6492.98 773.233  11
  -4  -3  -2 7358.96 940.288  10
  -4   3  -2 6605.94 655.729  10
   4  -3   3 14278.0 1155.55   9
  -4   3  -3 16151.4 1497.26   8
  -4  -3  -3 16442.4 1645.29   7
   4  -3   3 13946.4 1373.29  12
   4   3   3 16137.9 1543.31  12
   4   3   3 15495.7 1435.79   5
   4  -3   3 15485.4 1494.91   5
  -4  -3  -3 17139.4 1384.24  11
  -4  -3  -3 15190.3 1467.66  10
   4   3   4 728.521 439.146   5
   4  -3   4 623.033 419.443   5
  -4   3  -4 540.236 327.572   8
   4  -3   4 534.804 323.937  12
   4   3   4 950.406 397.751  12
  -4  -3  -4 1484.63 574.915  11
  -4  -3  -4 1356.11 611.928  10
   4  -3   5 24837.0 2083.87  12
   4   3   5 25421.8 2100.35   5
   4  -3   5 27275.5 2197.96   5
  -4  -3  -5 27064.3 2169.80  11
  -4  -3  -5 27221.4 2347.11  10
   4  -4  -8 15527.6 1802.35   9
  -4   4   8 14322.0 1775.19   5
  -4  -4   8 12715.8 1702.84   5
   4  -4  -7 3666.55 903.508   9
   4   4  -7 2411.45 592.304  14
  -4   4   7 2788.44 788.569   5
  -4  -4   7 3894.06 892.785   5
  -4  -4   7 3912.95 935.015   7
   4  -4  -6 1348.29 599.822   9
  -4   4   6 714.570 236.526   3
   4   4  -6 1694.47 693.089   6
   4  -4  -6 816.674 534.197   6
   4   4  -6 1007.05 401.240  14
  -4   4   6 629.999 333.618   7
  -4  -4   6 911.635 534.754   7
   4  -4  -5 61534.2 3137.19   9
   4   4  -5 64033.5 3224.66   6
   4  -4  -5 62703.7 3131.36   6
   4   4  -5 67029.2 2220.01   9
   4   4  -5 62721.1 2529.22  14
  -4   4   5 64520.2 2756.40   7
  -4  -4   5 62095.3 3328.51   7
  -4   4   5 64211.8 2680.53   3
  -4   4   4 101936. 3026.32   3
   4  -4  -4 95286.8 3749.24   9
   4   4  -4 97410.2 3769.62   6
   4  -4  -4 104474. 3795.68   6
   4   4  -4 76954.7 2332.21   9
  -4   4   4 98089.8 3739.11   8
   4   4  -4 84939.0 2625.90  14
  -4   4   4 82613.0 2705.24  13
  -4   4   4 104942. 3424.49   7
  -4  -4   4 98348.6 4047.08   7
   4   4  -3 20462.9 1584.04   6
   4  -4  -3 17451.3 1488.34   6
   4  -4  -3 17315.5 1570.65   9
  -4   4   3 17531.4 1592.23   8
   4   4  -3 20290.2 1175.90  14
  -4   4   3 18780.9 1142.84  13
  -4   4   3 17004.0 1371.60   7
  -4  -4   3 16313.9 1526.97   7
   4   4  -2 14910.9 1297.46   6
   4  -4  -2 13628.8 1283.39   6
   4  -4  -2 13214.9 1325.37   9
  -4   4   2 11442.0 1267.44   8
  -4   4   2 12426.7 1168.87   7
  -4  -4   2 12925.9 1316.19   7
   4  -4  -1 20842.9 1587.26   9
  -4   4   1 22747.1 1800.86   8
   4   4  -1 23152.9 1412.98   2
  -4   4   1 21514.1 1617.57   7
  -4  -4   1 22660.1 1694.17   7
   4   4  -1 23293.2 1566.93   6
   4  -4  -1 21691.4 1535.14   6
   4  -4   0 140589. 4036.87   9
  -4   4   0 138304. 4435.22   8
  -4  -4   0 139968. 4162.72   7
   4   4   0 149168. 4213.36  12
  -4  -4   0 150838. 2774.31  11
  -4   4   0 142906. 4327.27   7
   4   4   0 150756. 3967.50   6
   4  -4   0 151519. 4056.65   6
  -4  -4  -1 533.190 288.362  10
   4   4   1 106.207 229.552   6
   4  -4   1-17.3700 333.050   6
   4  -4   1 135.571 177.658   9
   4   4   1 311.858 166.344   3
  -4   4  -1 10.4452 325.147   8
   4   4   1 22.2743 272.556  12
  -4  -4  -1 206.885 240.051   7
  -4  -4  -1-8.35834 148.948  11
  -4  -4  -2-487.973 324.530  10
   4  -4   2 213.286 261.736   9
  -4   4  -2 297.639 302.633   8
   4  -4   2-235.465 232.698  12
   4   4   2 401.140 377.197  12
  -4  -4  -2 519.913 347.715   7
  -4   4  -2-23.2800 251.502   1
  -4  -4  -2 10.6821 160.723  11
   4   4   2-254.471 222.999   6
   4  -4   2-49.5047 234.153   6
   4  -4   3 5413.71 905.342   5
  -4   4  -3 5671.68 1004.54   8
  -4  -4  -3 6050.22 1023.52   7
   4  -4   3 5544.60 914.120  12
   4   4   3 4626.19 880.125  12
   4   4   3 6118.13 913.901   5
  -4  -4  -3 5186.37 805.641  11
  -4  -4  -3 5370.92 880.099  10
  -4   4  -4 10588.2 1313.37   8
   4  -4   4 9663.00 1260.99  12
   4   4   4 9669.13 1325.95  12
   4   4   4 8537.15 1161.89   5
   4  -4   4 8486.59 1190.92   5
  -4  -4  -4 9606.49 1217.06  11
  -4  -4  -4 9747.53 1377.81  10
   4   4   5 1397.23 494.926   5
   4  -4   5 1630.60 543.166   5
  -4  -4  -5 1549.47 568.439  11
   4  -5  -7 11383.1 1621.53   9
  -4   5   7 6619.22 1017.06   1
  -4   5   7 9084.69 1316.00   5
   4   5  -7 7639.41 1070.98  14
  -4  -5   7 6151.04 1103.80   5
  -4   5   7 9196.54 1268.57   3
  -4  -5   7 7924.61 1407.48   7
   4  -5  -6 988.976 518.481   9
  -4   5   6 432.248 382.731   3
   4  -5  -6 190.882 387.256   6
   4   5  -6 193.903 470.546   6
   4   5  -6 507.139 377.560  14
  -4   5   6 192.281 224.391   8
  -4  -5   6 881.303 536.602   7
   4  -5  -5 16007.5 1681.95   9
   4   5  -5 16388.0 1654.87   6
   4  -5  -5 13378.4 1473.17   6
   4   5  -5 14915.4 1036.32   9
  -4   5   5 11092.9 1253.20   8
   4   5  -5 13840.1 1202.80  14
  -4   5   5 13598.8 1256.08  13
  -4  -5   5 13360.7 1642.98   7
  -4   5   5 13969.1 1335.63   3
   4  -5  -4 9569.83 1294.24   9
  -4   5   4 9949.17 1059.06   3
   4   5  -4 10425.6 1275.04   6
   4  -5  -4 9207.29 1178.36   6
   4   5  -4 8808.69 1027.03   2
  -4   5   4 10288.5 1289.37   8
   4   5  -4 10957.7 989.901  14
  -4   5   4 9837.34 1057.63  13
  -4   5   4 11505.4 1108.77   7
  -4  -5   4 10303.7 1317.03   7
   4   5  -3 4707.44 722.832   2
   4  -5  -3 4252.60 871.431   9
   4   5  -3 5330.69 826.624   6
   4  -5  -3 4329.44 773.208   6
  -4   5   3 5034.29 861.112   8
  -4   5   3 5302.35 681.256  13
  -4   5   3 4594.86 698.597   7
  -4  -5   3 5278.60 928.457   7
   4   5  -2 2712.45 542.433   2
   4  -5  -2 3266.76 745.195   9
   4   5  -2 2449.75 586.933   6
   4  -5  -2 2103.48 527.343   6
  -4   5   2 2534.83 603.591   8
  -4   5   2 3242.02 534.478  13
  -4   5   2 1796.87 427.459   7
  -4  -5   2 2478.82 645.979   7
   4   5  -1 3417.09 600.423   2
   4  -5  -1 2909.00 645.016   9
   4   5  -1 3854.68 657.689   6
   4  -5  -1 2875.91 584.525   6
  -4   5   1 2971.89 710.888   8
  -4   5   1 3429.92 668.175   7
  -4  -5   1 3215.83 685.585   7
   4  -5   0 32700.4 2087.15   9
  -4   5   0 37057.6 2381.48   8
   4   5   0 36595.7 1859.37   2
  -4   5   0 35252.0 2186.11   7
  -4  -5   0 37238.8 2146.45   7
   4   5   0 37300.8 2342.78  12
  -4  -5   0 33435.3 1802.91  10
   4   5   0 41320.9 2081.73   6
   4  -5   0 37528.9 2052.43   6
   4   5   1 23133.9 1315.79   3
   4  -5   1 23649.8 1709.68   9
  -4   5  -1 24482.5 1990.51   8
   4   5   1 25363.3 1511.11   2
  -4  -5  -1 25880.9 1835.13   7
   4   5   1 25492.6 1985.19  12
  -4   5  -1 21679.1 1782.04   1
  -4  -5  -1 24450.3 1703.00  10
   4   5   1 26847.5 1743.85   6
   4  -5   1 23352.9 1671.74   6
  -4  -5  -2 1567.63 468.942  10
   4   5   2 1547.11 493.002   6
   4  -5   2 625.633 358.654   6
   4  -5   2 1536.42 494.333   9
   4   5   2 1152.40 328.541   3
  -4   5  -2 1490.40 570.092   8
   4   5   2 1132.27 512.742  12
  -4  -5  -2 1461.42 514.434   7
  -4  -5  -2 2063.08 508.075  11
  -4   5  -2 1618.57 550.466   1
   4   5   3 958.834 383.703   5
   4  -5   3 205.182 260.808   5
  -4   5  -3 898.512 557.215   8
   4   5   3 343.722 353.382  12
  -4  -5  -3 1590.21 500.255  11
  -4  -5  -3 247.116 367.606  10
   4   5   4 395.212 369.391   5
   4  -5   4 772.517 385.026   5
  -4   5  -4 682.621 417.093   8
   4  -5   4 360.502 369.797  12
   4   5   4-211.181 416.063  12
  -4  -5  -4 833.324 445.582  11
  -4  -5  -4 1717.63 644.754  10
  -4   5  -5 8223.00 1272.29   8
  -4  -5  -5 9465.51 1378.56  11
  -4   6   7-183.991 293.765   1
   4  -6  -7 946.682 521.934   9
  -4   6   7 125.492 242.512   3
  -4   6   7-168.091 327.089   5
  -4  -6   7-346.480 435.307   5
   4  -6  -6 26881.4 2387.48   9
   4  -6  -6 24972.8 2135.65   6
   4   6  -6 26955.7 2251.40   6
  -4   6   6 24857.7 2023.91   5
  -4  -6   6 21215.4 1928.24   5
  -4   6   6 22629.7 1857.02   8
   4   6  -6 26834.4 1865.44  14
  -4  -6   6 23260.4 2274.59   7
  -4   6   6 22408.7 2003.75   1
  -4   6   6 26563.4 2045.01   3
   4  -6  -5 23000.0 2133.39   9
  -4   6   5 26433.6 1922.88   3
   4   6  -5 25941.0 2072.21   6
   4  -6  -5 22828.3 1894.25   6
  -4   6   5 21242.1 1824.17   8
   4   6  -5 26468.9 1836.26   2
   4   6  -5 25945.5 1646.50  14
  -4   6   5 26446.3 1868.35  13
  -4  -6   5 23119.6 2165.32   7
  -4   6   5 19905.2 1847.21   1
   4   6  -4 196.650 261.810   2
   4  -6  -4 412.656 340.968   9
   4   6  -4 984.199 466.673   6
   4  -6  -4 298.368 319.766   6
  -4   6   4 137.497 308.650   3
  -4   6   4 255.353 259.956   8
  -4   6   4 731.826 381.440  13
  -4  -6   4 238.319 453.214   7
   4  -6  -3 8775.22 1236.62   9
   4   6  -3 10022.7 1120.21   6
   4  -6  -3 7945.02 988.389   6
  -4   6   3 8231.52 1141.41   8
   4   6  -3 9205.79 1026.69   2
  -4   6   3 10381.3 1041.98  13
  -4  -6   3 8886.54 1165.68   7
   4   6  -2 6641.04 908.741   6
   4  -6  -2 6419.30 884.518   6
   4  -6  -2 5997.89 1019.42   9
  -4   6   2 6640.94 1057.05   8
   4   6  -2 7307.94 920.094   2
  -4   6   2 7641.75 859.039  13
  -4   6   2 6234.00 830.471   7
  -4  -6   2 6149.25 969.212   7
   4   6  -1 8257.17 933.044   6
   4  -6  -1 8473.30 1002.17   6
   4  -6  -1 7715.98 1110.24   9
  -4   6   1 9603.26 1309.15   8
   4   6  -1 8072.73 948.164   2
  -4   6   1 7260.35 979.418   7
  -4  -6   1 7451.83 1023.91   7
  -4   6   1 8562.01 1249.87   1
   4  -6   0 8327.56 1126.33   9
  -4   6   0 8198.84 1130.54   8
   4   6   0 8814.31 957.912   2
  -4  -6   0 8815.85 1081.67   7
  -4   6   0 8643.01 1183.95   1
  -4  -6   0 9592.65 1038.11  10
   4   6   0 11395.8 1122.33   6
   4  -6   0 8517.65 1019.38   6
  -4  -6  -1 902.705 398.659  10
   4   6   1 1220.39 364.983   2
   4  -6   1 755.202 409.470   9
   4   6   1 533.846 311.644   6
   4  -6   1 286.864 183.558   6
  -4   6  -1 1095.68 511.622   8
   4   6   1 436.011 299.074  12
  -4   6  -1 689.272 392.494   1
  -4  -6  -1 587.785 338.499   7
  -4   6  -2 14855.4 1496.23   1
  -4   6  -2 15750.7 1696.63   8
   4   6   2 15653.8 1260.62   2
   4   6   2 16473.6 1738.84  12
  -4  -6  -2 15770.1 1579.14  10
   4   6   2 16012.0 1400.86   6
   4  -6   2 15960.7 1473.32   6
   4   6   3 1222.06 471.810   6
   4  -6   3 471.491 390.848   6
  -4   6  -3 811.260 436.310   8
   4   6   3 427.381 418.740  12
  -4  -6  -3 1789.92 630.179  10
   4   6   4 935.979 453.954   5
   4  -6   4 273.010 368.567   5
  -4   6  -4 893.531 520.073   8
   4  -7  -6 638.583 503.555   9
  -4   7   6 947.325 514.718   3
  -4   7   6-423.588 487.586  13
  -4   7   6-139.809 410.342   1
  -4  -7   6 696.762 406.287   7
   4  -7  -5 37907.7 2875.26   9
  -4   7   5 41807.9 2489.60   3
  -4   7   5 33315.0 2328.30   8
   4   7  -5 43188.0 2489.26   2
  -4   7   5 40354.2 2419.62  13
  -4   7   5 35544.6 2606.40   1
  -4  -7   5 35186.0 2724.76   7
   4  -7  -4 5826.23 1143.99   9
   4   7  -4 5755.58 928.845   2
  -4   7   4 6039.68 1019.85   8
  -4   7   4 5068.37 858.883  13
  -4   7   4 5055.03 986.718   1
  -4  -7   4 6290.86 1123.12   7
   4   7  -3 3234.67 647.500   2
   4  -7  -3 2583.98 798.270   9
  -4   7   3 2442.48 657.084   8
  -4   7   3 3909.73 692.417  13
  -4  -7   3 2952.71 758.302   7
  -4   7   3 3101.79 742.526   1
   4   7  -2 1187.82 403.149   2
   4  -7  -2 1254.06 588.823   9
  -4   7   2 1114.06 465.578   1
  -4   7   2 1520.15 548.588   8
  -4   7   2 2160.89 558.615  13
  -4  -7   2 1502.81 490.642   7
   4  -7  -1 7052.81 1147.23   9
  -4   7   1 7712.47 1240.43   8
  -4   7   1 7352.74 1267.61   1
   4   7  -1 8205.76 988.837   2
  -4  -7   1 8218.93 1086.47   7
  -4  -7   1 7769.83 939.300  10
   4  -7   0 16169.3 1637.86   9
  -4   7   0 17360.1 1769.07   8
  -4   7   0 19857.3 1883.24   1
   4   7   0 20027.2 1520.15   2
  -4  -7   0 17014.7 1468.21   7
  -4  -7   0 13007.6 1283.95  10
  -4  -7  -1-58.6814 219.258  10
   4   7   1 101.873 205.862   2
   4  -7   1 147.875 277.183   9
  -4   7  -1 433.567 319.028   8
   4   7   1 464.814 347.928  12
  -4   7  -1 27.5056 352.475   1
   4   7   2-271.943 269.969   2
  -4   7  -2 14.7145 249.227   1
  -4   7  -2 204.974 432.273   8
   4   7   2 15.2168 295.204  12
  -4  -7  -2-190.190 430.042  10
  -4   8   5 18310.1 1723.03   3
  -4   8   5 14226.6 1680.02   1
   4   8  -5 17166.4 1628.48   2
  -4  -8   5 14967.1 1810.14   7
   4   8  -4 618.908 446.756   2
   4  -8  -4-551.626 475.100   9
  -4   8   4 135.750 389.317   1
  -4   8   4 565.567 267.500   8
  -4   8   4 562.784 405.925  13
  -4  -8   4-242.157 352.887   7
   4  -8  -3 1729.37 506.900   9
   4   8  -3 1422.80 522.281   2
  -4   8   3 1813.56 636.258   1
  -4   8   3 2180.02 690.791   8
  -4   8   3 1949.08 609.938  13
  -4  -8   3 1958.26 805.700   7
  -4  -8   2 1187.36 425.783  10
  -4   8   2 608.231 335.376   1
   4  -8  -2 1861.53 710.069   9
   4   8  -2 1195.10 452.532   2
  -4   8   2 1188.49 541.423   8
  -4   8   2 1943.71 525.116  13
  -4  -8   2 1393.63 463.844   7
  -4  -8   1 4292.33 747.412  10
   4  -8  -1 4491.21 927.126   9
  -4   8   1 5297.80 1022.75   8
   4   8  -1 6696.35 940.604   2
  -4   8   1 6022.30 1111.85   1
  -4  -8   0 2428.44 554.013  10
   4  -8   0 4159.93 889.125   9
   4   8   0 5183.59 830.026   2
  -4   8   0 4912.98 994.974   8
  -4   8   0 5028.18 958.138   1
   4  -8   1 191.950 389.349   9
   4   8   1-262.507 252.666   2
  -4   8  -1 646.875 504.047   1
  -4   8  -1 176.315 312.366   8
   4   8   1 242.026 422.689  12
  -4  -8  -1-445.862 524.423  10
   4   8   2 4195.69 723.436   2
  -4   8  -2 5613.68 1076.21   1
  -4   9   4 7515.83 1201.52   8
  -4   9   3 4826.75 964.782   8
   4  -9  -2 836.736 558.239   9
  -4   9   2 758.228 509.483   8
  -4  -9   1 682.489 274.010  10
   4  -9  -1 1228.94 532.897   9
  -4   9   1 1412.62 514.742   8
   4  -9   0 11528.4 1554.01   9
  -4  -9   0 7573.07 1082.52  10
  -5   0   8 1589.47 697.074   7
   5   0  -7 5866.06 998.533   9
   5   0  -7 4116.91 1016.39   6
   5   0  -7 4047.88 858.310  14
  -5   0   7 4803.20 1100.84   7
   5   0  -6 29177.3 2031.76   9
   5   0  -6 29183.4 2424.85   6
   5   0  -6 28792.1 2201.52  14
  -5   0   6 28661.7 2330.31   7
   5   0  -5 68766.0 3532.78   6
   5   0  -5 64648.5 2922.09   9
   5   0  -5 60268.9 2967.75  14
   5   0  -4 10199.5 1393.76   6
   5   0  -4 11663.7 1233.28   9
   5   0  -4 10575.4 1171.30  14
  -5   0   4 11807.1 1424.69   7
   5   0  -3 1904.32 453.533   9
   5   0  -3 2524.64 700.994   6
   5   0  -3 1407.94 385.620  14
  -5   0   3 1617.05 603.645   7
   5   0  -2 262.871 279.418   9
   5   0  -2 2.74159 313.973   6
   5   0  -2 355.078 245.145  14
  -5   0   2 517.297 443.412   7
   5   0  -1 149606. 3770.21   9
   5   0  -1 148835. 2810.08  12
  -5   0   1 148736. 4744.94   7
   5   0  -1 154451. 4582.89   6
   5   0   0 47903.4 2133.91   9
  -5   0   0 49287.4 2686.09   8
  -5   0   0 48767.5 2818.72   7
   5   0   0 46428.3 1857.61  12
   5   0   0 49656.1 2653.12   6
   5   0   1 188.166 342.870   6
   5   0   1 172.895 187.206   9
  -5   0  -1 141.086 205.607   8
   5   0   1-189.473 154.097  12
  -5   0  -1 11.5899 337.293   7
   5   0   2 6862.10 825.188   9
  -5   0  -2 7139.01 990.243   8
   5   0   2 5901.79 836.454  12
  -5   0  -2 6615.61 1139.12   7
  -5   0  -2 6581.62 733.343  11
   5   0   2 7290.57 1077.51   6
  -5   0  -2 6282.24 829.805  10
  -5   0  -3 679.340 325.715  10
   5   0   3 1195.83 526.830   5
   5   0   3 1669.51 446.314   9
   5   0   3 960.104 387.380  12
  -5   0  -3 1496.73 444.177  11
   5   0   4 8750.71 1182.59  12
  -5   0  -4 9391.33 1083.28  11
  -5   0  -4 10233.4 1317.52  10
  -5   1   8 47939.9 3219.56   7
  -5  -1   8 51071.2 3466.25   7
   5  -1  -7 8271.33 1181.97   9
   5   1  -7 7475.31 1363.30   6
   5  -1  -7 9000.83 1448.09   6
   5   1  -7 7839.16 1238.42  14
   5  -1  -7 7084.23 1215.15  14
  -5   1   7 8391.83 1337.88   7
  -5  -1   7 6606.37 1258.55   7
   5  -1  -6 1403.50 475.031   9
   5   1  -6 1081.70 450.500   9
   5   1  -6 1215.02 518.926   6
   5  -1  -6 1331.21 612.248   6
   5   1  -6 1099.05 419.380  14
   5  -1  -6 973.249 443.864  14
  -5   1   6 1090.16 368.030   7
  -5  -1   6 1392.65 648.917   7
   5   1  -5 4481.11 815.398   9
   5  -1  -5 4417.46 792.790   9
   5   1  -5 4347.23 1009.89   6
   5  -1  -5 3310.28 946.005   6
   5   1  -5 3682.76 695.562  14
   5  -1  -5 3800.13 780.225  14
  -5   1   5 4253.71 986.169   7
  -5  -1   5 4752.24 978.194   7
   5   1  -4 19888.0 1808.95   6
   5  -1  -4 19779.4 1809.67   6
   5  -1  -4 18978.7 1607.56   9
   5   1  -4 17563.6 1391.92   9
   5   1  -4 17191.2 1386.22  14
   5  -1  -4 16305.9 1459.44  14
  -5   1   4 17795.3 1702.78   7
  -5  -1   4 18749.4 1799.78   7
   5   1  -3 54947.8 2848.10   6
   5  -1  -3 57745.3 2921.33   6
   5  -1  -3 52018.7 2540.70   9
   5   1  -3 48236.4 2203.08   9
   5   1  -3 49563.8 2176.02  14
   5  -1  -3 51246.8 2395.22  14
  -5   1   3 54935.1 2890.16   7
  -5  -1   3 56433.3 2968.80   7
   5   1  -2 5612.84 736.209   9
   5  -1  -2 4495.57 694.003   9
   5   1  -2 5968.89 944.998   6
   5  -1  -2 5484.90 894.646   6
   5   1  -2 4770.49 609.542  14
   5  -1  -2 6027.49 786.552  14
   5   1  -2 6047.68 511.869  12
  -5   1   2 5590.72 916.273   7
  -5  -1   2 5645.97 918.881   7
   5   1  -1 4498.75 707.744   9
   5   1  -1 4821.23 924.134   6
   5  -1  -1 5354.05 946.700   6
   5  -1  -1 4687.31 740.260   9
   5   1  -1 3628.28 518.851  14
   5  -1  -1 4542.93 487.781  12
   5   1  -1 4777.72 568.714  12
  -5   1   1 4280.12 909.101   7
  -5  -1   1 4003.25 851.341   7
   5  -1   0 47814.3 2213.18   9
   5   1   0 55695.5 2207.72   9
  -5   1   0 52649.0 2779.19   8
  -5   1   0 50194.7 2898.61   7
   5  -1   0 52329.1 1949.69  12
  -5  -1   0 51089.0 2850.52   7
   5   1   0 51771.0 2090.50  12
   5   1   0 53247.2 2703.85   6
   5  -1   0 55774.2 2793.12   6
   5   1   1 374.016 357.112   6
   5  -1   1 29.8545 225.581   6
   5  -1   1 111.005 237.749   9
   5   1   1 692.416 362.685   9
  -5   1  -1 375.062 340.631   8
  -5  -1  -1 344.491 340.817   8
   5  -1   1 217.242 226.253  12
   5   1   1 514.102 281.769  12
  -5   1  -1 567.721 443.496   7
  -5  -1  -1 219.483 317.817   7
  -5  -1  -1 266.730 179.413  11
   5  -1   2 7632.30 988.586   9
   5   1   2 10227.9 1042.52   9
  -5   1  -2 26923.6 1937.09   8
  -5  -1  -2 27067.9 1783.30   8
  -5   1  -2 26763.7 2318.86   7
  -5  -1  -2 24377.8 2287.19   7
   5  -1   2 8106.15 1072.03  12
   5   1   2 9309.07 1143.23  12
  -5  -1  -2 13296.3 1107.59  11
   5   1   2 14528.9 1526.77   6
   5  -1   2 16374.2 1641.68   6
  -5  -1  -2 15347.5 1421.58  10
  -5   1  -2 14358.6 1174.51  10
  -5   1  -3 2910.95 599.650  10
  -5  -1  -3 3128.77 682.469  10
   5   1   3 2915.78 727.005   5
   5  -1   3 2885.78 757.020   5
   5   1   3 3386.49 636.361   9
   5  -1   3 2592.71 516.301   9
   5  -1   3 2365.98 610.975  12
   5   1   3 1996.38 552.198  12
  -5  -1  -3 2417.39 500.503  11
   5  -1   4 1730.28 615.723  12
   5   1   4 1495.19 502.114  12
  -5  -1  -4 1855.46 485.046  11
  -5   1  -4 2575.63 593.706  11
  -5  -1  -4 1780.25 618.871  10
  -5   2   8 4911.10 1049.56   7
   5  -2  -7 728.352 358.361   9
   5   2  -7 1239.49 560.036   6
   5  -2  -7 2349.97 822.286   6
   5   2  -7 1255.47 480.407  14
   5  -2  -7 682.414 471.844  14
  -5   2   7 1006.99 447.868   7
  -5  -2   7 1636.45 652.718   7
   5  -2  -6 14088.6 1582.13   9
   5   2  -6 15580.0 1400.17   9
   5   2  -6 15185.5 1784.94   6
   5  -2  -6 15988.9 1832.97   6
   5   2  -6 14334.9 1499.70  14
   5  -2  -6 14406.7 1665.03  14
  -5   2   6 15518.5 1652.04   7
  -5  -2   6 12694.1 1612.59   7
   5  -2  -5 12669.8 1443.44   9
   5   2  -5 10052.9 1440.07   6
   5  -2  -5 9243.88 1391.22   6
   5   2  -5 10605.3 1128.47   9
   5   2  -5 8807.68 1077.12  14
   5  -2  -5 7714.87 1154.90  14
  -5   2   5 10385.9 1364.15   7
  -5  -2   5 11422.2 1502.06   7
   5   2  -4 20655.1 1854.57   6
   5  -2  -4 19059.4 1789.05   6
   5  -2  -4 21734.3 1757.64   9
   5   2  -4 13990.8 1185.62   9
   5   2  -4 18381.1 1454.35  14
   5  -2  -4 18082.8 1607.79  14
  -5   2   4 18513.6 1722.91   7
  -5  -2   4 18848.6 1839.52   7
   5   2  -3 8038.21 1116.66   6
   5  -2  -3 7970.89 1148.74   6
   5  -2  -3 7249.67 960.993   9
   5   2  -3 6146.95 771.494   9
   5   2  -3 7560.14 844.865  14
   5  -2  -3 7129.60 966.313  14
  -5   2   3 7822.49 1097.17   7
  -5  -2   3 7233.81 1135.30   7
   5  -2  -2 1198.46 436.170   9
   5   2  -2 975.333 375.413   6
   5  -2  -2 877.933 453.914   6
   5   2  -2 1574.62 485.796   9
   5   2  -2 986.620 325.525  14
   5   2  -2 1142.20 322.257  12
  -5   2   2 1292.43 732.990   7
  -5  -2   2 1725.74 740.601   7
   5  -2  -1 44611.4 2335.24   9
  -5   2   1 46262.5 2708.59   8
   5   2  -1 43056.4 1655.13  14
  -5   2   1 45509.9 2666.53   7
  -5  -2   1 48713.4 2738.64   7
   5   2  -1 44778.5 1895.08  12
   5   2  -1 48627.0 2582.52   6
   5  -2  -1 48484.3 2611.71   6
   5  -2   0 63004.3 2640.87   9
  -5   2   0 65209.4 3223.89   8
  -5   2   0 64219.3 3254.50   7
   5  -2   0 64898.4 2231.82  12
  -5  -2   0 65011.9 3203.29   7
   5   2   0 62402.5 2444.21  12
  -5  -2   0 65678.3 1784.54  11
   5   2   0 69170.7 3081.82   6
   5  -2   0 70829.0 3162.03   6
   5  -2   1 15262.5 1285.38   9
  -5   2  -1 16995.4 1599.59   8
  -5  -2  -1 16545.3 1433.23   8
  -5   2  -1 14457.9 1639.60   7
  -5  -2  -1 16550.0 1670.23   7
   5  -2   1 14942.0 1218.84  12
   5   2   1 15844.7 1354.15  12
  -5  -2  -1 15395.5 1040.01  11
   5   2   1 16667.7 1568.30   6
   5  -2   1 17861.4 1645.74   6
  -5  -2  -1 17574.0 1356.90  10
  -5  -2  -2 2668.99 631.973  10
  -5   2  -2 2616.87 506.457  10
   5   2   2 2576.45 693.352   6
   5  -2   2 2325.07 662.016   6
   5  -2   2 1678.69 427.095   9
  -5   2  -2 2759.57 688.535   8
   5  -2   2 1910.82 503.358  12
   5   2   2 1908.69 539.014  12
  -5  -2  -2 2636.22 759.913   7
  -5  -2  -2 2365.20 482.362  11
  -5  -2  -3 3493.84 709.885  10
   5   2   3 4902.68 897.617   5
   5  -2   3 3184.17 721.191   5
  -5   2  -3 4414.59 858.973   8
   5  -2   3 3320.55 714.983  12
   5   2   3 4359.72 850.890  12
  -5  -2  -3 3556.06 650.447  11
   5  -2   4 12444.0 1434.46  12
   5   2   4 11246.9 1409.43  12
  -5  -2  -4 12039.5 1324.56  11
  -5   2  -4 13275.3 1243.41  11
  -5  -2  -4 12626.9 1510.72  10
   5  -3  -7 10338.3 1410.12   9
   5   3  -7 11351.2 1646.90   6
   5  -3  -7 11055.9 1560.40   6
   5   3  -7 11053.2 1429.73  14
   5  -3  -7 11407.1 1628.44  14
  -5   3   7 10172.1 1394.01   7
  -5  -3   7 12487.0 1718.90   7
   5  -3  -6 11145.6 1487.88   9
   5   3  -6 11148.8 1150.96   9
   5   3  -6 12013.3 1585.29   6
   5  -3  -6 11510.2 1548.48   6
   5   3  -6 9925.89 1222.11  14
   5  -3  -6 11726.9 1564.92  14
  -5   3   6 11134.7 1365.94   7
  -5  -3   6 10917.1 1546.40   7
   5  -3  -5-407.924 344.142   9
   5   3  -5-90.0838 177.236   9
   5   3  -5-145.357 302.709   6
   5  -3  -5-572.084 449.602   6
   5   3  -5 494.169 385.379  14
   5  -3  -5 443.469 437.265  14
  -5   3   5 439.924 286.620  13
  -5   3   5 311.771 289.610   7
  -5  -3   5 643.947 484.313   7
   5  -3  -4 926.337 388.824   9
   5   3  -4 710.871 243.952   9
   5   3  -4 1511.98 553.625   6
   5  -3  -4 1355.58 540.085   6
   5   3  -4 2639.33 587.909  14
  -5   3   4 2019.00 404.139  13
  -5   3   4 735.510 366.278   7
  -5  -3   4 2660.22 778.952   7
   5   3  -3 63878.8 3077.53   6
   5  -3  -3 64086.6 3133.34   6
   5  -3  -3 63766.7 3070.98   9
   5   3  -3 60998.8 2352.04   9
   5   3  -3 64383.3 2355.04  14
  -5   3   3 62802.9 3025.06   7
  -5  -3   3 63736.5 3265.29   7
   5   3  -2 56745.2 2850.73   6
   5  -3  -2 55074.9 2856.41   6
   5  -3  -2 51174.5 2656.59   9
  -5   3   2 64056.3 3354.86   8
   5   3  -2 52935.6 1963.35  14
  -5   3   2 57696.3 3119.40   7
  -5  -3   2 56437.7 3010.40   7
   5   3  -2 53635.1 2165.93  12
   5  -3  -1 316.291 354.287   9
   5   3  -1 8.55960 249.238   6
   5  -3  -1 332.986 354.926   6
   5   3  -1 530.087 237.676  14
  -5   3   1 333.790 408.056   8
   5   3  -1 418.488 308.574  12
  -5   3   1 73.1563 295.455   7
  -5  -3   1 210.541 302.214   7
   5   3   0 1123.98 451.326   6
   5  -3   0 1023.59 542.293   6
   5  -3   0 1064.22 438.788   9
  -5   3   0 1083.65 534.517   8
   5  -3   0 753.025 270.463  12
   5   3   0 986.292 380.783  12
  -5   3   0 1249.08 606.929   7
  -5  -3   0 1285.31 512.766   7
   5   3   1 4470.07 878.050   6
   5  -3   1 4545.41 865.287   6
   5  -3   1 4084.91 738.172   9
  -5   3  -1 4479.27 899.494   8
   5  -3   1 3430.84 604.208  12
   5   3   1 4513.52 760.240  12
  -5   3  -1 4789.83 987.300   7
  -5  -3  -1 4396.99 961.530   7
  -5  -3  -1 5502.97 869.168  10
   5  -3   2 25749.1 1771.77   9
  -5   3  -2 26299.6 2088.14   8
  -5  -3  -2 25817.0 2184.44   7
   5  -3   2 25991.9 1794.63  12
   5   3   2 26070.6 1936.84  12
   5   3   2 27161.1 2035.39   6
   5  -3   2 27213.5 2077.02   6
  -5  -3  -2 25816.0 1882.28  10
  -5   3  -3 523.413 409.640   8
   5  -3   3 306.616 238.016  12
   5   3   3 1399.49 581.215  12
   5   3   3 393.322 389.512   6
  -5  -3  -3 91.6921 255.683  10
   5  -3   4 2523.55 716.529  12
  -5  -3  -4 3001.03 702.390  11
   5  -4  -8 4098.33 1030.58   9
   5  -4  -7 6728.27 1229.88   9
   5   4  -7 8857.86 1498.25   6
   5  -4  -7 7183.53 1329.31   6
   5  -4  -6 7181.34 1244.84   9
   5   4  -6 9216.26 1410.87   6
   5  -4  -6 8862.53 1362.36   6
   5   4  -6 9009.70 1152.49  14
  -5   4   6 9358.44 989.814  13
  -5  -4   6 9140.42 1466.70   7
   5  -4  -5 293.020 428.742   9
   5   4  -5-123.331 298.620   9
   5   4  -5 77.4025 249.069   6
   5  -4  -5-356.071 377.669   6
   5   4  -5 182.116 264.238  14
  -5   4   5 54.7781 199.721  13
  -5   4   5-209.367 290.849   7
  -5  -4   5-226.991 301.104   7
   5  -4  -4 15844.8 1716.55   9
   5   4  -4 17315.9 1713.52   6
   5  -4  -4 17292.0 1719.63   6
   5   4  -4 16310.5 1247.22   9
  -5   4   4 15901.4 1685.38   8
   5   4  -4 17898.1 1363.76  14
  -5   4   4 18154.9 1160.87  13
  -5   4   4 17082.3 1583.95   7
  -5  -4   4 16409.8 1781.62   7
   5   4  -3 28805.1 2087.50   6
   5  -4  -3 25755.2 1977.74   6
   5  -4  -3 24251.6 2021.72   9
  -5   4   3 24543.5 2068.88   8
   5   4  -3 25631.6 1492.03  14
  -5   4   3 26242.6 1938.36   7
  -5  -4   3 26440.8 2146.17   7
   5  -4  -2 1325.00 522.571   9
   5   4  -2 2730.63 596.750   6
   5  -4  -2 2367.78 636.014   6
   5   4  -2 2878.93 484.533  14
  -5   4   2 3047.03 919.233   8
   5   4  -2 2021.32 517.720  12
  -5   4   2 2760.21 728.758   7
  -5  -4   2 1819.10 591.010   7
   5  -4  -1 12132.6 1445.21   9
  -5   4   1 9409.32 1342.10   8
   5   4  -1 9772.02 789.118  14
  -5   4   1 7738.33 1165.07   7
  -5  -4   1 9425.61 1266.20   7
   5   4  -1 10406.1 1136.95  12
   5   4  -1 9859.78 1228.39   6
   5  -4  -1 8675.72 1206.79   6
   5  -4   0 43550.7 2464.90   9
  -5   4   0 50790.9 2986.53   8
  -5   4   0 49027.2 2897.15   7
  -5  -4   0 47965.3 2773.16   7
   5   4   0 48418.0 2494.23  12
   5   4   0 46764.5 2562.67   6
   5  -4   0 47018.4 2629.00   6
   5  -4   1 26079.1 1889.86   9
  -5   4  -1 27880.2 2252.56   8
  -5  -4  -1 27811.2 2184.11   7
   5   4   1 29185.6 2056.62  12
  -5  -4  -1 28215.1 1884.89  10
   5   4   1 30629.5 2111.35   6
   5  -4   1 27258.4 2092.59   6
  -5  -4  -2 1283.36 529.499  10
   5   4   2 837.744 393.146   6
   5  -4   2 1719.95 633.024   6
   5  -4   2 861.816 405.330   9
  -5   4  -2 874.898 508.212   8
   5  -4   2 294.314 269.327  12
   5   4   2 366.655 335.459  12
  -5  -4  -2 1034.61 511.271   7
  -5   4  -3 11297.1 1472.00   8
   5  -4   3 9625.60 1250.90  12
   5   4   3 10661.1 1382.64  12
   5   4   3 11462.7 1392.43   6
   5  -4   3 11269.5 1443.92   6
  -5  -4  -3 11344.1 1449.96  10
   5  -5  -7 3255.52 918.857   9
   5  -5  -7 2473.64 731.926   6
   5   5  -7 4308.67 1043.16   6
  -5   5   7 2237.50 671.680   8
   5  -5  -6 972.798 569.980   9
   5   5  -6 255.737 335.628   6
   5  -5  -6 363.171 405.897   6
   5   5  -6 953.496 441.399  14
  -5   5   6-213.574 301.854   8
  -5   5   6 410.388 239.158  13
  -5  -5   6 301.679 552.032   7
   5  -5  -5 960.873 464.514   9
   5   5  -5 1038.74 348.138   9
   5   5  -5 696.194 497.475   6
   5  -5  -5 1389.75 591.497   6
   5   5  -5 601.630 310.057  14
  -5   5   5 1442.18 564.615   8
  -5   5   5 1399.41 445.744  13
  -5  -5   5 1554.09 710.250   7
   5  -5  -4 1419.20 563.594   9
   5   5  -4 2512.58 557.141   9
   5   5  -4 883.124 395.231   6
   5  -5  -4 869.160 446.881   6
   5   5  -4 1232.28 385.148  14
  -5   5   4 896.561 458.702   8
  -5   5   4 1330.85 400.835  13
  -5   5   4 1188.22 447.742   7
  -5  -5   4 1074.12 470.742   7
   5   5  -3 33597.8 2286.57   6
   5  -5  -3 31939.1 2238.59   6
   5  -5  -3 33061.3 2454.22   9
  -5   5   3 33403.0 2462.27   8
   5   5  -3 34304.9 1724.84  14
  -5   5   3 33009.3 2154.35   7
  -5  -5   3 33137.8 2433.89   7
   5   5  -2 12588.4 1381.21   6
   5  -5  -2 11486.9 1348.54   6
   5  -5  -2 9834.39 1315.93   9
  -5   5   2 12724.4 1564.24   8
   5   5  -2 11699.5 953.476  14
  -5   5   2 9702.53 1273.68   7
  -5  -5   2 10572.2 1362.63   7
   5  -5  -1 40.8863 322.400   9
   5   5  -1 298.883 251.048   6
   5  -5  -1 36.8540 231.135   6
   5   5  -1 371.178 262.184  14
  -5   5   1 435.319 443.366   8
   5   5  -1-272.857 349.262  12
  -5   5   1 299.687 390.002   7
  -5  -5   1-467.980 502.551   7
   5  -5   0 7791.20 1127.77   9
  -5   5   0 8885.83 1289.03   8
  -5   5   0 9476.41 1339.79   7
  -5  -5   0 9601.35 1232.90   7
   5   5   0 9158.33 1207.01  12
  -5  -5   0 9088.10 1069.13  10
   5   5   0 9547.61 1197.24   6
   5  -5   0 8870.17 1195.57   6
  -5  -5  -1 1105.93 500.089  10
   5   5   1 910.192 444.126   6
   5  -5   1 873.036 429.770   6
   5  -5   1 336.966 232.718   9
  -5   5  -1 1865.66 638.393   8
   5   5   1 198.100 315.294  12
  -5  -5  -1 739.108 403.113   7
  -5   5  -2 8554.32 1326.84   8
  -5  -5  -2 8344.62 1289.59   7
  -5   5  -2 9514.68 1283.70   1
   5   5   2 6950.15 1181.17  12
  -5  -5  -2 8516.85 1225.66  10
   5   5   2 8112.63 1184.79   6
   5  -5   2 8326.55 1245.47   6
   5   5   3 1347.87 596.396   6
   5  -5   3 1145.88 578.554   6
  -5   5  -3 873.718 472.873   8
   5   5   3-35.7930 271.743  12
   5  -6  -7 2611.46 853.416   6
   5   6  -7 2589.92 816.160   6
  -5   6   7 1240.16 520.157   5
   5   6  -6 9913.35 1440.07   6
   5  -6  -6 8598.00 1368.18   6
  -5   6   6 7479.98 1210.57   8
  -5   6   6 9626.98 1161.08  13
   5  -6  -5 22950.4 2324.78   9
   5   6  -5 26181.5 2320.71   6
   5  -6  -5 26159.7 2262.30   6
   5   6  -5 22391.3 1520.80   9
  -5   6   5 21748.0 2050.12   8
   5   6  -5 20083.6 1606.75  14
  -5   6   5 22666.2 1671.77  13
  -5  -6   5 27360.3 2523.00   7
   5  -6  -4 4166.57 951.146   9
   5   6  -4 4806.01 927.003   6
   5  -6  -4 5016.37 957.691   6
   5   6  -4 4405.15 714.161  14
  -5   6   4 3408.53 808.739   8
  -5   6   4 4684.46 695.270  13
  -5  -6   4 4991.64 1019.54   7
   5  -6  -3 708.267 465.112   9
   5   6  -3 420.823 252.231   6
   5  -6  -3 312.595 244.211   6
   5   6  -3 1377.11 460.182  14
  -5   6   3 781.982 498.100   8
  -5  -6   3 562.199 427.783   7
   5  -6  -2 261.569 403.163   9
   5   6  -2 214.558 303.004   6
   5  -6  -2 29.2122 207.854   6
  -5   6   2-214.584 284.149   8
  -5   6   2 9.59875 197.182   7
  -5  -6   2-273.853 410.170   7
   5   6  -1 52102.2 2759.22   6
   5  -6  -1 47363.7 2715.58   6
   5  -6  -1 45311.6 2850.71   9
  -5   6   1 47350.3 3041.56   8
  -5   6   1 44030.2 2673.77   7
  -5  -6   1 45799.4 2749.19   7
   5   6  -1 50317.0 2982.95  12
   5  -6   0 15033.7 1620.91   9
  -5   6   0 16104.0 1818.01   8
  -5  -6   0 16616.2 1657.97   7
   5   6   0 16639.8 1751.62  12
  -5   6   0 17154.0 1787.50   1
  -5  -6   0 16251.2 1478.08  10
   5   6   0 16950.8 1569.48   6
   5  -6   0 15838.3 1575.48   6
  -5  -6  -1-28.2374 288.121  10
   5  -6   1 166.706 335.957   9
   5   6   1 217.989 373.080   6
   5  -6   1-51.5223 220.487   6
  -5   6  -1 266.910 554.717   8
  -5   6  -1-145.621 320.810   1
   5   6   1 151.207 287.935  12
  -5  -6  -1 121.935 278.181   7
   5   6   2 1399.37 556.880   6
   5  -6   2 1329.92 426.426   6
  -5   6  -2 1993.85 727.693   8
   5   6   2 1562.00 552.550  12
   5   6   3 8.55609 265.861   6
   5  -6   3 624.068 525.737   6
  -5   7   5 2058.21 664.400   8
  -5   7   5 1386.64 519.776  13
  -5  -7   5 1712.67 668.283   7
   5  -7  -4 15199.2 1894.79   9
  -5   7   4 14311.7 1713.19   8
   5   7  -4 17196.2 1407.26  14
  -5   7   4 15237.5 1337.66  13
  -5  -7   4 13776.5 1683.33   7
  -5   7   4 12718.4 1644.18   1
   5  -7  -3 13580.4 1741.30   9
  -5   7   3 15977.9 1798.00   8
   5   7  -3 14024.1 1463.18   2
  -5  -7   3 15202.8 1726.21   7
  -5   7   3 12678.1 1628.07   1
   5  -7  -2 424.117 385.821   9
  -5   7   2 1193.52 614.437   8
  -5   7   2 1236.35 623.224   1
  -5  -7   2 952.976 533.140   7
   5   7  -2 1193.52 417.912   2
   5   7  -1-20.9435 245.285   2
   5  -7  -1-377.438 307.277   9
  -5   7   1 153.527 376.157   1
  -5   7   1 462.719 412.191   8
   5   7  -1-410.352 388.555  12
  -5  -7   1-162.046 265.477   7
   5  -7   0 22116.8 2047.00   9
  -5   7   0 25468.1 2315.19   8
   5   7   0 24495.6 1832.03   2
  -5   7   0 25005.2 2286.39   1
   5   7   0 27951.4 2429.96  12
  -5  -7   0 22669.4 1839.16  10
  -5   7  -1 906.143 434.455   1
   5   7   1 860.114 438.698  12
  -5  -8   4 4721.89 1055.71   7
  -5  -8   3-201.701 242.392   7
  -5  -8   2 1459.25 576.626  10
   5  -8  -2 397.110 473.439   9
   5  -8  -1 16615.8 1909.10   9
  -5  -8   1 20363.7 1758.51  10
   5  -8   0 8285.43 1300.26   9
   5   8   0 10069.8 1542.34  12
   6   0  -7 47.2180 266.162   9
  -6   0   7-93.6931 359.921   7
   6   0  -6 19478.9 1866.72   9
   6   0  -6 18829.6 2212.95   6
   6   0  -6 15566.4 1792.07  14
  -6   0   6 19056.3 2129.98   7
   6   0  -5 418.727 414.791   9
   6   0  -5-151.698 362.199   6
   6   0  -5 603.702 393.840  14
  -6   0   5 358.386 341.213   7
   6   0  -4 47679.1 3050.17   6
   6   0  -4 42499.5 2585.40   9
   6   0  -4 43170.6 2484.56  14
  -6   0   4 48073.9 3140.37   7
   6   0  -3 1592.55 504.574   9
   6   0  -3 3228.35 843.761   6
   6   0  -3 1890.75 485.585  14
  -6   0   3 2382.55 717.558   7
   6   0  -2 4828.49 817.641   9
   6   0  -2 6292.10 1114.49   6
   6   0  -2 5759.33 801.473  14
  -6   0   2 5426.01 1036.49   7
   6   0  -1 16092.2 1455.57   9
  -6   0   1 17345.8 1870.33   7
   6   0  -1 18037.2 1813.19   6
   6   0   0 15267.1 1386.55   9
  -6   0   0 14107.2 1581.26   8
  -6   0   0 15711.5 1826.18   7
   6   0   0 16428.0 1736.68   6
   6   0   1 8432.72 1101.98   9
  -6   0  -1 23093.3 1960.84   8
  -6   0  -1 19529.0 2147.41   7
  -6   0  -1 12042.8 1187.07  10
   6   0   1 14720.7 1744.51   6
  -6   0  -2 1484.81 487.943  10
   6   0   2 1588.00 751.598   6
   6   0   2 1346.99 486.122   9
  -6   0  -2 2010.43 799.192   7
  -6   0  -3-48.6678 267.281  10
   6   0   3 47.7391 263.135  12
   6  -1  -7 3350.23 887.079   9
  -6   1   7 3026.36 838.931   7
   6  -1  -6 816.163 431.102   9
   6   1  -6 373.454 388.405   9
   6   1  -6 724.122 409.248   6
   6  -1  -6 560.164 513.687   6
   6   1  -6 609.114 365.843  14
   6  -1  -6-232.441 366.567  14
  -6   1   6 154.880 271.426   7
  -6  -1   6 572.205 464.980   7
   6  -1  -5 3471.05 791.596   9
   6   1  -5 2892.77 695.259   9
   6   1  -5 2838.41 807.571   6
   6  -1  -5 2517.45 755.302   6
   6   1  -5 2583.07 685.907  14
   6  -1  -5 1801.37 562.466  14
  -6   1   5 2951.74 864.351   7
  -6  -1   5 2296.78 719.872   7
   6   1  -4 11850.0 1533.71   6
   6  -1  -4 12241.6 1573.91   6
   6  -1  -4 12674.8 1457.51   9
   6   1  -4 8670.14 1095.11   9
   6   1  -4 11606.9 1284.73  14
   6  -1  -4 10575.9 1282.72  14
  -6   1   4 12654.4 1622.76   7
  -6  -1   4 12062.3 1604.00   7
   6   1  -3 83302.3 4010.52   6
   6  -1  -3 83399.9 4032.25   6
   6  -1  -3 80058.2 3543.56   9
   6   1  -3 69260.6 3050.17   9
   6   1  -3 74938.6 2996.42  14
   6  -1  -3 73068.7 3103.48  14
  -6   1   3 85575.8 4026.80   7
  -6  -1   3 82173.5 4031.86   7
   6  -1  -2 1279.80 387.451   9
   6   1  -2 935.563 404.183   9
   6   1  -2 93.1768 302.490   6
   6  -1  -2 858.368 519.241   6
   6  -1  -2 702.807 284.356  14
  -6   1   2 846.350 437.231   7
  -6  -1   2 702.911 525.332   7
   6   1  -1 4115.43 887.274   6
   6  -1  -1 5916.99 1079.58   6
   6  -1  -1 3932.27 756.051   9
   6   1  -1 5369.94 819.614   9
  -6   1   1 5065.58 983.189   8
  -6   1   1 4265.69 973.738   7
  -6  -1   1 3906.46 912.215   7
   6   1   0 1127.30 492.045   6
   6  -1   0 1198.19 560.138   6
   6  -1   0 1263.49 384.599   9
   6   1   0 1027.14 407.537   9
  -6   1   0 2001.87 610.538   8
  -6  -1   0 1377.18 515.370   8
  -6   1   0 1579.19 640.483   7
  -6  -1   0 1038.86 501.873   7
   6  -1   1 12640.9 1296.13   9
   6   1   1 15120.7 1364.85   9
  -6   1  -1 13349.4 1559.30   8
  -6  -1  -1 13235.4 1513.41   8
  -6   1  -1 13041.4 1743.07   7
  -6  -1  -1 13158.4 1727.71   7
  -6  -1  -1 14154.6 1325.18  10
   6   1   1 13930.0 1673.44   6
   6  -1   1 12035.9 1566.92   6
   6  -1   2 31575.5 2057.54   9
   6   1   2 32776.3 2015.98   9
  -6   1  -2 31572.8 2773.14   7
  -6  -1  -2 29575.7 2628.76   7
   6   1   2 28971.0 2011.61  12
  -6  -1  -2 33304.4 2158.33  10
  -6   1  -2 31076.4 1967.35  10
   6   1   2 32344.1 2522.73   6
   6  -1   2 34409.4 2623.56   6
  -6  -1  -3 118.939 270.781  10
   6   1   3 188.206 270.612   9
   6  -1   3-390.695 284.535  12
   6   1   3 320.035 307.913  12
  -6   1  -3 624.001 356.431  11
   6  -2  -7-101.505 369.854   9
  -6   2   7 302.079 405.350   7
   6  -2  -6 1099.72 559.813   9
   6   2  -6-523.914 422.370   9
   6   2  -6 1032.51 521.084   6
   6  -2  -6-245.923 603.796   6
   6   2  -6 41.3676 269.984  14
   6  -2  -6-85.4431 297.588  14
  -6   2   6 618.379 445.449   7
  -6  -2   6 870.598 448.972   7
   6  -2  -5 2484.39 782.551   9
   6   2  -5 1957.80 496.122   9
   6   2  -5 3160.33 791.743   6
   6  -2  -5 2995.53 805.862   6
   6   2  -5 1680.32 516.959  14
   6  -2  -5 2697.45 689.800  14
  -6   2   5 2523.82 794.189   7
  -6  -2   5 2964.05 914.266   7
   6   2  -4 10948.5 1476.86   6
   6  -2  -4 9307.53 1360.27   6
   6  -2  -4 10881.6 1418.55   9
   6   2  -4 4835.19 760.164   9
   6   2  -4 9491.75 1141.67  14
   6  -2  -4 9374.72 1250.91  14
  -6   2   4 11375.7 1486.55   7
  -6  -2   4 10451.8 1478.12   7
   6  -2  -3 4960.18 973.177   9
   6   2  -3 5180.71 809.529   9
   6   2  -3 6243.21 1146.34   6
   6  -2  -3 5714.19 1112.96   6
   6   2  -3 4810.57 741.654  14
  -6   2   3 6156.91 1174.85   7
  -6  -2   3 5465.10 1068.72   7
   6  -2  -2 1501.36 533.446   9
   6   2  -2 1285.42 460.470   9
   6   2  -2 1439.29 544.816   6
   6  -2  -2 993.663 415.658   6
  -6   2   2 575.192 280.185   8
  -6   2   2 2049.02 677.269   7
  -6  -2   2 1057.15 535.055   7
   6  -2  -1 7897.71 1097.31   9
   6   2  -1 9157.63 1045.81   9
   6   2  -1 7643.53 1176.24   6
  -6   2   1 7538.33 1206.85   8
  -6   2   1 9341.83 1367.11   7
  -6  -2   1 7873.47 1253.01   7
   6  -2  -1 8492.58 1269.05   6
   6   2   0 274.483 468.341   6
   6  -2   0 1000.72 529.415   6
   6  -2   0-40.6675 190.940   9
   6   2   0 493.602 334.444   9
  -6   2   0 726.602 453.960   8
  -6   2   0 270.135 345.901   7
  -6  -2   0 443.937 414.496   7
   6  -2   1 13508.9 1423.08   9
   6   2   1 14604.9 1335.69   9
  -6   2  -1 20616.1 1975.59   8
  -6   2  -1 18814.6 2104.49   7
  -6  -2  -1 20450.2 2128.70   7
  -6  -2  -1 14557.9 1416.42  10
   6   2   1 15365.2 1808.44   6
   6  -2   1 17115.1 1908.67   6
  -6  -2  -2 3660.99 761.370  10
   6   2   2 2088.15 773.152   6
   6  -2   2 2667.30 708.836   9
   6   2   2 3771.91 701.285   9
  -6   2  -2 1893.05 629.076   8
   6   2   2 2424.15 649.501  12
  -6  -2  -2 1616.16 703.387   7
   6   2   3-29.3601 234.577  12
   6  -3  -7 4302.61 1030.21   9
   6  -3  -6 1501.74 717.894   9
   6   3  -6 3195.32 784.670   9
   6   3  -6 3552.11 979.533   6
   6  -3  -6 3899.10 1053.66   6
   6   3  -6 2477.41 693.435  14
   6  -3  -6 2079.57 671.562  14
  -6   3   6 3237.44 918.476   7
  -6  -3   6 3108.31 877.189   7
   6  -3  -5 4368.69 1060.37   9
   6   3  -5 3737.96 703.707   9
   6   3  -5 4633.22 966.235   6
   6  -3  -5 4021.67 967.981   6
   6   3  -5 4353.99 825.271  14
  -6   3   5 5167.03 1030.29   7
  -6  -3   5 5673.17 1135.51   7
   6  -3  -4 2333.89 727.820   9
   6   3  -4 2322.37 588.876   9
   6   3  -4 2545.72 657.776   6
   6  -3  -4 2604.29 772.575   6
   6   3  -4 2622.78 601.753  14
  -6   3   4 1646.43 617.321   7
  -6  -3   4 2264.24 762.286   7
   6   3  -3 14834.4 1688.90   6
   6  -3  -3 13435.4 1633.77   6
   6  -3  -3 12319.7 1516.54   9
   6   3  -3 13174.9 1287.49   9
  -6   3   3 16043.0 1983.28   8
   6   3  -3 12280.7 1188.21  14
  -6   3   3 19191.0 2089.25   7
  -6  -3   3 15757.4 1918.97   7
   6   3  -2 4194.25 768.017   9
   6  -3  -2 2998.84 804.088   9
   6   3  -2 3404.99 722.477   6
   6  -3  -2 2936.18 788.247   6
  -6   3   2 2952.68 790.040   8
  -6   3   2 3289.28 845.617   7
  -6  -3   2 3262.23 835.511   7
   6   3  -1 7242.20 945.377   9
   6  -3  -1 6660.53 1039.73   9
   6   3  -1 5591.09 996.985   6
   6  -3  -1 5849.59 1050.18   6
  -6   3   1 5049.47 1072.00   8
  -6   3   1 5670.29 1105.80   7
  -6  -3   1 5582.19 1078.05   7
   6   3   0 811.373 479.554   6
   6  -3   0-79.0373 327.385   6
   6  -3   0-148.545 261.222   9
  -6   3   0 575.105 522.440   8
  -6   3   0 100.006 336.849   7
  -6  -3   0-108.081 373.834   7
   6   3   1 6149.05 1149.47   6
   6  -3   1 7077.95 1227.17   6
   6  -3   1 4295.02 857.102   9
  -6   3  -1 9737.75 1443.60   8
  -6   3  -1 11463.6 1606.51   7
  -6  -3  -1 10798.6 1658.51   7
   6   3   1 3624.06 805.898  12
  -6  -3  -1 4902.66 990.013  10
  -6   3  -2 35896.5 2669.69   8
  -6  -3  -2 34238.5 2829.53   7
   6   3   2 35131.3 2404.82  12
   6   4  -6 1168.82 538.639   6
   6  -4  -6 1338.52 754.245   6
   6   4  -6 1330.00 508.853  14
  -6   4   6 1521.99 640.481   8
   6  -4  -5 2198.61 738.747   9
   6   4  -5 2123.16 540.478   9
   6   4  -5 2678.11 793.237   6
   6  -4  -5 3293.02 904.764   6
   6   4  -5 2556.19 673.882  14
  -6   4   5 1933.02 746.554   8
  -6   4   5 1984.35 653.772   7
  -6  -4   5 1954.09 770.004   7
   6  -4  -4 1226.89 563.096   9
   6   4  -4 2804.27 626.847   9
   6   4  -4 1123.66 470.146   6
   6  -4  -4 1556.13 601.232   6
   6   4  -4 2130.16 542.898  14
  -6   4   4 855.733 559.859   8
  -6   4   4 1744.99 612.069   7
  -6  -4   4 2501.87 809.441   7
   6  -4  -3 7411.47 1246.04   9
   6   4  -3 8566.62 1038.37   9
   6   4  -3 6332.83 1106.06   6
   6  -4  -3 6516.31 1147.40   6
  -6   4   3 7742.62 1317.09   8
   6   4  -3 6272.74 817.063  14
  -6   4   3 6489.99 1130.83   7
  -6  -4   3 6696.11 1174.60   7
   6   4  -2 8292.71 1290.22   6
   6  -4  -2 7052.88 1219.18   9
   6  -4  -2 7393.22 1235.99   6
  -6   4   2 7070.44 1258.30   8
  -6   4   2 7760.06 1298.88   7
  -6  -4   2 6532.31 1177.39   7
   6  -4  -1 4480.90 936.870   9
   6   4  -1 4198.31 886.309   6
   6  -4  -1 4126.55 925.449   6
  -6   4   1 4613.23 1021.24   8
  -6   4   1 3625.91 873.670   7
  -6  -4   1 5095.59 1058.61   7
  -6  -4   0 2609.31 646.256  10
   6  -4   0 2767.91 761.324   9
   6   4   0 2958.74 739.503   6
   6  -4   0 1609.23 655.920   6
  -6   4   0 3113.83 861.792   8
  -6   4   0 1594.84 597.258   7
  -6  -4   0 1444.88 543.236   7
   6  -4   1 10786.0 1387.41   9
  -6   4  -1 15049.3 1888.26   8
  -6  -4  -1 16843.2 1908.39   7
   6   4   1 11016.4 1347.44  12
   6   4   1 15514.1 1791.60   6
   6  -4   1 15192.0 1835.24   6
  -6   4  -2 6950.02 1202.51   8
   6   4   2 6636.47 1096.02  12
  -6  -4  -2 6963.52 1252.87   7
   6   5  -6-685.525 529.629   6
   6  -5  -6-170.917 335.767   6
   6   5  -5 11.6278 202.826   9
   6   5  -5 263.815 360.713   6
   6  -5  -5 400.892 468.440   6
   6   5  -5 606.279 356.366  14
  -6   5   5 146.432 333.494   8
   6  -5  -4 1574.89 628.819   9
   6   5  -4 3858.84 747.187   9
   6   5  -4 3675.68 926.514   6
   6  -5  -4 2465.18 758.015   6
   6   5  -4 3488.69 731.217  14
  -6   5   4 3155.18 899.902   8
  -6  -5   4 2464.78 798.188   7
   6   5  -3 19768.3 1947.66   6
   6  -5  -3 20526.7 2051.76   6
   6  -5  -3 17909.0 1956.35   9
  -6   5   3 20223.3 2192.25   8
   6   5  -3 19101.5 1439.97  14
  -6   5   3 19706.5 1937.98   7
  -6  -5   3 19061.5 2043.96   7
   6  -5  -2-76.2707 467.104   9
   6   5  -2-505.610 462.630   6
   6  -5  -2 114.664 272.882   6
  -6   5   2 232.904 447.363   8
  -6   5   2 589.402 377.529   7
  -6  -5   2-59.1785 365.270   7
   6  -5  -1 206.255 252.561   9
   6   5  -1 360.139 363.596   6
   6  -5  -1 609.966 309.651   6
  -6   5   1 428.635 398.505   8
  -6   5   1-205.252 264.926   7
  -6  -5   1-246.168 360.785   7
   6  -5   0 108.976 277.705   9
   6   5   0 1148.89 484.218   6
   6  -5   0-303.367 323.140   6
  -6   5   0-26.4014 293.418   8
  -6   5   0 201.996 405.612   7
  -6  -5   0-117.563 319.761   7
   6  -5   1 1134.62 463.935   9
   6   5   1 2896.23 835.621   6
   6  -5   1 2031.54 810.790   6
   6   5   1 906.343 452.857  12
  -6  -5  -1 3471.98 888.782   7
   6   6  -5 961.708 457.091   9
   6   6  -5-66.8170 413.904   6
   6  -6  -5-321.191 481.963   6
   6   6  -4 23196.7 2192.84   6
   6  -6  -4 21834.4 2142.12   6
   6   6  -4 28927.9 1951.92   9
   6   6  -4 21003.8 1622.16  14
  -6  -6   4 21380.1 2229.64   7
   6   6  -3 883.446 499.039   6
   6  -6  -3 390.196 274.224   6
   6   6  -3 814.029 327.231  14
  -6  -6   3 1118.21 527.140   7
   6  -6  -2 2894.10 885.603   9
   6   6  -2 3267.54 861.353   6
   6  -6  -2 3337.08 873.620   6
  -6  -6   2 2544.10 792.683   7
   6  -6  -1 5949.14 1166.47   9
   6   6  -1 6957.67 1146.21   6
   6  -6  -1 4726.94 991.322   6
  -6   6   1 5678.02 1128.25   7
  -6  -6   1 6999.71 1194.22   7
   6  -6   0 4997.84 1039.50   9
   6   6   0 5644.65 1033.49   6
   6  -6   0 5082.39 1056.22   6
  -6  -6   0 6649.28 1189.67   7
  -6   6   0 6813.54 1349.48   1
   6  -6   1 5620.63 1197.63   6
   6   6   1 8811.28 1358.00   6
   6   7  -3 32488.3 1960.36  14
  -6  -7   2 13.9208 366.767   7
   7   0  -5 8717.69 1294.97  14
   7   0  -4 16260.9 1960.36   6
   7   0  -4 12496.3 1569.29   9
   7   0  -4 11476.0 1397.80  14
  -7   0   4 16024.2 1971.90   7
   7   0  -3 5721.71 1030.19   9
   7   0  -3 7440.57 1359.78   6
  -7   0   3 6463.62 1275.06   7
   7   0  -2 2004.72 558.348   9
   7   0  -2 3197.06 853.106   6
  -7   0   2 1891.62 681.723   7
   7   0  -1 18801.6 1785.90   9
  -7   0   1 17340.6 1968.08   8
  -7   0   0 470.843 503.415   8
   7   1  -5 2533.37 679.749   9
   7   1  -5 3705.93 853.841  14
   7  -1  -5 4683.56 929.299  14
   7  -1  -4 2691.27 774.269   9
   7   1  -4 1317.33 456.702   9
   7   1  -4 3736.92 1006.11   6
   7  -1  -4 3739.65 1030.51   6
   7   1  -4 2829.56 710.281  14
   7  -1  -4 1953.34 608.708  14
   7  -1  -3 2329.35 749.096   9
   7   1  -3 628.506 319.736   9
   7   1  -3 1638.62 692.099   6
   7  -1  -3 2706.91 859.230   6
  -7   1   3 1436.10 671.348   7
  -7  -1   3 2240.38 775.976   7
   7  -1  -2 1024.98 494.696   9
   7   1  -2 817.921 367.931   9
   7   1  -2 1414.01 674.066   6
   7  -1  -2 630.390 446.326   6
  -7   1   2 1760.29 713.514   8
  -7   1   2 661.218 479.712   7
  -7  -1   2 1504.86 589.585   7
   7  -1  -1 1343.53 555.457   9
  -7   1   1 1085.07 536.132   8
  -7   1   0 7031.96 1229.26   8
   7   2  -5 431.912 366.272  14
   7  -2  -5 667.948 439.331  14
   7   2  -4 4826.87 911.888   9
  -7   2   4 6558.55 1281.23   7
   7   2  -3 408.816 439.451   6
   7  -2  -3 121.840 608.131   6
  -7   2   3 761.803 532.740   7
   7   2  -2 237.643 405.363   6
   7  -2  -2 1175.46 553.689   6
  -7   2   2 869.752 556.706   8
  -7   2   2 1266.18 662.057   7
  -7   2   1 1771.50 726.608   8
   7   3  -5 1301.07 493.075  14
  -7   3   5 643.010 362.366   7
  -7   3   4 3734.38 993.898   7
   7   3  -3 1017.12 634.318   6
  -7   3   3 149.000 381.716   7
  -7   3   2 5485.37 1208.27   7
  -7   4   4 5843.24 1185.20   7
  -7   4   3 2453.44 845.327   7
   0   0   0    0.00    0.00   0
TITL lt120 in P2(1)/m
REM P2(1)/m (#11 in standard setting)
CELL 0.71073   5.694012   8.642158   6.976974  90.0000 108.2749  90.0000
ZERR    2.00   0.000863   0.001431   0.001028   0.0000   0.0162   0.0000
LATT  1
SYMM -x, y+1/2,-z
SFAC C H O
UNIT 12.00 24.00 2.00
TREF
HKLF 4
END
;
_shelx_hkl_checksum              59083
loop_
_space_group_symop_operation_xyz
'x, y, z'
'-x, y+1/2, -z'
'-x, -y, -z'
'x, -y-1/2, z'
loop_
_atom_site_label
_atom_site_type_symbol
_atom_site_fract_x
_atom_site_fract_y
_atom_site_fract_z
_atom_site_U_iso_or_equiv
_atom_site_adp_type
_atom_site_occupancy
_atom_site_site_symmetry_order
_atom_site_calc_flag
_atom_site_refinement_flags_posn
_atom_site_refinement_flags_adp
_atom_site_refinement_flags_occupancy
_atom_site_disorder_assembly
_atom_site_disorder_group
C3 C 0.5998(3) 0.2500 0.2766(3) 0.0208(5) Uani 1 2 d S T P . .
C2 C 0.5787(3) 0.2500 0.4893(3) 0.0233(5) Uani 1 2 d S T P . .
O1 O 0.3799(3) 0.2500 0.5186(2) 0.0424(5) Uani 1 2 d S T P . .
C4 C 0.3437(4) 0.2500 0.1197(3) 0.0320(5) Uani 1 2 d S T P . .
C1 C 0.8108(4) 0.2500 0.6653(3) 0.0407(7) Uani 1 2 d S T P . .
C5 C 0.7430(3) 0.39522(16) 0.2509(2) 0.0274(4) Uani 1 1 d . . . . .
H5A H 0.911(3) 0.3959(19) 0.345(3) 0.028(4) Uiso 1 1 d . . . . .
H5B H 0.661(3) 0.490(2) 0.275(3) 0.031(4) Uiso 1 1 d . . . . .
H5C H 0.747(3) 0.399(2) 0.110(3) 0.045(5) Uiso 1 1 d . . . . .
H1A H 0.819(7) 0.126(5) 0.699(6) 0.042(10) Uiso 0.5 1 d . . . . .
H1B H 0.802(7) 0.295(5) 0.788(6) 0.059(13) Uiso 0.5 1 d . . . . .
H4A H 0.360(5) 0.2500 -0.019(4) 0.044(7) Uiso 1 2 d S T P . .
H4B H 0.253(3) 0.346(2) 0.134(3) 0.038(4) Uiso 1 1 d . . . . .
H1C H 0.959(5) 0.2500 0.633(4) 0.046(7) Uiso 1 2 d S T P . .
loop_
_atom_site_aniso_label
_atom_site_aniso_U_11
_atom_site_aniso_U_22
_atom_site_aniso_U_33
_atom_site_aniso_U_23
_atom_site_aniso_U_13
_atom_site_aniso_U_12
C3 0.0198(9) 0.0209(9) 0.0215(9) 0.000 0.0060(7) 0.000
C2 0.0257(10) 0.0213(9) 0.0241(10) 0.000 0.0096(7) 0.000
O1 0.0293(9) 0.0680(12) 0.0354(9) 0.000 0.0180(7) 0.000
C4 0.0251(11) 0.0386(13) 0.0289(11) 0.000 0.0036(8) 0.000
C1 0.0326(12) 0.0668(19) 0.0209(10) 0.000 0.0061(9) 0.000
C5 0.0316(8) 0.0224(8) 0.0293(8) 0.0021(5) 0.0111(6) -0.0026(5)
loop_
_atom_type_symbol
_atom_type_description
_atom_type_scat_dispersion_real
_atom_type_scat_dispersion_imag
_atom_type_scat_source
C C 0.0033 0.0016 'International Tables Vol C Tables 4.2.6.8 and 6.1.1.4'
H H 0.0000 0.0000 'International Tables Vol C Tables 4.2.6.8 and 6.1.1.4'
O O 0.0106 0.0060 'International Tables Vol C Tables 4.2.6.8 and 6.1.1.4'
loop_
_citation_id
_citation_doi
_citation_year
1 10.1021/acs.cgd.5b01156 2015
loop_
_geom_angle_atom_site_label_1
_geom_angle_atom_site_label_2
_geom_angle_atom_site_label_3
_geom_angle
_geom_angle_site_symmetry_1
_geom_angle_site_symmetry_3
C2 C3 C5 108.64(10) . 4_565
C2 C3 C5 108.64(10) . .
C4 C3 C2 110.46(15) . .
C4 C3 C5 109.81(10) . 4_565
C4 C3 C5 109.81(10) . .
C5 C3 C5 109.44(15) 4_565 .
O1 C2 C3 121.76(17) . .
O1 C2 C1 119.56(18) . .
C1 C2 C3 118.68(17) . .
loop_
_geom_bond_atom_site_label_1
_geom_bond_atom_site_label_2
_geom_bond_distance
_geom_bond_site_symmetry_2
C3 C2 1.526(2) .
C3 C4 1.524(3) .
C3 C5 1.5374(16) .
C3 C5 1.5374(16) 4_565
C2 O1 1.212(2) .
C2 C1 1.495(3) .
loop_
_geom_torsion_atom_site_label_1
_geom_torsion_atom_site_label_2
_geom_torsion_atom_site_label_3
_geom_torsion_atom_site_label_4
_geom_torsion
_geom_torsion_site_symmetry_1
_geom_torsion_site_symmetry_2
_geom_torsion_site_symmetry_3
_geom_torsion_site_symmetry_4
C4 C3 C2 O1 0.000(0) . . . .
C4 C3 C2 C1 180.000(1) . . . .
C5 C3 C2 O1 -120.51(10) 4_565 . . .
C5 C3 C2 O1 120.51(10) . . . .
C5 C3 C2 C1 59.49(10) 4_565 . . .
C5 C3 C2 C1 -59.49(10) . . . .
