#------------------------------------------------------------------------------
#$Date: 2015-06-04 06:32:09 +0300 (Thu, 04 Jun 2015) $
#$Revision: 137844 $
#$URL: svn://www.crystallography.net/cod/cif/4/51/31/4513157.cif $
#------------------------------------------------------------------------------
#
# This file is available in the Crystallography Open Database (COD),
# http://www.crystallography.net/
#
# All data on this site have been placed in the public domain by the
# contributors.
#
data_4513157
loop_
_publ_author_name
'Abrahams, Brendan F.'
'Elliott, Robert W.'
'Hudson, Timothy A.'
'Robson, Richard'
'Sutton, Ashley L.'
_publ_section_title
;
 New CuI2(TCNQ--II) and CuI2(F4TCNQ--II) Coordination Polymers
;
_journal_issue                   5
_journal_name_full               'Crystal Growth &amp; Design'
_journal_page_first              2437
_journal_paper_doi               10.1021/acs.cgd.5b00220
_journal_volume                  15
_journal_year                    2015
_chemical_formula_sum            'C33 H21 Cu2 F4 N7 O'
_chemical_formula_weight         734.65
_chemical_name_common            '[Cu2(F4TCNQ)(quinoline)2].DMF'
_space_group_crystal_system      triclinic
_space_group_IT_number           2
_space_group_name_Hall           '-P 1'
_space_group_name_H-M_alt        'P -1'
_symmetry_space_group_name_Hall  '-P 1'
_symmetry_space_group_name_H-M   'P -1'
_atom_sites_solution_hydrogens   geom
_audit_creation_method           SHELXL-2014/7
_cell_angle_alpha                66.564(9)
_cell_angle_beta                 82.474(7)
_cell_angle_gamma                78.086(7)
_cell_formula_units_Z            1
_cell_length_a                   7.5552(6)
_cell_length_b                   10.3372(9)
_cell_length_c                   10.6344(10)
_cell_measurement_reflns_used    2481
_cell_measurement_temperature    130(2)
_cell_measurement_theta_max      74.2214
_cell_measurement_theta_min      4.5347
_cell_volume                     744.51(12)
_computing_cell_refinement
;
CrysAlisPro, Agilent Technologies,
Version 1.171.36.20 (release 27-06-2012 CrysAlis171 .NET)
(compiled Jul 11 2012,15:38:31)
;
_computing_data_collection
;
CrysAlisPro, Agilent Technologies,
Version 1.171.36.20 (release 27-06-2012 CrysAlis171 .NET)
(compiled Jul 11 2012,15:38:31)
;
_computing_data_reduction
;
CrysAlisPro, Agilent Technologies,
Version 1.171.36.20 (release 27-06-2012 CrysAlis171 .NET)
(compiled Jul 11 2012,15:38:31)
;
_computing_structure_refinement  'SHELXL-2014/7 (Sheldrick, 2014)'
_computing_structure_solution    'SHELXS-97 (Sheldrick, 1997)'
_diffrn_ambient_temperature      130(2)
_diffrn_detector_area_resol_mean 10.2273
_diffrn_measured_fraction_theta_full 0.999
_diffrn_measured_fraction_theta_max 0.998
_diffrn_measurement_device_type  'SuperNova, Dual, Cu at zero, Atlas'
_diffrn_measurement_method       '\w scans'
_diffrn_radiation_monochromator  mirror
_diffrn_radiation_source         'SuperNova (Cu) X-ray Source'
_diffrn_radiation_type           CuK\a
_diffrn_radiation_wavelength     1.54184
_diffrn_reflns_av_R_equivalents  0.0192
_diffrn_reflns_av_unetI/netI     0.0256
_diffrn_reflns_laue_measured_fraction_full 0.999
_diffrn_reflns_laue_measured_fraction_max 0.998
_diffrn_reflns_limit_h_max       9
_diffrn_reflns_limit_h_min       -9
_diffrn_reflns_limit_k_max       12
_diffrn_reflns_limit_k_min       -11
_diffrn_reflns_limit_l_max       11
_diffrn_reflns_limit_l_min       -12
_diffrn_reflns_number            4592
_diffrn_reflns_point_group_measured_fraction_full 0.999
_diffrn_reflns_point_group_measured_fraction_max 0.998
_diffrn_reflns_theta_full        67.684
_diffrn_reflns_theta_max         67.999
_diffrn_reflns_theta_min         4.538
_exptl_absorpt_coefficient_mu    2.341
_exptl_absorpt_correction_T_max  0.932
_exptl_absorpt_correction_T_min  0.699
_exptl_absorpt_correction_type   gaussian
_exptl_absorpt_process_details
;
CrysAlisPro, Agilent Technologies,
Version 1.171.36.20 (release 27-06-2012 CrysAlis171 .NET)
(compiled Jul 11 2012,15:38:31)
Numerical absorption correction based on gaussian integration over
            a multifaceted crystal model
;
_exptl_crystal_colour            'Pale Yellow'
_exptl_crystal_density_diffrn    1.639
_exptl_crystal_description       Rod
_exptl_crystal_F_000             370
_exptl_crystal_size_max          0.3438
_exptl_crystal_size_mid          0.0441
_exptl_crystal_size_min          0.0342
_platon_squeeze_details
;
The unit cell contains a highly disordered DMF molecule which has 
been treated as a diffuse contribution to the overall 
scattering without specific atom positions by SQUEEZE/PLATON
;
_refine_diff_density_max         0.291
_refine_diff_density_min         -0.505
_refine_diff_density_rms         0.051
_refine_ls_extinction_method     none
_refine_ls_goodness_of_fit_ref   1.079
_refine_ls_hydrogen_treatment    constr
_refine_ls_matrix_type           full
_refine_ls_number_parameters     190
_refine_ls_number_reflns         2702
_refine_ls_number_restraints     0
_refine_ls_restrained_S_all      1.079
_refine_ls_R_factor_all          0.0339
_refine_ls_R_factor_gt           0.0306
_refine_ls_shift/su_max          0.001
_refine_ls_shift/su_mean         0.000
_refine_ls_structure_factor_coef Fsqd
_refine_ls_weighting_details
'w=1/[\s^2^(Fo^2^)+(0.0506P)^2^+0.1156P] where P=(Fo^2^+2Fc^2^)/3'
_refine_ls_weighting_scheme      calc
_refine_ls_wR_factor_gt          0.0854
_refine_ls_wR_factor_ref         0.0884
_reflns_Friedel_coverage         0.000
_reflns_number_gt                2410
_reflns_number_total             2702
_reflns_threshold_expression     'I > 2\s(I)'
_cod_data_source_file            cg5b00220_si_002.cif
_cod_data_source_block           quinoline
_cod_database_code               4513157
_shelx_shelxl_version_number     2014/7
_shelx_space_group_comment
;
The symmetry employed for this shelxl refinement is uniquely defined
by the following loop, which should always be used as a source of
symmetry information in preference to the above space-group names.
They are only intended as comments.
;
_shelx_res_file
;

    shelx.res created by SHELXL-2014/7

TITL rweC93d in P-1
CELL  1.54184   7.5552  10.3372  10.6344   66.564   82.474   78.086
ZERR     1.00   0.0006   0.0009   0.0010    0.009    0.007    0.007
LATT   1
SFAC  C    H    N    F    CU   O
UNIT  33   21   7    4    2    1
MERG   2
OMIT     0.00 136.00
FMAP   2
PLAN   20
ACTA
BOND
L.S.  16
TEMP  -143.00
conf c1 c3 c4 c5
conf c2 c3 c4 c6
list 4
WGHT    0.050600    0.115600
FVAR       7.20584
MOLE    1
CU1   5    0.128596    0.840974    0.577877    11.00000    0.02080    0.08254 =
         0.05488   -0.05298    0.00196   -0.01207
F2    4   -0.782206    0.988020    0.875900    11.00000    0.01690    0.11374 =
         0.06072   -0.06728   -0.00273   -0.00916
F1    4   -0.153223    0.928618    0.919947    11.00000    0.01480    0.14547 =
         0.07322   -0.08682    0.00131   -0.00685
N2    3   -0.674423    0.872793    0.649860    11.00000    0.02288    0.09511 =
         0.05932   -0.06061    0.00333   -0.01225
N1    3   -0.114799    0.888109    0.645762    11.00000    0.02275    0.12242 =
         0.06880   -0.07884    0.00552   -0.01721
N3    3    0.149443    0.726588    0.461746    11.00000    0.02276    0.07580 =
         0.05874   -0.05069    0.00243   -0.01224
C8    1    0.086741    0.712701    0.252935    11.00000    0.05111    0.11184 =
         0.06988   -0.06892   -0.00387   -0.01569
AFIX  43
H8    2    0.040946    0.761453    0.164015    11.00000   -1.20000
AFIX   0
C3    1   -0.427121    0.913149    0.765771    11.00000    0.01853    0.08033 =
         0.04745   -0.04728    0.00099   -0.00902
C6    1   -0.636993    0.992000    0.935632    11.00000    0.01742    0.07107 =
         0.04325   -0.03912   -0.00353   -0.00956
C1    1   -0.255300    0.898900    0.701902    11.00000    0.02568    0.08884 =
         0.05294   -0.05596   -0.00140   -0.01138
C5    1   -0.328455    0.964176    0.956061    11.00000    0.01524    0.07782 =
         0.04815   -0.04510    0.00222   -0.00755
C4    1   -0.463631    0.954587    0.884244    11.00000    0.02086    0.06372 =
         0.04008   -0.03646    0.00016   -0.00809
C11   1    0.221404    0.583008    0.509294    11.00000    0.02569    0.06841 =
         0.07169   -0.04710    0.01390   -0.02008

C2    1   -0.564521    0.890864    0.703676    11.00000    0.02287    0.07107 =
         0.04382   -0.04303    0.00234   -0.00750
C10   1    0.224373    0.501360    0.427882    11.00000    0.03811    0.08207 =
         0.09347   -0.06510    0.02482   -0.02995
C9    1    0.154614    0.572239    0.297872    11.00000    0.05521    0.10803 =
         0.09270   -0.08503    0.01906   -0.02926
AFIX  43
H9    2    0.155182    0.520848    0.240968    11.00000   -1.20000
AFIX   0
C7    1    0.084448    0.786786    0.339709    11.00000    0.03344    0.08787 =
         0.06634   -0.05798   -0.00547   -0.00717
AFIX  43
H7    2    0.033043    0.885487    0.307857    11.00000   -1.20000
AFIX   0
C15   1    0.299977    0.353569    0.483662    11.00000    0.05843    0.07648 =
         0.12728   -0.06964    0.03738   -0.03472
AFIX  43
H15   2    0.300898    0.296636    0.432015    11.00000   -1.20000
AFIX   0
C12   1    0.294027    0.515569    0.639509    11.00000    0.04021    0.07231 =
         0.07405   -0.03544    0.00658   -0.02214
AFIX  43
H12   2    0.291766    0.568990    0.694787    11.00000   -1.20000
AFIX   0
C14   1    0.370396    0.292384    0.608202    11.00000    0.05984    0.06845 =
         0.12590   -0.04198    0.02759   -0.02632
AFIX  43
H14   2    0.421893    0.193692    0.642403    11.00000   -1.20000
AFIX   0
C13   1    0.368275    0.372693    0.687166    11.00000    0.05485    0.07726 =
         0.09173   -0.01926    0.00539   -0.02819
AFIX  43
H13   2    0.418569    0.328351    0.774709    11.00000   -1.20000
AFIX   0
HKLF    4

REM  rweC93d in P-1
REM R1 =  0.0306 for    2410 Fo > 4sig(Fo)  and  0.0339 for all    2702 data
REM    190 parameters refined using      0 restraints

END

WGHT      0.0506      0.1156

REM Highest difference peak  0.291,  deepest hole -0.505,  1-sigma level  0.051
Q1    1   0.2382  0.5337  0.4730  11.00000  0.05    0.29
Q2    1   0.1688  0.7445  0.4965  11.00000  0.05    0.29
Q3    1   0.0531  0.9822  0.4820  11.00000  0.05    0.27
Q4    1   0.2158  0.5502  0.3519  11.00000  0.05    0.23
Q5    1   0.1942  0.6418  0.4791  11.00000  0.05    0.23
Q6    1   0.3050  0.3884  0.6428  11.00000  0.05    0.22
Q7    1  -0.4663  0.8925  0.7569  11.00000  0.05    0.22
Q8    1   0.1917  0.7138  0.6715  11.00000  0.05    0.22
Q9    1   0.3522  0.3765  0.5199  11.00000  0.05    0.22
Q10   1   0.2469  0.4214  0.4337  11.00000  0.05    0.21
Q11   1  -0.5381  0.9771  0.8977  11.00000  0.05    0.21
Q12   1   0.1083  0.7814  0.1831  11.00000  0.05    0.21
Q13   1  -0.3994  0.9607  0.9181  11.00000  0.05    0.20
Q14   1  -0.3557  0.9652  1.0210  11.00000  0.05    0.20
Q15   1  -0.4458  0.9160  0.8400  11.00000  0.05    0.19
Q16   1   0.2501  0.6976  0.5976  11.00000  0.05    0.19
Q17   1   0.3087  0.3194  0.4828  11.00000  0.05    0.18
Q18   1   0.2429  0.5731  0.5511  11.00000  0.05    0.18
Q19   1  -0.7417  0.8622  0.6460  11.00000  0.05    0.18
Q20   1   0.1332  0.7540  0.3941  11.00000  0.05    0.18
;
_shelx_res_checksum              5332
_shelx_hkl_file
;
   0   0   1  407998     923                                                      145178   35.91    0.00  1.0000
   0   0   2   21609    1222                                                      119216   27.62    0.00  1.0000
   0   0   3   37712    1466                                                      105962   18.30    0.00  1.0000
   0   0   4   36636     628                                                       13002   10.78    0.00  1.0000
   0   0   5    9391     360                                                        3094    5.75    0.00  1.0000
   0   0   6   27604    1081                                                       21600    2.67    0.00  1.0000
   0   0   7    4141     588                                                        5041    0.93    0.00  1.0000
   0   0  -7    5104     267                                                        6099    0.93    0.00  1.0000
   0   0  -8    3673     228                                                        3622    0.06    0.00  1.0000
   0   0   8    4564     607                                                        4507    0.06    0.00  1.0000
   0   0  -8    4178     243                                                        4124    0.06    0.00  1.0000
   0   0  -9    1584     144                                                        1414   -0.31    0.00  1.0000
   0   0  -9    1502     150                                                        1336   -0.31    0.00  1.0000
   0   0 -10      43      53                                                          87   -0.38    0.00  1.0000
   0   0 -11     933     112                                                        1055   -0.27    0.00  1.0000
   0   0 -12      85      33                                                          72   -0.10    0.00  1.0000
   0   1 -11     904      95                                                         871    0.08    0.00  1.0000
   0   1 -10     909     121                                                        1028    0.27    0.00  1.0000
   0   1 -10     835     107                                                         949    0.27    0.00  1.0000
   0   1  -9     999     111                                                         784    0.50    0.00  1.0000
   0   1  -9     945     114                                                         737    0.50    0.00  1.0000
   0   1  -8     104      77                                                         228    0.68    0.00  1.0000
   0  -1   7      20     147                                                        -150    0.63    0.00  1.0000
   0   1  -7     120      63                                                         239    0.63    0.00  1.0000
   0  -1   6   18047    1038                                                       17950    0.05    0.00  1.0000
   0  -1   5    2488     285                                                        1620   -1.34    0.00  1.0000
   0  -1   4   72759    1742                                                       88550   -3.88    0.00  1.0000
   0  -1   3  104565    1313                                                       69857   -8.23    0.00  1.0000
   0  -1   2    5952     760                                                       34275  -15.04    0.00  1.0000
   0  -1   1  248157    1028                                                      108227  -23.57    0.00  1.0000
   0  -1   0  293995     726                                                      102730  -30.89    0.00  1.0000
   0  -1  -1   77168      79                                                        1356  -33.57    0.00  1.0000
   0   1   2   32700     134                                                        1459  -30.51    0.00  1.0000
   0   1   3   52428    1693                                                      159590  -23.76    0.00  1.0000
   0   1   4   23376    1387                                                       73457  -16.46    0.00  1.0000
   0   1   5   16544    1237                                                       41811  -10.57    0.00  1.0000
   0   1   6   30098    1546                                                       48209   -6.42    0.00  1.0000
   0   1   7    7929     502                                                        3927   -3.68    0.00  1.0000
   0   1   8   11632    1074                                                       14847   -1.95    0.00  1.0000
   0  -1  -8   12501     459                                                       15827   -1.95    0.00  1.0000
   0  -1  -9   13911     432                                                       12466   -0.88    0.00  1.0000
   0  -1  -9   14700     463                                                       13213   -0.88    0.00  1.0000
   0  -1 -10    4253     259                                                        4441   -0.20    0.00  1.0000
   0  -1 -10    4215     256                                                        4402   -0.20    0.00  1.0000
   0  -1 -11       1      60                                                         -71    0.14    0.00  1.0000
   0  -1 -12     122      41                                                          94    0.19    0.00  1.0000
   0   2 -11     215      42                                                         223   -0.04    0.00  1.0000
   0   2 -10     841      94                                                         817   -0.06    0.00  1.0000
   0   2 -10     855      94                                                         831   -0.06    0.00  1.0000
   0   2  -9    2609     199                                                        2756   -0.20    0.00  1.0000
   0   2  -9    2136     176                                                        2270   -0.20    0.00  1.0000
   0   2  -8    2324     174                                                        2013   -0.47    0.00  1.0000
   0  -2   7    2578     488                                                        3180   -0.78    0.00  1.0000
   0   2  -7    3371     235                                                        4056   -0.78    0.00  1.0000
   0  -2   6     758     280                                                        1170   -0.93    0.00  1.0000
   0  -2   5     782     238                                                        1076   -0.67    0.00  1.0000
   0  -2   4    2389     322                                                        2385    0.01    0.00  1.0000
   0  -2   3   45977    1229                                                       49808    1.22    0.00  1.0000
   0  -2   2   69423    1110                                                       56382    3.63    0.00  1.0000
   0  -2   1  888403    3834                                                      999999    8.00    0.00  1.0000
   0  -2   0   44780     988                                                       96742   13.85    0.00  1.0000
   0   2   0   43684     949                                                       95128   13.85    0.00  1.0000
   0   2   0   43693     949                                                       95141   13.85    0.00  1.0000
   0  -2  -1   49779     199                                                        7599   18.94    0.00  1.0000
   0   2   1   52127     252                                                        8533   18.94    0.00  1.0000
   0   2   2  146983    1030                                                      284662   20.92    0.00  1.0000
   0   2   3   61144     460                                                       11751   19.35    0.00  1.0000
   0   2   4   23506     206                                                        1634   15.73    0.00  1.0000
   0   2   5  136244    1652                                                       80751   11.83    0.00  1.0000
   0   2   6    3397     807                                                       14252    8.51    0.00  1.0000
   0   2   7     191     233                                                         807    5.88    0.00  1.0000
   0  -2  -8     413      44                                                          60    3.91    0.00  1.0000
   0   2   8     788     170                                                        -315    3.91    0.00  1.0000
   0  -2  -9    8121     407                                                       11640    2.48    0.00  1.0000
   0  -2 -10    4498     222                                                        3263    1.39    0.00  1.0000
   0  -2 -10    4700     244                                                        3435    1.39    0.00  1.0000
   0  -2 -11     854     128                                                        1108    0.57    0.00  1.0000
   0  -2 -11     899     142                                                        1159    0.57    0.00  1.0000
   0  -2 -11     781     119                                                        1025    0.57    0.00  1.0000
   0  -2 -12    2765     168                                                        2698    0.09    0.00  1.0000
   0  -2 -12    2589     136                                                        2524    0.09    0.00  1.0000
   0   3 -10       0      32                                                         -37    0.04    0.00  1.0000
   0   3 -10       0      26                                                         -11    0.04    0.00  1.0000
   0   3  -9      67      51                                                          64    0.03    0.00  1.0000
   0   3  -9      44      47                                                          41    0.03    0.00  1.0000
   0   3  -8     350      82                                                         383    0.12    0.00  1.0000
   0   3  -8     371      93                                                         405    0.12    0.00  1.0000
   0   3  -7    3104     196                                                        2816    0.37    0.00  1.0000
   0   3  -6    1056     170                                                        1414    0.71    0.00  1.0000
   0  -3   6    1367     342                                                        1771    0.71    0.00  1.0000
   0   3  -6    1291     141                                                        1684    0.71    0.00  1.0000
   0  -3   5    7816     628                                                        6656    0.95    0.00  1.0000
   0  -3   4    9102     704                                                       10529    1.00    0.00  1.0000
   0  -3   3     539     192                                                         949    1.06    0.00  1.0000
   0  -3   2    3043     257                                                        2228    1.11    0.00  1.0000
   0  -3   1  513093    3260                                                      518197    0.50    0.00  1.0000
   0   3   0   18777     579                                                       22003   -1.58    0.00  1.0000
   0  -3   0   19591     595                                                       22884   -1.58    0.00  1.0000
   0   3   1    9144     211                                                        3692   -4.86    0.00  1.0000
   0   3   1    9039     126                                                        3626   -4.86    0.00  1.0000
   0  -3  -1    8474     153                                                        3271   -4.86    0.00  1.0000
   0   3   2   14262     222                                                        3909   -7.93    0.00  1.0000
   0   3   2   13694     137                                                        3615   -7.93    0.00  1.0000
   0  -3  -2   14334     188                                                        3947   -7.93    0.00  1.0000
   0   3   3  211839    1316                                                      279043   -9.47    0.00  1.0000
   0   3   3  206313    2283                                                      272696   -9.47    0.00  1.0000
   0   3   4    4541      76                                                        -123   -9.39    0.00  1.0000
   0   3   5  151436    2548                                                      202154   -8.42    0.00  1.0000
   0   3   6   12078     386                                                        3402   -7.18    0.00  1.0000
   0   3   7   19160    1346                                                       32556   -5.85    0.00  1.0000
   0   3   8   52569    1640                                                       38686   -4.54    0.00  1.0000
   0  -3  -8   52600     658                                                       38712   -4.54    0.00  1.0000
   0  -3  -8   50586     631                                                       36987   -4.54    0.00  1.0000
   0  -3  -9    6279     378                                                       10714   -3.38    0.00  1.0000
   0  -3 -10      85     110                                                         684   -2.36    0.00  1.0000
   0  -3 -11     861      89                                                         368   -1.42    0.00  1.0000
   0  -3 -11     620      68                                                         217   -1.42    0.00  1.0000
   0  -3 -11     914      90                                                         403   -1.42    0.00  1.0000
   0  -3 -12    5255     247                                                        5937   -0.64    0.00  1.0000
   0  -3 -12    5060     251                                                        5729   -0.64    0.00  1.0000
   0   4  -9      41      35                                                          37   -0.05    0.00  1.0000
   0   4  -8       0      42                                                         -20   -0.07    0.00  1.0000
   0   4  -8       0      59                                                        -112   -0.07    0.00  1.0000
   0   4  -7     461     100                                                         501   -0.12    0.00  1.0000
   0   4  -7     355      73                                                         389   -0.12    0.00  1.0000
   0   4  -6       5      70                                                         -84   -0.30    0.00  1.0000
   0   4  -6      38      69                                                          16   -0.30    0.00  1.0000
   0   4  -5    2540     202                                                        2958   -0.56    0.00  1.0000
   0   4  -5    2354     220                                                        2758   -0.56    0.00  1.0000
   0   4  -5    2474     432                                                        2888   -0.56    0.00  1.0000
   0  -4   4   12495     766                                                       11270   -0.78    0.00  1.0000
   0  -4   3   15417     859                                                       17263   -1.01    0.00  1.0000
   0   4  -2   49322    1264                                                       44840   -1.44    0.00  1.0000
   0  -4   2   49945    1223                                                       45435   -1.44    0.00  1.0000
   0   4  -1   59624    1214                                                       52729   -2.03    0.00  1.0000
   0  -4   1   61861    1186                                                       54833   -2.03    0.00  1.0000
   0  -4   0   12313     471                                                       16028   -2.18    0.00  1.0000
   0   4   0   12928     328                                                       16728   -2.18    0.00  1.0000
   0   4   0   12251     588                                                       15958   -2.18    0.00  1.0000
   0   4   1   40669     791                                                       36940   -1.32    0.00  1.0000
   0   4   1   39528     474                                                       35853   -1.32    0.00  1.0000
   0   4   2   44761     825                                                       43706    0.35    0.00  1.0000
   0   4   2   43996     538                                                       42950    0.35    0.00  1.0000
   0   4   3       3      69                                                         162    2.00    0.00  1.0000
   0   4   3      13      43                                                         115    2.00    0.00  1.0000
   0   4   3      28      52                                                          82    2.00    0.00  1.0000
   0   4   4  208216    2184                                                      188638    3.06    0.00  1.0000
   0   4   5    5784     585                                                       10371    3.59    0.00  1.0000
   0   4   6      16     209                                                         996    3.84    0.00  1.0000
   0   4   7    9737     521                                                        5053    3.84    0.00  1.0000
   0   4   8   43231    1888                                                       54535    3.57    0.00  1.0000
   0   4   8   42946     847                                                       54214    3.57    0.00  1.0000
   0  -4  -8   44613     837                                                       56086    3.57    0.00  1.0000
   0  -4  -9    2117     108                                                         562    3.11    0.00  1.0000
   0  -4  -9    2025      90                                                         515    3.11    0.00  1.0000
   0   4   9    2180      99                                                         595    3.11    0.00  1.0000
   0  -4  -9    2090      92                                                         548    3.11    0.00  1.0000
   0  -4 -10      18      57                                                         196    2.54    0.00  1.0000
   0  -4 -10       2      61                                                         282    2.54    0.00  1.0000
   0  -4 -10       0      93                                                         325    2.54    0.00  1.0000
   0  -4 -11    1303      92                                                         521    1.85    0.00  1.0000
   0  -4 -12     474      55                                                         199    1.07    0.00  1.0000
   0  -4 -12     599      65                                                         283    1.07    0.00  1.0000
   0   5  -9      29      27                                                          34    0.06    0.00  1.0000
   0   5  -8     278      62                                                         242    0.16    0.00  1.0000
   0   5  -7       2      48                                                          -3    0.19    0.00  1.0000
   0   5  -6      71      63                                                          92    0.16    0.00  1.0000
   0   5  -6      94      66                                                         117    0.16    0.00  1.0000
   0   5  -5    1848     169                                                        1740    0.18    0.00  1.0000
   0   5  -5    1759     184                                                        1653    0.18    0.00  1.0000
   0   5  -4    5773     318                                                        6073    0.27    0.00  1.0000
   0   5  -4    6171     638                                                        6481    0.27    0.00  1.0000
   0   5  -4    5411     299                                                        5701    0.27    0.00  1.0000
   0   5  -4    5146     257                                                        5429    0.27    0.00  1.0000
   0   5  -3    9796     701                                                        9239    0.40    0.00  1.0000
   0   5  -2   59938     811                                                       62129    0.62    0.00  1.0000
   0   5  -2   59531    1627                                                       61715    0.62    0.00  1.0000
   0   5  -1     264      80                                                         568    1.06    0.00  1.0000
   0   5  -1      72     107                                                         259    1.06    0.00  1.0000
   0   5   0    2662     211                                                        1613    1.59    0.00  1.0000
   0   5   0    2478     123                                                        1471    1.59    0.00  1.0000
   0   5   1   26554     528                                                       30969    1.81    0.00  1.0000
   0   5   2   50146     641                                                       45570    1.46    0.00  1.0000
   0   5   2   52423     985                                                       47742    1.46    0.00  1.0000
   0   5   3     307     113                                                         517    0.73    0.00  1.0000
   0   5   3     240      74                                                         429    0.73    0.00  1.0000
   0   5   4  102874    1656                                                      102809    0.01    0.00  1.0000
   0   5   4  104449    1492                                                      104383    0.01    0.00  1.0000
   0   5   4  100802    1057                                                      100738    0.01    0.00  1.0000
   0   5   5    4040     353                                                        3553   -0.55    0.00  1.0000
   0   5   5    3766     298                                                        3296   -0.55    0.00  1.0000
   0   5   6    1113     276                                                        1685   -1.07    0.00  1.0000
   0   5   7    7986     561                                                        6109   -1.56    0.00  1.0000
   0   5   8    7320     281                                                        5177   -1.90    0.00  1.0000
   0  -5  -8    7034     250                                                        4937   -1.90    0.00  1.0000
   0  -5  -8    7449     272                                                        5285   -1.90    0.00  1.0000
   0   5   8    7592     588                                                        5406   -1.90    0.00  1.0000
   0  -5  -9    8586     407                                                       11485   -2.02    0.00  1.0000
   0  -5  -9    8386     404                                                       11252   -2.02    0.00  1.0000
   0   5   9    7938     412                                                       10733   -2.02    0.00  1.0000
   0  -5 -10   11832     365                                                        8971   -1.96    0.00  1.0000
   0  -5 -10   12197     358                                                        9290   -1.96    0.00  1.0000
   0  -5 -11   22034     579                                                       25755   -1.68    0.00  1.0000
   0  -5 -11   21922     524                                                       25633   -1.68    0.00  1.0000
   0  -5 -12    2184     121                                                        1478   -1.16    0.00  1.0000
   0  -5 -12    2383     148                                                        1642   -1.16    0.00  1.0000
   0  -5 -13    1854     118                                                        2207   -0.55    0.00  1.0000
   0   6  -8     131      41                                                         161   -0.17    0.00  1.0000
   0   6  -7       3      51                                                         -60   -0.24    0.00  1.0000
   0   6  -6     821     125                                                         904   -0.20    0.00  1.0000
   0   6  -5    2636     205                                                        2582   -0.07    0.00  1.0000
   0   6  -5    2548     219                                                        2495   -0.07    0.00  1.0000
   0   6  -5    2678     215                                                        2623   -0.07    0.00  1.0000
   0   6  -4    2255     196                                                        2241    0.02    0.00  1.0000
   0   6  -4    2068     201                                                        2054    0.02    0.00  1.0000
   0   6  -4    2190     197                                                        2175    0.02    0.00  1.0000
   0   6  -3     224      83                                                         236    0.06    0.00  1.0000
   0   6  -3     162      66                                                         173    0.06    0.00  1.0000
   0   6  -3     140      52                                                         149    0.06    0.00  1.0000
   0   6  -2   24650     591                                                       24753    0.05    0.00  1.0000
   0   6  -2   27041     590                                                       27149    0.05    0.00  1.0000
   0   6  -1    9543     343                                                        9627   -0.06    0.00  1.0000
   0   6   0    8431     310                                                        8006   -0.33    0.00  1.0000
   0   6   1    2027     175                                                        2481   -0.67    0.00  1.0000
   0   6   2     954     133                                                        1381   -0.87    0.00  1.0000
   0   6   3    9273     368                                                       10483   -0.85    0.00  1.0000
   0   6   4   19678     540                                                       21088   -0.69    0.00  1.0000
   0   6   4   20336     800                                                       21769   -0.69    0.00  1.0000
   0   6   5    8244     531                                                        7626   -0.48    0.00  1.0000
   0   6   6   16800     845                                                       17196   -0.21    0.00  1.0000
   0   6   7   52586    1643                                                       53069    0.15    0.00  1.0000
   0  -6  -7   55679     872                                                       56176    0.15    0.00  1.0000
   0   6   7   54402     925                                                       54894    0.15    0.00  1.0000
   0  -6  -8    4301     243                                                        3838    0.50    0.00  1.0000
   0   6   8    4072     457                                                        3623    0.50    0.00  1.0000
   0   6   8    3720     239                                                        3291    0.50    0.00  1.0000
   0  -6  -9      76      70                                                         205    0.78    0.00  1.0000
   0  -6 -10     162      83                                                         383    0.95    0.00  1.0000
   0  -6 -11   15874     409                                                       14115    1.00    0.00  1.0000
   0  -6 -12    8251     340                                                        9390    0.85    0.00  1.0000
   0  -6 -12    7387     245                                                        8467    0.85    0.00  1.0000
   0  -6 -13   13221     278                                                       12411    0.50    0.00  1.0000
   0   7  -7      16      28                                                          23    0.11    0.00  1.0000
   0   7  -6     187      57                                                         171    0.09    0.00  1.0000
   0   7  -5     278      77                                                         279    0.01    0.00  1.0000
   0   7  -5     366      84                                                         367    0.01    0.00  1.0000
   0   7  -5     297      76                                                         299    0.01    0.00  1.0000
   0   7  -4     302      90                                                         320   -0.07    0.00  1.0000
   0   7  -4     309      85                                                         327   -0.07    0.00  1.0000
   0   7  -4     335      89                                                         353   -0.07    0.00  1.0000
   0   7  -3    1499     161                                                        1437   -0.11    0.00  1.0000
   0   7  -3    1708     163                                                        1641   -0.11    0.00  1.0000
   0   7  -3    1604     177                                                        1540   -0.11    0.00  1.0000
   0   7  -2    1439     155                                                        1350   -0.17    0.00  1.0000
   0   7  -2    1475     142                                                        1386   -0.17    0.00  1.0000
   0   7  -2    1340     146                                                        1255   -0.17    0.00  1.0000
   0   7  -1    1184     147                                                        1314   -0.26    0.00  1.0000
   0   7  -1    1264     148                                                        1398   -0.26    0.00  1.0000
   0   7   0    6544     311                                                        6169   -0.33    0.00  1.0000
   0   7   1    8462     363                                                        8832   -0.28    0.00  1.0000
   0   7   2    3506     230                                                        3430   -0.09    0.00  1.0000
   0   7   3   37069     759                                                       36644    0.15    0.00  1.0000
   0   7   4    4829     298                                                        5202    0.37    0.00  1.0000
   0   7   5     602      79                                                         443    0.49    0.00  1.0000
   0  -7  -6    2275     164                                                        1959    0.48    0.00  1.0000
   0   7   6    2357     158                                                        2035    0.48    0.00  1.0000
   0  -7  -7   31915     693                                                       32847    0.36    0.00  1.0000
   0   7   7   29939     611                                                       30842    0.36    0.00  1.0000
   0  -7  -8    9796     389                                                        9502    0.21    0.00  1.0000
   0  -7  -9    3514     242                                                        3585    0.08    0.00  1.0000
   0  -7 -10    8959     367                                                        9005   -0.03    0.00  1.0000
   0  -7 -11     208      68                                                         246   -0.17    0.00  1.0000
   0  -7 -12      67      49                                                         103   -0.28    0.00  1.0000
   0  -7 -12      49      39                                                          81   -0.28    0.00  1.0000
   0   8  -5      36      35                                                          48    0.13    0.00  1.0000
   0   8  -5      11      29                                                          18    0.13    0.00  1.0000
   0   8  -4     361      77                                                         336    0.09    0.00  1.0000
   0   8  -4     184      63                                                         166    0.09    0.00  1.0000
   0   8  -4     249      60                                                         228    0.09    0.00  1.0000
   0   8  -3    2524     213                                                        2520   -0.01    0.00  1.0000
   0   8  -3    2299     190                                                        2296   -0.01    0.00  1.0000
   0   8  -3    2229     171                                                        2225   -0.01    0.00  1.0000
   0   8  -2     143      76                                                         157   -0.08    0.00  1.0000
   0   8  -2      28      65                                                          35   -0.08    0.00  1.0000
   0   8  -1      53      46                                                          58   -0.04    0.00  1.0000
   0   8  -1       9      49                                                          11   -0.04    0.00  1.0000
   0   8   0     674     106                                                         727    0.14    0.00  1.0000
   0   8   0     587     108                                                         637    0.14    0.00  1.0000
   0   8   0     649     120                                                         701    0.14    0.00  1.0000
   0   8   1     468     107                                                         361    0.37    0.00  1.0000
   0   8   1     433      76                                                         331    0.37    0.00  1.0000
   0   8   2     109      66                                                         198    0.50    0.00  1.0000
   0   8   2      60      74                                                         129    0.50    0.00  1.0000
   0   8   3   13369     420                                                       12635    0.45    0.00  1.0000
   0   8   3   14094     508                                                       13341    0.45    0.00  1.0000
   0   8   4    3766     281                                                        3973    0.23    0.00  1.0000
   0   8   4    3728     241                                                        3934    0.23    0.00  1.0000
   0  -8  -5    2249     170                                                        2265   -0.02    0.00  1.0000
   0   8   5    2381     190                                                        2399   -0.02    0.00  1.0000
   0  -8  -6    3137     206                                                        2981   -0.20    0.00  1.0000
   0   8   6    3296     215                                                        3136   -0.20    0.00  1.0000
   0   8   7     377      74                                                         309   -0.26    0.00  1.0000
   0  -8  -7     529      92                                                         447   -0.26    0.00  1.0000
   0   8   8    5447     270                                                        5748   -0.28    0.00  1.0000
   0  -8  -8    5188     300                                                        5482   -0.28    0.00  1.0000
   0  -8  -9   11599     418                                                       11104   -0.32    0.00  1.0000
   0  -8 -10   36955     730                                                       37960   -0.36    0.00  1.0000
   0  -8 -11    7323     279                                                        6942   -0.31    0.00  1.0000
   0  -8 -12    7220     228                                                        7436   -0.18    0.00  1.0000
   0  -8 -12    7554     261                                                        7775   -0.18    0.00  1.0000
   0   9  -4       0      30                                                         -12   -0.03    0.00  1.0000
   0   9  -3     683     107                                                         742    0.15    0.00  1.0000
   0   9  -2     869     121                                                         734    0.33    0.00  1.0000
   0   9  -1    1623     168                                                        1870    0.41    0.00  1.0000
   0   9  -1    1892     204                                                        2158    0.41    0.00  1.0000
   0   9   0    1203     143                                                        1037    0.35    0.00  1.0000
   0   9   0    1200     128                                                        1035    0.35    0.00  1.0000
   0   9   1     432      94                                                         475    0.14    0.00  1.0000
   0   9   1     555     118                                                         604    0.14    0.00  1.0000
   0   9   1     601     109                                                         651    0.14    0.00  1.0000
   0   9   2    1283     147                                                        1355   -0.14    0.00  1.0000
   0   9   2    1539     190                                                        1618   -0.14    0.00  1.0000
   0   9   3     627     119                                                         768   -0.37    0.00  1.0000
   0   9   3     536     124                                                         667   -0.37    0.00  1.0000
   0   9   4    1214     140                                                        1001   -0.45    0.00  1.0000
   0   9   5    8789     388                                                        9289   -0.37    0.00  1.0000
   0   9   6   19270     545                                                       18817   -0.23    0.00  1.0000
   0  -9  -6   19246     499                                                       18794   -0.23    0.00  1.0000
   0  -9  -7    7552     334                                                        7699   -0.12    0.00  1.0000
   0   9   7    7933     349                                                        8083   -0.12    0.00  1.0000
   0   9   8     368      77                                                         362   -0.02    0.00  1.0000
   0  -9  -8     413      83                                                         407   -0.02    0.00  1.0000
   0   9   9    1393     121                                                        1339    0.10    0.00  1.0000
   0  -9  -9    1364     144                                                        1311    0.10    0.00  1.0000
   0  -9 -10    2785     182                                                        2610    0.23    0.00  1.0000
   0  -9 -11    2325     157                                                        2535    0.30    0.00  1.0000
   0  -9 -12   13617     264                                                       13208    0.25    0.00  1.0000
   0  10  -3       4      24                                                          -1   -0.26    0.00  1.0000
   0  10  -2      26      45                                                          70   -0.45    0.00  1.0000
   0  10  -1      15      60                                                         -66   -0.54    0.00  1.0000
   0  10   0      11      61                                                          51   -0.52    0.00  1.0000
   0  10   1     113      38                                                          56   -0.44    0.00  1.0000
   0  10   1     146      46                                                          79   -0.44    0.00  1.0000
   0  10   2    2843     208                                                        3077   -0.30    0.00  1.0000
   0  10   2    2552     202                                                        2774   -0.30    0.00  1.0000
   0  10   3    1038     130                                                        1002   -0.08    0.00  1.0000
   0  10   4     397      84                                                         355    0.15    0.00  1.0000
   0  10   5     361      82                                                         284    0.30    0.00  1.0000
   0  10   6    2599     215                                                        2855    0.34    0.00  1.0000
   0  10   7    6036     286                                                        5677    0.33    0.00  1.0000
   0 -10  -7    5263     242                                                        4928    0.33    0.00  1.0000
   0 -10  -8    4752     245                                                        5029    0.28    0.00  1.0000
   0  10   8    4762     248                                                        5039    0.28    0.00  1.0000
   0  10   9    9976     298                                                        9734    0.17    0.00  1.0000
   0 -10  -9   10598     338                                                       10349    0.17    0.00  1.0000
   0 -10 -10     323      65                                                         331    0.03    0.00  1.0000
   0 -10 -11     154      40                                                         168   -0.08    0.00  1.0000
   0  11  -1       7      29                                                         -11    0.38    0.00  1.0000
   0  11   0       6      38                                                          25    0.35    0.00  1.0000
   0  11   1       6      49                                                          21    0.28    0.00  1.0000
   0  11   2    1008     100                                                         895    0.25    0.00  1.0000
   0  11   3     889     116                                                         983    0.22    0.00  1.0000
   0  11   4    1407     139                                                        1347    0.11    0.00  1.0000
   0  11   4    1372     125                                                        1313    0.11    0.00  1.0000
   0  11   5     818     115                                                         811   -0.02    0.00  1.0000
   0  11   6     200      70                                                         224   -0.12    0.00  1.0000
   0  11   7     594      95                                                         656   -0.17    0.00  1.0000
   0  11   8     134      47                                                         103   -0.20    0.00  1.0000
   0  11   9    2495     132                                                        2630   -0.19    0.00  1.0000
   0 -11  -9    2688     135                                                        2828   -0.19    0.00  1.0000
   0  12   1      41      26                                                          40    0.00    0.00  1.0000
   0  12   2      12      33                                                          13    0.03    0.00  1.0000
   0  12   3      52      27                                                          54   -0.02    0.00  1.0000
   0  12   3       0      33                                                         -10   -0.02    0.00  1.0000
   0  12   4     198      48                                                         211   -0.06    0.00  1.0000
   0  12   4     188      58                                                         200   -0.06    0.00  1.0000
   0  12   5     764      88                                                         737   -0.07    0.00  1.0000
   0  12   6    1817     132                                                        1858   -0.07    0.00  1.0000
   0  12   7     436      64                                                         415   -0.07    0.00  1.0000
   0  12   8     686      66                                                         703   -0.05    0.00  1.0000
  -1  12   7    1303      85                                                        1315    0.02    0.00  1.0000
  -1  12   6     583      66                                                         579    0.01    0.00  1.0000
  -1  12   5     589      69                                                         574   -0.04    0.00  1.0000
  -1  12   4     236      48                                                         255   -0.08    0.00  1.0000
  -1  11   8     818      81                                                         813    0.01    0.00  1.0000
  -1  11   7    3263     184                                                        3207   -0.07    0.00  1.0000
  -1  11   6    1613     148                                                        1685   -0.12    0.00  1.0000
  -1  11   5    2237     170                                                        2182   -0.08    0.00  1.0000
  -1  11   4     847     112                                                         830    0.04    0.00  1.0000
  -1  11   3      11      44                                                          18    0.12    0.00  1.0000
  -1  11   3       1      47                                                         -26    0.12    0.00  1.0000
  -1  11   2       0      37                                                         -25    0.07    0.00  1.0000
  -1  11   2      29      44                                                          23    0.07    0.00  1.0000
  -1  11   1       6      45                                                           8   -0.06    0.00  1.0000
  -1  11   0      18      36                                                          11   -0.13    0.00  1.0000
  -1  11  -1      24      32                                                          32   -0.10    0.00  1.0000
   1 -10 -10     893      84                                                         936    0.10    0.00  1.0000
   1 -10  -9    8238     268                                                        8174    0.05    0.00  1.0000
  -1  10   8    7700     287                                                        7753    0.04    0.00  1.0000
   1 -10  -8    8346     285                                                        8400    0.04    0.00  1.0000
  -1  10   7     211      71                                                         188    0.11    0.00  1.0000
  -1  10   6      13      52                                                          28    0.22    0.00  1.0000
  -1  10   5    1035     149                                                        1164    0.27    0.00  1.0000
  -1  10   4     752     116                                                         680    0.19    0.00  1.0000
  -1  10   3     550     105                                                         556    0.02    0.00  1.0000
  -1  10   2    1181     137                                                        1225   -0.09    0.00  1.0000
  -1  10   1     756     104                                                         743   -0.03    0.00  1.0000
  -1  10   1     901     136                                                         887   -0.03    0.00  1.0000
  -1  10   0     214      71                                                         191    0.11    0.00  1.0000
  -1  10  -1       2      54                                                         -52    0.20    0.00  1.0000
  -1  10  -2     253      65                                                         296    0.18    0.00  1.0000
   1  -9 -11     136      40                                                         131   -0.03    0.00  1.0000
   1  -9 -10       0      41                                                         -23   -0.04    0.00  1.0000
   1  -9  -9    4509     239                                                        4540   -0.03    0.00  1.0000
  -1   9   8   10306     353                                                       10263   -0.03    0.00  1.0000
   1  -9  -8   10530     373                                                       10487   -0.03    0.00  1.0000
  -1   9   7    5260     283                                                        5336   -0.07    0.00  1.0000
   1  -9  -7    5199     266                                                        5274   -0.07    0.00  1.0000
   1  -9  -6   21850     508                                                       21468   -0.18    0.00  1.0000
  -1   9   6   21722     592                                                       21341   -0.18    0.00  1.0000
  -1   9   5    7844     378                                                        8275   -0.33    0.00  1.0000
  -1   9   4     583     103                                                         437   -0.45    0.00  1.0000
  -1   9   3     735     112                                                         572   -0.45    0.00  1.0000
  -1   9   2    2536     215                                                        2793   -0.35    0.00  1.0000
  -1   9   1    1543     152                                                        1395   -0.27    0.00  1.0000
  -1   9   0    1217     141                                                        1355   -0.27    0.00  1.0000
  -1   9   0    1401     138                                                        1549   -0.27    0.00  1.0000
  -1   9   0    1354     180                                                        1499   -0.27    0.00  1.0000
  -1   9  -1     516     110                                                         429   -0.28    0.00  1.0000
  -1   9  -2       3      55                                                          -9   -0.24    0.00  1.0000
  -1   9  -3      74      54                                                         100   -0.20    0.00  1.0000
  -1   9  -4       2      32                                                         -13   -0.20    0.00  1.0000
   1  -8 -12    3037     130                                                        3084   -0.06    0.00  1.0000
   1  -8 -11    4441     206                                                        4358   -0.09    0.00  1.0000
   1  -8 -10   11608     386                                                       11779   -0.11    0.00  1.0000
   1  -8  -9    5230     274                                                        5098   -0.13    0.00  1.0000
  -1   8   8    2845     184                                                        2748   -0.13    0.00  1.0000
   1  -8  -8    2781     205                                                        2685   -0.13    0.00  1.0000
  -1   8   7    1406     144                                                        1463   -0.10    0.00  1.0000
   1  -8  -7    1638     163                                                        1699   -0.10    0.00  1.0000
   1  -8  -6    6104     288                                                        6051   -0.05    0.00  1.0000
  -1   8   6    5996     304                                                        5943   -0.05    0.00  1.0000
   1  -8  -5    1262     128                                                        1305    0.08    0.00  1.0000
  -1   8   5    1328     153                                                        1372    0.08    0.00  1.0000
  -1   8   4    1062     131                                                         919    0.32    0.00  1.0000
  -1   8   3     196      55                                                          95    0.59    0.00  1.0000
  -1   8   2      62      80                                                         183    0.78    0.00  1.0000
  -1   8   2      15      43                                                          91    0.78    0.00  1.0000
  -1   8   2       7      53                                                          67    0.78    0.00  1.0000
  -1   8   1      94      62                                                         248    0.84    0.00  1.0000
  -1   8   1     122      87                                                         292    0.84    0.00  1.0000
  -1   8   1     145      85                                                         326    0.84    0.00  1.0000
  -1   8   0    5944     261                                                        5110    0.78    0.00  1.0000
  -1   8   0    5103     249                                                        4333    0.78    0.00  1.0000
  -1   8   0    6160     306                                                        5310    0.78    0.00  1.0000
  -1   8  -1    6414     315                                                        7158    0.63    0.00  1.0000
  -1   8  -1    6507     379                                                        7256    0.63    0.00  1.0000
  -1   8  -2    1541     171                                                        1326    0.39    0.00  1.0000
  -1   8  -3     171      73                                                         203    0.16    0.00  1.0000
  -1   8  -3     168      59                                                         199    0.16    0.00  1.0000
  -1   8  -4       0      31                                                         -16    0.06    0.00  1.0000
  -1   8  -4      90      58                                                          82    0.06    0.00  1.0000
  -1   8  -5       1      28                                                         -22    0.12    0.00  1.0000
  -1   8  -5       1      33                                                           3    0.12    0.00  1.0000
   1  -7 -12     367      50                                                         347    0.07    0.00  1.0000
   1  -7 -11    3903     211                                                        3999    0.11    0.00  1.0000
   1  -7 -10   13265     429                                                       13015    0.15    0.00  1.0000
   1  -7  -9   18016     533                                                       18435    0.22    0.00  1.0000
  -1   7   8     839     125                                                         728    0.28    0.00  1.0000
   1  -7  -8     924     121                                                         807    0.28    0.00  1.0000
   1  -7  -7    7057     335                                                        7437    0.31    0.00  1.0000
  -1   7   7    7280     313                                                        7666    0.31    0.00  1.0000
  -1   7   7    7262     372                                                        7648    0.31    0.00  1.0000
   1  -7  -6    3003     213                                                        3271    0.33    0.00  1.0000
  -1   7   6    3019     236                                                        3287    0.33    0.00  1.0000
  -1   7   6    2878     208                                                        3140    0.33    0.00  1.0000
   1  -7  -5   13417     388                                                       12865    0.34    0.00  1.0000
  -1   7   5   13970     429                                                       13407    0.34    0.00  1.0000
  -1   7   4   49272     823                                                       50026    0.24    0.00  1.0000
  -1   7   3   49526     815                                                       49668   -0.04    0.00  1.0000
  -1   7   3   50598     936                                                       50741   -0.04    0.00  1.0000
  -1   7   2   12941     400                                                       12220   -0.45    0.00  1.0000
  -1   7   2   12469     451                                                       11761   -0.45    0.00  1.0000
  -1   7   1   10910     364                                                       12151   -0.81    0.00  1.0000
  -1   7   1   11045     400                                                       12293   -0.81    0.00  1.0000
  -1   7   1   11258     452                                                       12519   -0.81    0.00  1.0000
  -1   7   0      50      38                                                         -18   -0.98    0.00  1.0000
  -1   7   0     262      50                                                          84   -0.98    0.00  1.0000
  -1   7   0     395      59                                                         165   -0.98    0.00  1.0000
  -1   7  -1    1603     122                                                        1110   -0.94    0.00  1.0000
  -1   7  -1    1162     106                                                         749   -0.94    0.00  1.0000
  -1   7  -1    1480     130                                                        1008   -0.94    0.00  1.0000
  -1   7  -2     804     130                                                        1110   -0.69    0.00  1.0000
  -1   7  -2     996     165                                                        1334   -0.69    0.00  1.0000
  -1   7  -2     987     144                                                        1324   -0.69    0.00  1.0000
  -1   7  -3     518      92                                                         415   -0.33    0.00  1.0000
  -1   7  -3     342      90                                                         259   -0.33    0.00  1.0000
  -1   7  -4     319      83                                                         329   -0.04    0.00  1.0000
  -1   7  -4     206      87                                                         214   -0.04    0.00  1.0000
  -1   7  -5     200      64                                                         209    0.04    0.00  1.0000
  -1   7  -5     306      83                                                         316    0.04    0.00  1.0000
  -1   7  -6       0      34                                                         -37   -0.05    0.00  1.0000
  -1   7  -6       0      36                                                          -8   -0.05    0.00  1.0000
  -1   7  -7      38      25                                                          50   -0.13    0.00  1.0000
   1  -6 -12    3281     142                                                        3164   -0.14    0.00  1.0000
   1  -6 -11    1062     117                                                        1111   -0.10    0.00  1.0000
   1  -6 -10      63      48                                                          69   -0.05    0.00  1.0000
  -1   6   9   16110     535                                                       15996   -0.06    0.00  1.0000
   1  -6  -9   15888     497                                                       15774   -0.06    0.00  1.0000
  -1   6   8    9830     425                                                       10066   -0.16    0.00  1.0000
   1  -6  -8    9973     400                                                       10211   -0.16    0.00  1.0000
  -1   6   7   36104     765                                                       35251   -0.31    0.00  1.0000
  -1   6   6    3638     249                                                        4057   -0.47    0.00  1.0000
  -1   6   5    1597     221                                                        1251   -0.64    0.00  1.0000
  -1   6   4      87     109                                                         224   -0.79    0.00  1.0000
  -1   6   3    4674     438                                                        5472   -0.78    0.00  1.0000
  -1   6   3    4714     284                                                        5515   -0.78    0.00  1.0000
  -1   6   2    9835     578                                                        9113   -0.52    0.00  1.0000
  -1   6   2   10071     359                                                        9341   -0.52    0.00  1.0000
  -1   6   1   56975     849                                                       57220   -0.07    0.00  1.0000
  -1   6   0   16369     464                                                       17013    0.35    0.00  1.0000
  -1   6  -1      11      39                                                          58    0.59    0.00  1.0000
  -1   6  -1      18     156                                                        -401    0.59    0.00  1.0000
  -1   6  -2     133      37                                                          50    0.63    0.00  1.0000
  -1   6  -2     235      50                                                         117    0.63    0.00  1.0000
  -1   6  -2     153      42                                                          62    0.63    0.00  1.0000
  -1   6  -3     263     168                                                         391    0.49    0.00  1.0000
  -1   6  -3      87      60                                                         166    0.49    0.00  1.0000
  -1   6  -3     113      87                                                         200    0.49    0.00  1.0000
  -1   6  -4      39      61                                                          18    0.27    0.00  1.0000
  -1   6  -4      85      58                                                          53    0.27    0.00  1.0000
  -1   6  -5     822     131                                                         864    0.10    0.00  1.0000
  -1   6  -5     766     124                                                         807    0.10    0.00  1.0000
  -1   6  -6     501      91                                                         483    0.06    0.00  1.0000
  -1   6  -6     445      94                                                         428    0.06    0.00  1.0000
  -1   6  -7     272      66                                                         290    0.08    0.00  1.0000
  -1   6  -8       0      26                                                         -11    0.06    0.00  1.0000
   1  -5 -12    8249     301                                                        8615    0.28    0.00  1.0000
   1  -5 -11    7993     286                                                        7741    0.20    0.00  1.0000
   1  -5 -10   10808     388                                                       10812    0.00    0.00  1.0000
  -1   5  10   11056     416                                                       11060    0.00    0.00  1.0000
  -1   5   9     560     103                                                         501   -0.18    0.00  1.0000
   1  -5  -9     578     103                                                         518   -0.18    0.00  1.0000
  -1   5   8    1401     161                                                        1515   -0.21    0.00  1.0000
  -1   5   8    1797     375                                                        1925   -0.21    0.00  1.0000
  -1   5   7   24212    1151                                                       24118   -0.04    0.00  1.0000
  -1   5   7   25932     619                                                       25835   -0.04    0.00  1.0000
  -1   5   6   15854     808                                                       15398    0.25    0.00  1.0000
  -1   5   6   14866     795                                                       14425    0.25    0.00  1.0000
  -1   5   5   31733    1067                                                       33342    0.62    0.00  1.0000
  -1   5   5   34154    1147                                                       35822    0.62    0.00  1.0000
  -1   5   4   38924    1090                                                       36033    1.04    0.00  1.0000
  -1   5   3    7182     326                                                        9004    1.41    0.00  1.0000
  -1   5   3    7482     532                                                        9340    1.41    0.00  1.0000
  -1   5   2   17281     396                                                       14508    1.53    0.00  1.0000
  -1   5   2   19160     697                                                       16234    1.53    0.00  1.0000
  -1   5   1    1465     164                                                         846    1.28    0.00  1.0000
  -1   5   1    1568     100                                                         924    1.28    0.00  1.0000
  -1   5   0    9230     635                                                       10347    0.79    0.00  1.0000
  -1   5   0    9208     318                                                       10324    0.79    0.00  1.0000
  -1   5  -1    8191     278                                                        7797    0.31    0.00  1.0000
  -1   5  -1    8428     604                                                        8028    0.31    0.00  1.0000
  -1   5  -2    8755     300                                                        8732   -0.02    0.00  1.0000
  -1   5  -2    8358     663                                                        8335   -0.02    0.00  1.0000
  -1   5  -3     128      54                                                         162   -0.20    0.00  1.0000
  -1   5  -3      83      57                                                         111   -0.20    0.00  1.0000
  -1   5  -3     172      60                                                         211   -0.20    0.00  1.0000
  -1   5  -4     222      80                                                         288   -0.29    0.00  1.0000
  -1   5  -4     274      92                                                         347   -0.29    0.00  1.0000
  -1   5  -5    3642     246                                                        3378   -0.31    0.00  1.0000
  -1   5  -5    3251     241                                                        3002   -0.31    0.00  1.0000
  -1   5  -6    2018     204                                                        2212   -0.29    0.00  1.0000
  -1   5  -6    2003     196                                                        2197   -0.29    0.00  1.0000
  -1   5  -7     733     112                                                         643   -0.24    0.00  1.0000
  -1   5  -7     573      87                                                         494   -0.24    0.00  1.0000
  -1   5  -8      60      43                                                          74   -0.12    0.00  1.0000
  -1   5  -9      28      23                                                          30    0.02    0.00  1.0000
   1  -4 -12    1899     114                                                        1680   -0.36    0.00  1.0000
   1  -4 -12    2190     140                                                        1955   -0.36    0.00  1.0000
   1  -4 -11    6750     294                                                        7191   -0.37    0.00  1.0000
  -1   4  10   23392     571                                                       23016   -0.17    0.00  1.0000
   1  -4 -10   22589     558                                                       22219   -0.17    0.00  1.0000
   1  -4 -10   22621     526                                                       22251   -0.17    0.00  1.0000
   1  -4 -10   22391     494                                                       22023   -0.17    0.00  1.0000
  -1   4   9    5510     288                                                        5348    0.15    0.00  1.0000
   1  -4  -9    5474     275                                                        5313    0.15    0.00  1.0000
  -1   4   8    7377     345                                                        7929    0.44    0.00  1.0000
  -1   4   8    6192     682                                                        6698    0.44    0.00  1.0000
  -1   4   7     127      86                                                          56    0.52    0.00  1.0000
  -1   4   6    2983     353                                                        2720    0.34    0.00  1.0000
  -1   4   5   39272    1174                                                       39118   -0.05    0.00  1.0000
  -1   4   4   68228    1359                                                       70690   -0.65    0.00  1.0000
  -1   4   4   68653    1480                                                       71123   -0.65    0.00  1.0000
  -1   4   3   42061     833                                                       38016   -1.41    0.00  1.0000
  -1   4   3   43267    1025                                                       39163   -1.41    0.00  1.0000
  -1   4   2   87910    1562                                                       97130   -2.11    0.00  1.0000
  -1   4   2   86904     897                                                       96073   -2.11    0.00  1.0000
  -1   4   1    2392     338                                                        4386   -2.41    0.00  1.0000
  -1   4   1    2248     179                                                        4189   -2.41    0.00  1.0000
  -1   4   0   72838    1361                                                       64753   -2.15    0.00  1.0000
  -1   4   0   71930     675                                                       63897   -2.15    0.00  1.0000
  -1   4   0   73056    1432                                                       64959   -2.15    0.00  1.0000
  -1   4  -1   32368     512                                                       36444   -1.53    0.00  1.0000
  -1   4  -1   32282    1144                                                       36353   -1.53    0.00  1.0000
  -1   4  -2   12024     682                                                       10621   -0.92    0.00  1.0000
  -1   4  -2   13459     298                                                       11972   -0.92    0.00  1.0000
  -1   4  -3    3206     174                                                        3611   -0.48    0.00  1.0000
  -1   4  -3    2963     429                                                        3352   -0.48    0.00  1.0000
  -1   4  -4   19619    1111                                                       19264   -0.18    0.00  1.0000
  -1   4  -5   11731     436                                                       11610    0.08    0.00  1.0000
  -1   4  -5   11764     919                                                       11643    0.08    0.00  1.0000
  -1   4  -5   11638     438                                                       11518    0.08    0.00  1.0000
  -1   4  -6    1881     196                                                        2061    0.28    0.00  1.0000
  -1   4  -6    1765     188                                                        1939    0.28    0.00  1.0000
  -1   4  -7       8      54                                                         -68    0.38    0.00  1.0000
  -1   4  -7      14      61                                                          42    0.38    0.00  1.0000
  -1   4  -8     315      69                                                         235    0.34    0.00  1.0000
  -1   4  -9     146      50                                                         173    0.15    0.00  1.0000
   1  -3 -12     676      70                                                         545    0.37    0.00  1.0000
   1  -3 -12     696      76                                                         564    0.37    0.00  1.0000
   1  -3 -11    3039     216                                                        3469    0.53    0.00  1.0000
   1  -3 -11    3334     232                                                        3784    0.53    0.00  1.0000
   1  -3 -11    3154     198                                                        3591    0.53    0.00  1.0000
   1  -3 -10     404      96                                                         563    0.51    0.00  1.0000
   1  -3  -9    4070     222                                                        3815    0.28    0.00  1.0000
   1  -3  -9    4183     224                                                        3924    0.28    0.00  1.0000
  -1   3   9    4568     249                                                        4297    0.28    0.00  1.0000
  -1   3   8   22126     545                                                       21933   -0.09    0.00  1.0000
  -1   3   8   20719    1225                                                       20532   -0.09    0.00  1.0000
   1  -3  -8   22083     488                                                       21890   -0.09    0.00  1.0000
  -1   3   7   22394    1193                                                       23414   -0.47    0.00  1.0000
  -1   3   6   11316     711                                                       10276   -0.70    0.00  1.0000
  -1   3   5    1373     261                                                        1769   -0.70    0.00  1.0000
  -1   3   4    1034     159                                                         851   -0.42    0.00  1.0000
  -1   3   3    2542     232                                                        2721    0.24    0.00  1.0000
  -1   3   2  126425     889                                                      120021    1.27    0.00  1.0000
  -1   3   2  125971    1577                                                      119579    1.27    0.00  1.0000
  -1   3   1   94090     745                                                      104599    2.32    0.00  1.0000
  -1   3   1   94083    1438                                                      104592    2.32    0.00  1.0000
  -1   3   0   35933     377                                                       28542    2.87    0.00  1.0000
  -1   3   0   34200     763                                                       26999    2.87    0.00  1.0000
  -1   3   0   35586     828                                                       28233    2.87    0.00  1.0000
  -1   3  -1   23947     384                                                       30278    2.68    0.00  1.0000
   1  -3   1   23581     568                                                       29866    2.68    0.00  1.0000
  -1   3  -2     104     164                                                         612    2.03    0.00  1.0000
   1  -3   2     202     133                                                         827    2.03    0.00  1.0000
  -1   3  -2     155      67                                                         728    2.03    0.00  1.0000
   1  -3   3    1396     152                                                         765    1.35    0.00  1.0000
  -1   3  -3    1473     198                                                         823    1.35    0.00  1.0000
  -1   3  -4   19982    1095                                                       21787    0.87    0.00  1.0000
  -1   3  -5   13844     924                                                       12984    0.52    0.00  1.0000
  -1   3  -6     947     136                                                        1031    0.19    0.00  1.0000
  -1   3  -6    1017     137                                                        1104    0.19    0.00  1.0000
  -1   3  -6     903     296                                                         985    0.19    0.00  1.0000
  -1   3  -6     785     104                                                         862    0.19    0.00  1.0000
  -1   3  -7     268      77                                                         298   -0.12    0.00  1.0000
  -1   3  -7     331      76                                                         364   -0.12    0.00  1.0000
  -1   3  -7     490     102                                                         530   -0.12    0.00  1.0000
  -1   3  -8       6      45                                                         -20   -0.33    0.00  1.0000
  -1   3  -8      68      63                                                         113   -0.33    0.00  1.0000
  -1   3  -9       6      49                                                         -62   -0.35    0.00  1.0000
  -1   3 -10     306      55                                                         355   -0.19    0.00  1.0000
   1  -2 -12    2053     142                                                        2282   -0.34    0.00  1.0000
   1  -2 -11    4018     203                                                        3493   -0.60    0.00  1.0000
   1  -2 -11    3899     197                                                        3383   -0.60    0.00  1.0000
   1  -2 -10     979     104                                                         662   -0.78    0.00  1.0000
   1  -2  -9    7861     352                                                        8924   -0.81    0.00  1.0000
   1  -2  -8    9692     329                                                        8786   -0.66    0.00  1.0000
  -1   2   8    9058     316                                                        8184   -0.66    0.00  1.0000
  -1   2   8    8846     798                                                        7982   -0.66    0.00  1.0000
  -1   2   7   15240    1009                                                       15837   -0.33    0.00  1.0000
  -1   2   6   39515    1430                                                       39738    0.08    0.00  1.0000
  -1   2   5   38177    1205                                                       36791    0.50    0.00  1.0000
  -1   2   4   69843    1469                                                       73255    0.89    0.00  1.0000
  -1   2   3   30128     758                                                       27418    1.11    0.00  1.0000
  -1   2   2   18238     453                                                       16557    0.89    0.00  1.0000
  -1   2   1  116206     692                                                      116531    0.07    0.00  1.0000
  -1   2   1  116836     735                                                      117162    0.07    0.00  1.0000
  -1   2   0  105701    1310                                                      110583   -1.03    0.00  1.0000
  -1   2   0  109002    1452                                                      113959   -1.03    0.00  1.0000
  -1   2  -1   55141    1038                                                       49195   -1.81    0.00  1.0000
  -1   2  -1   56585     991                                                       50559   -1.81    0.00  1.0000
   1  -2   1   56510     648                                                       50489   -1.81    0.00  1.0000
  -1   2  -2   12248     660                                                       15542   -1.95    0.00  1.0000
   1  -2   2   11686     488                                                       14909   -1.95    0.00  1.0000
   1  -2   3   19326     632                                                       16206   -1.63    0.00  1.0000
   1  -2   4     117     145                                                         386   -1.23    0.00  1.0000
   1  -2   5    9968     723                                                       11326   -0.92    0.00  1.0000
   1  -2   6    2641     379                                                        2189   -0.64    0.00  1.0000
  -1   2  -6    2942     168                                                        2464   -0.64    0.00  1.0000
  -1   2  -7    5644     310                                                        6021   -0.34    0.00  1.0000
  -1   2  -7    5464     276                                                        5835   -0.34    0.00  1.0000
  -1   2  -7    6046     705                                                        6436   -0.34    0.00  1.0000
  -1   2  -7    5685     294                                                        6064   -0.34    0.00  1.0000
  -1   2  -8     780     117                                                         763   -0.04    0.00  1.0000
  -1   2  -8     621      98                                                         606   -0.04    0.00  1.0000
  -1   2  -9     343      68                                                         295    0.19    0.00  1.0000
  -1   2  -9     317      67                                                         270    0.19    0.00  1.0000
  -1   2 -10       4      40                                                         -52    0.26    0.00  1.0000
  -1   2 -10       6      34                                                          19    0.26    0.00  1.0000
   1  -1 -12     117      38                                                          79    0.27    0.00  1.0000
   1  -1 -11    3138     203                                                        3570    0.52    0.00  1.0000
   1  -1 -10    4135     222                                                        3455    0.77    0.00  1.0000
   1  -1  -9    6551     338                                                        7727    0.97    0.00  1.0000
  -1   1   8    8320     767                                                        6942    1.10    0.00  1.0000
   1  -1  -8    9891     336                                                        8383    1.10    0.00  1.0000
  -1   1   7     251     219                                                         574    1.13    0.00  1.0000
  -1   1   6   14791     966                                                       16666    1.04    0.00  1.0000
  -1   1   5    4916     427                                                        4130    0.82    0.00  1.0000
  -1   1   4   67177    1479                                                       68433    0.34    0.00  1.0000
  -1   1   3  133168    1766                                                      136032   -0.54    0.00  1.0000
  -1   1   2   54171     837                                                       48661   -1.69    0.00  1.0000
  -1   1   1    7010     175                                                        4251   -2.58    0.00  1.0000
  -1   1   0   38660     418                                                       46625   -2.69    0.00  1.0000
   1  -1   1    1894      72                                                         836   -2.03    0.00  1.0000
   1  -1   2   21524     552                                                       23920   -1.11    0.00  1.0000
   1  -1   3  158902    1810                                                      156870   -0.36    0.00  1.0000
   1  -1   4  131723    1989                                                      131181    0.10    0.00  1.0000
   1  -1   5    3120     382                                                        3401    0.34    0.00  1.0000
   1  -1   6      32      78                                                           7    0.42    0.00  1.0000
  -1   1  -7    8054     313                                                        7580    0.37    0.00  1.0000
   1  -1   7    7488     685                                                        7031    0.37    0.00  1.0000
  -1   1  -7    7290     305                                                        6839    0.37    0.00  1.0000
  -1   1  -8    4756     277                                                        5040    0.28    0.00  1.0000
  -1   1  -8    5548     294                                                        5854    0.28    0.00  1.0000
  -1   1  -8    5266     290                                                        5564    0.28    0.00  1.0000
  -1   1  -9    5693     279                                                        5511    0.17    0.00  1.0000
  -1   1  -9    5758     284                                                        5575    0.17    0.00  1.0000
  -1   1 -10    2073     149                                                        2103    0.05    0.00  1.0000
  -1   1 -10    2093     164                                                        2123    0.05    0.00  1.0000
  -1   1 -11     278      55                                                         286   -0.03    0.00  1.0000
   1   0 -12     337      46                                                         299   -0.15    0.00  1.0000
   1   0 -11     539      73                                                         440   -0.31    0.00  1.0000
   1   0 -10    1985     181                                                        2325   -0.51    0.00  1.0000
   1   0  -9    3014     196                                                        2483   -0.71    0.00  1.0000
  -1   0   8    9985     995                                                       11357   -0.93    0.00  1.0000
   1   0  -8   10052     405                                                       11428   -0.93    0.00  1.0000
  -1   0   7   19747    1148                                                       17403   -1.20    0.00  1.0000
   1   0  -7   21270     481                                                       18836   -1.20    0.00  1.0000
  -1   0   6    8021     794                                                       10079   -1.51    0.00  1.0000
  -1   0   5   36359    1226                                                       31546   -1.82    0.00  1.0000
  -1   0   4    8189     461                                                        5799   -2.00    0.00  1.0000
  -1   0   3   81959    1530                                                       88940   -1.66    0.00  1.0000
  -1   0   2  113900    1414                                                      111998   -0.39    0.00  1.0000
  -1   0   1  131693    1163                                                      122799    1.74    0.00  1.0000
  -1   0   0   34655     547                                                       45981    3.94    0.00  1.0000
  -1   0  -1   63069     594                                                       45577    5.25    0.00  1.0000
   1   0   2     376      74                                                         337    5.26    0.00  1.0000
   1   0   3   30166     872                                                       41839    4.30    0.00  1.0000
   1   0   4   48716    1022                                                       39785    2.96    0.00  1.0000
   1   0   5       0      82                                                         151    1.74    0.00  1.0000
   1   0   6    8744     621                                                        7576    0.90    0.00  1.0000
  -1   0  -7     233      72                                                         340    0.44    0.00  1.0000
   1   0   7     343     179                                                         471    0.44    0.00  1.0000
  -1   0  -8       1      31                                                           0    0.17    0.00  1.0000
  -1   0  -8      41      59                                                          58    0.17    0.00  1.0000
  -1   0  -8       5      44                                                          11    0.17    0.00  1.0000
  -1   0  -9     278      84                                                         296   -0.07    0.00  1.0000
  -1   0  -9     260      68                                                         277   -0.07    0.00  1.0000
  -1   0  -9     198      72                                                         213   -0.07    0.00  1.0000
  -1   0 -10    1035     121                                                         922   -0.25    0.00  1.0000
  -1   0 -10    1203     126                                                        1081   -0.25    0.00  1.0000
  -1   0 -11     293      74                                                         364   -0.27    0.00  1.0000
  -1   0 -12    1118      82                                                        1033   -0.18    0.00  1.0000
   1   1 -11       1      32                                                         -18    0.11    0.00  1.0000
   1   1 -10       2      42                                                         -13    0.22    0.00  1.0000
   1   1 -10      77      50                                                          52    0.22    0.00  1.0000
   1   1  -9      20      49                                                          47    0.33    0.00  1.0000
   1   1  -8    1228     132                                                        1003    0.47    0.00  1.0000
  -1  -1   7    5823     751                                                        6659    0.74    0.00  1.0000
   1   1  -7    7433     334                                                        8374    0.74    0.00  1.0000
  -1  -1   6     266     218                                                         606    1.16    0.00  1.0000
  -1  -1   5   16432    1034                                                       19693    1.69    0.00  1.0000
  -1  -1   4    4474     327                                                        2522    2.32    0.00  1.0000
  -1  -1   3    3460     447                                                        6310    2.87    0.00  1.0000
  -1  -1   2   11399     605                                                       16104    2.81    0.00  1.0000
  -1  -1   1  292275    2118                                                      280670    1.51    0.00  1.0000
  -1  -1   0   44949     706                                                       41947   -1.00    0.00  1.0000
  -1  -1  -1  149936     923                                                      172047   -3.84    0.00  1.0000
  -1  -1  -1  148010    1309                                                      169984   -3.84    0.00  1.0000
  -1  -1  -2   97908     952                                                       73445   -5.84    0.00  1.0000
   1   1   3   28202     890                                                       45676   -6.38    0.00  1.0000
   1   1   4   57963    1393                                                       79100   -5.64    0.00  1.0000
   1   1   5   32456     869                                                       22382   -4.26    0.00  1.0000
   1   1   6   56663    1745                                                       66952   -2.89    0.00  1.0000
   1   1   7   14588     823                                                       11463   -1.91    0.00  1.0000
  -1  -1  -8    7158     348                                                        8817   -1.29    0.00  1.0000
   1   1   8    6812     782                                                        8433   -1.29    0.00  1.0000
  -1  -1  -8    7247     381                                                        8916   -1.29    0.00  1.0000
  -1  -1  -9    7304     313                                                        6392   -0.77    0.00  1.0000
  -1  -1  -9    6947     328                                                        6058   -0.77    0.00  1.0000
  -1  -1 -10      25      41                                                          12   -0.22    0.00  1.0000
  -1  -1 -10      11      54                                                           3   -0.22    0.00  1.0000
  -1  -1 -11       2      40                                                         -23    0.18    0.00  1.0000
  -1  -1 -11      21      38                                                          34    0.18    0.00  1.0000
  -1  -1 -12    1556     126                                                        1712    0.27    0.00  1.0000
   1   2 -11     317      49                                                         324   -0.03    0.00  1.0000
   1   2 -10    1129     105                                                        1091   -0.08    0.00  1.0000
   1   2 -10    1089     108                                                        1052   -0.08    0.00  1.0000
   1   2  -9    1806     164                                                        1877   -0.11    0.00  1.0000
   1   2  -8    1534     154                                                        1459   -0.13    0.00  1.0000
  -1  -2   7     165     134                                                         121   -0.26    0.00  1.0000
   1   2  -7     537      93                                                         455   -0.26    0.00  1.0000
   1   2  -6     170      56                                                          78   -0.59    0.00  1.0000
   1   2  -6     258      73                                                         140   -0.59    0.00  1.0000
  -1  -2   5   43803    1576                                                       40662   -1.06    0.00  1.0000
  -1  -2   4   64509    1840                                                       70517   -1.61    0.00  1.0000
  -1  -2   3   50108    1262                                                       43098   -2.26    0.00  1.0000
  -1  -2   2   21878     906                                                       28582   -2.95    0.00  1.0000
  -1  -2   1   59004    1252                                                       70560   -3.17    0.00  1.0000
  -1  -2   0   30232     794                                                       36218   -2.29    0.00  1.0000
  -1  -2  -1   52441     832                                                       53269   -0.25    0.00  1.0000
  -1  -2  -2  138671    1439                                                      150842    2.23    0.00  1.0000
  -1  -2  -3  136942    1424                                                      115652    4.18    0.00  1.0000
   1   2   4    4460     510                                                       10589    5.03    0.00  1.0000
   1   2   5    7068     289                                                        2436    4.84    0.00  1.0000
   1   2   6    4527     258                                                        1471    4.03    0.00  1.0000
   1   2   7   20688    1247                                                       27688    3.14    0.00  1.0000
   1   2   8   23737    1132                                                       18603    2.46    0.00  1.0000
  -1  -2  -8   24649     500                                                       19410    2.46    0.00  1.0000
  -1  -2  -9   29145     782                                                       33981    1.90    0.00  1.0000
  -1  -2  -9   28276     701                                                       33042    1.90    0.00  1.0000
  -1  -2 -10     704      82                                                         311    1.24    0.00  1.0000
  -1  -2 -10     699      78                                                         307    1.24    0.00  1.0000
  -1  -2 -11    2908     230                                                        3338    0.54    0.00  1.0000
  -1  -2 -11    3018     229                                                        3456    0.54    0.00  1.0000
  -1  -2 -12      43      43                                                          38    0.06    0.00  1.0000
  -1  -2 -12       0      36                                                         -38    0.06    0.00  1.0000
   1   3 -10      83      36                                                          91    0.06    0.00  1.0000
   1   3 -10      48      31                                                          55    0.06    0.00  1.0000
   1   3  -9     243      61                                                         222    0.10    0.00  1.0000
   1   3  -9     262      59                                                         240    0.10    0.00  1.0000
   1   3  -8    1520     147                                                        1550    0.05    0.00  1.0000
   1   3  -7      72      58                                                          72    0.00    0.00  1.0000
   1   3  -6    5873     276                                                        6011    0.12    0.00  1.0000
  -1  -3   6    5731     700                                                        5867    0.12    0.00  1.0000
   1   3  -6    5909     348                                                        6047    0.12    0.00  1.0000
  -1  -3   5     811     279                                                        1022    0.49    0.00  1.0000
  -1  -3   4    5975     535                                                        5009    0.91    0.00  1.0000
  -1  -3   3   14946     882                                                       17270    1.28    0.00  1.0000
  -1  -3   2   95432    1762                                                       87931    1.73    0.00  1.0000
  -1  -3   1    1239     283                                                        2697    2.33    0.00  1.0000
  -1  -3   0  147309    1762                                                      132579    2.74    0.00  1.0000
  -1  -3  -1    2291     272                                                        4269    2.43    0.00  1.0000
  -1  -3  -2   14647     512                                                       16919    1.26    0.00  1.0000
   1   3   2   14736     264                                                       17015    1.26    0.00  1.0000
   1   3   3  104188     712                                                      105928   -0.37    0.00  1.0000
  -1  -3  -3  106428    1387                                                      108186   -0.37    0.00  1.0000
   1   3   4   91101    1451                                                       83142   -1.88    0.00  1.0000
   1   3   5   55406    1481                                                       65466   -2.85    0.00  1.0000
   1   3   6   13608     607                                                        8777   -3.20    0.00  1.0000
   1   3   7    3906     620                                                        7172   -3.09    0.00  1.0000
  -1  -3  -8   14585     351                                                       10111   -2.82    0.00  1.0000
   1   3   8   14010     803                                                        9633   -2.82    0.00  1.0000
  -1  -3  -9     197      49                                                          16   -2.51    0.00  1.0000
  -1  -3 -10       9      55                                                         138   -2.06    0.00  1.0000
  -1  -3 -10       2      75                                                         179   -2.06    0.00  1.0000
  -1  -3 -10       7      58                                                         144   -2.06    0.00  1.0000
  -1  -3 -11   13091     426                                                       10926   -1.38    0.00  1.0000
  -1  -3 -11   12751     415                                                       10615   -1.38    0.00  1.0000
  -1  -3 -12    4426     247                                                        5087   -0.67    0.00  1.0000
  -1  -3 -12    4720     248                                                        5401   -0.67    0.00  1.0000
  -1  -3 -13      31      26                                                          50   -0.22    0.00  1.0000
   1   4  -9      57      30                                                          69   -0.11    0.00  1.0000
   1   4  -9       1      33                                                         -15   -0.11    0.00  1.0000
   1   4  -8     362      81                                                         324   -0.14    0.00  1.0000
   1   4  -8     257      61                                                         225   -0.14    0.00  1.0000
   1   4  -7     155      56                                                         144   -0.06    0.00  1.0000
   1   4  -6    4028     302                                                        4053    0.03    0.00  1.0000
   1   4  -6    4084     230                                                        4109    0.03    0.00  1.0000
   1   4  -5    5137     316                                                        5217   -0.08    0.00  1.0000
   1   4  -5    4465     230                                                        4540   -0.08    0.00  1.0000
  -1  -4   4    4574     511                                                        4220   -0.37    0.00  1.0000
  -1  -4   3     634     221                                                         884   -0.63    0.00  1.0000
  -1  -4   2   78154    1867                                                       81360   -0.79    0.00  1.0000
  -1  -4   1    9787     548                                                        8362   -1.04    0.00  1.0000
   1   4   0  132395    1417                                                      140429   -1.52    0.00  1.0000
   1   4   1   48902     562                                                       42872   -1.96    0.00  1.0000
  -1  -4  -1   49566     937                                                       43494   -1.96    0.00  1.0000
  -1  -4  -2   11362     513                                                       14615   -1.99    0.00  1.0000
   1   4   2   10246     285                                                       13346   -1.99    0.00  1.0000
   1   4   3    7335     250                                                        9261   -1.48    0.00  1.0000
   1   4   3    7383     240                                                        9315   -1.48    0.00  1.0000
   1   4   4   36269     522                                                       34682   -0.59    0.00  1.0000
   1   4   5   14881     696                                                       14208    0.39    0.00  1.0000
   1   4   6   33481    1265                                                       36722    1.21    0.00  1.0000
   1   4   7   26863    1097                                                       22958    1.72    0.00  1.0000
   1   4   8   29781    1493                                                       34884    1.98    0.00  1.0000
  -1  -4  -8   30378     654                                                       35530    1.98    0.00  1.0000
  -1  -4  -8   29900     631                                                       35013    1.98    0.00  1.0000
  -1  -4  -8   32118     731                                                       37410    1.98    0.00  1.0000
  -1  -4  -9    2159     257                                                        3771    2.08    0.00  1.0000
  -1  -4  -9    2064     223                                                        3646    2.08    0.00  1.0000
  -1  -4  -9    2080     218                                                        3667    2.08    0.00  1.0000
   1   4   9    2488     577                                                        4203    2.08    0.00  1.0000
  -1  -4 -10      51      53                                                          56    2.03    0.00  1.0000
  -1  -4 -11    7884     423                                                       10186    1.69    0.00  1.0000
  -1  -4 -11    7372     392                                                        9602    1.69    0.00  1.0000
  -1  -4 -12    8198     298                                                        6847    1.09    0.00  1.0000
  -1  -4 -12    7700     278                                                        6393    1.09    0.00  1.0000
  -1  -4 -13    1911     121                                                        2229    0.49    0.00  1.0000
   1   5  -9      94      31                                                          97    0.02    0.00  1.0000
   1   5  -8      58      48                                                          77    0.16    0.00  1.0000
   1   5  -6    5502     356                                                        5735    0.22    0.00  1.0000
   1   5  -6    5423     250                                                        5654    0.22    0.00  1.0000
   1   5  -5    8887     430                                                        8740    0.11    0.00  1.0000
   1   5  -4    5757     570                                                        5877    0.11    0.00  1.0000
   1   5  -4    6270     343                                                        6396    0.11    0.00  1.0000
  -1  -5   3   10763     781                                                       10456    0.21    0.00  1.0000
   1   5  -2     785     168                                                         681    0.27    0.00  1.0000
  -1  -5   2     990     214                                                         874    0.27    0.00  1.0000
   1   5  -1   44216    1091                                                       43291    0.31    0.00  1.0000
  -1  -5   1   45313    1371                                                       44377    0.31    0.00  1.0000
  -1  -5   0     255      75                                                         151    0.51    0.00  1.0000
   1   5   1   21040     441                                                       22965    0.90    0.00  1.0000
  -1  -5  -1   20733     707                                                       22644    0.90    0.00  1.0000
  -1  -5  -2   38882     835                                                       35412    1.25    0.00  1.0000
   1   5   2   37429     530                                                       34026    1.25    0.00  1.0000
   1   5   3   51588     698                                                       56035    1.34    0.00  1.0000
  -1  -5  -3   51800    1073                                                       56255    1.34    0.00  1.0000
   1   5   4   10288     292                                                        8716    1.12    0.00  1.0000
   1   5   5    9704     630                                                       10759    0.73    0.00  1.0000
   1   5   6    3208     396                                                        3417    0.25    0.00  1.0000
   1   5   7    6469     592                                                        6699   -0.20    0.00  1.0000
  -1  -5  -8   31325     648                                                       29890   -0.57    0.00  1.0000
  -1  -5  -8   30349     632                                                       28936   -0.57    0.00  1.0000
  -1  -5  -9    5477     308                                                        6472   -0.90    0.00  1.0000
  -1  -5  -9    5804     335                                                        6827   -0.90    0.00  1.0000
  -1  -5 -10   25267     612                                                       22651   -1.18    0.00  1.0000
  -1  -5 -10   25340     552                                                       22721   -1.18    0.00  1.0000
  -1  -5 -11    2509     234                                                        3508   -1.27    0.00  1.0000
  -1  -5 -11    2905     272                                                        3973   -1.27    0.00  1.0000
  -1  -5 -11    2410     188                                                        3390   -1.27    0.00  1.0000
  -1  -5 -12    2407     193                                                        3194   -1.04    0.00  1.0000
  -1  -5 -12    2553     215                                                        3361   -1.04    0.00  1.0000
  -1  -5 -13     897      76                                                         668   -0.57    0.00  1.0000
   1   6  -8       0      27                                                          -4   -0.01    0.00  1.0000
   1   6  -7     696      91                                                         617   -0.21    0.00  1.0000
   1   6  -6     776     129                                                         937   -0.38    0.00  1.0000
   1   6  -6     701     138                                                         855   -0.38    0.00  1.0000
   1   6  -5     363     104                                                         266   -0.38    0.00  1.0000
   1   6  -4     211      65                                                         162   -0.25    0.00  1.0000
   1   6  -4     166      79                                                         123   -0.25    0.00  1.0000
   1   6  -3   14595     518                                                       14805   -0.12    0.00  1.0000
   1   6  -3   14394     463                                                       14603   -0.12    0.00  1.0000
   1   6  -2     304      79                                                         298   -0.02    0.00  1.0000
   1   6  -1   11305     380                                                       11229    0.05    0.00  1.0000
   1   6   0    1757     152                                                        1752    0.01    0.00  1.0000
   1   6   1    9708     327                                                        9389   -0.23    0.00  1.0000
   1   6   2    8535     328                                                        9289   -0.56    0.00  1.0000
   1   6   3   51589     753                                                       49090   -0.78    0.00  1.0000
   1   6   4   15520     457                                                       17007   -0.81    0.00  1.0000
   1   6   5   26871    1002                                                       25147   -0.74    0.00  1.0000
   1   6   5   24483     557                                                       22839   -0.74    0.00  1.0000
   1   6   6   11645     772                                                       12675   -0.65    0.00  1.0000
   1   6   7    7589     608                                                        6926   -0.54    0.00  1.0000
  -1  -6  -7    7660     310                                                        6994   -0.54    0.00  1.0000
  -1  -6  -8    2238     179                                                        1974   -0.40    0.00  1.0000
  -1  -6  -8    2338     176                                                        2068   -0.40    0.00  1.0000
   1   6   8    2796     395                                                        2501   -0.40    0.00  1.0000
  -1  -6  -9    1596     166                                                        1703   -0.18    0.00  1.0000
  -1  -6  -9    1654     169                                                        1762   -0.18    0.00  1.0000
  -1  -6 -10   25880     626                                                       26214    0.14    0.00  1.0000
  -1  -6 -10   25730     634                                                       26063    0.14    0.00  1.0000
  -1  -6 -11   17561     473                                                       16643    0.49    0.00  1.0000
  -1  -6 -11   18528     456                                                       17585    0.49    0.00  1.0000
  -1  -6 -12    3172     221                                                        3704    0.63    0.00  1.0000
  -1  -6 -13    2840     137                                                        2493    0.47    0.00  1.0000
   1   7  -7     241      46                                                         240    0.00    0.00  1.0000
   1   7  -6     218      57                                                         185    0.16    0.00  1.0000
   1   7  -5       3      56                                                          15    0.29    0.00  1.0000
   1   7  -5      14      42                                                          34    0.29    0.00  1.0000
   1   7  -4       4      50                                                         -33    0.29    0.00  1.0000
   1   7  -4       4      87                                                        -212    0.29    0.00  1.0000
   1   7  -3    2636     231                                                        2500    0.19    0.00  1.0000
   1   7  -3    2570     203                                                        2436    0.19    0.00  1.0000
   1   7  -3    2342     193                                                        2214    0.19    0.00  1.0000
   1   7  -2     319      94                                                         304    0.06    0.00  1.0000
   1   7  -2     401      87                                                         384    0.06    0.00  1.0000
   1   7  -1    8123     360                                                        8220   -0.07    0.00  1.0000
   1   7  -1    8897     386                                                        8998   -0.07    0.00  1.0000
   1   7   0   12850     433                                                       12568   -0.17    0.00  1.0000
   1   7   1    6035     302                                                        6197   -0.14    0.00  1.0000
   1   7   2    1556     157                                                        1579    0.04    0.00  1.0000
   1   7   3   13717     452                                                       14169    0.27    0.00  1.0000
   1   7   4     302      71                                                         208    0.41    0.00  1.0000
   1   7   5    6689     556                                                        7259    0.48    0.00  1.0000
   1   7   5    6327     338                                                        6881    0.48    0.00  1.0000
   1   7   6   19820     953                                                       18780    0.52    0.00  1.0000
  -1  -7  -6   19531     502                                                       18499    0.52    0.00  1.0000
   1   7   7   25481    1186                                                       26809    0.57    0.00  1.0000
  -1  -7  -7   26409     648                                                       27760    0.57    0.00  1.0000
   1   7   8    5790     543                                                        5149    0.60    0.00  1.0000
  -1  -7  -8    5757     292                                                        5118    0.60    0.00  1.0000
  -1  -7  -9    4659     295                                                        5238    0.57    0.00  1.0000
  -1  -7 -10    3951     262                                                        4337    0.42    0.00  1.0000
  -1  -7 -11   11727     380                                                       11535    0.12    0.00  1.0000
  -1  -7 -12    4042     214                                                        3889   -0.17    0.00  1.0000
  -1  -7 -12    3769     169                                                        3621   -0.17    0.00  1.0000
  -1  -7 -13    3229     147                                                        3452   -0.27    0.00  1.0000
   1   8  -5      97      38                                                          98    0.00    0.00  1.0000
   1   8  -4     681     119                                                         695   -0.04    0.00  1.0000
   1   8  -4     659      91                                                         672   -0.04    0.00  1.0000
   1   8  -3     288      89                                                         299   -0.05    0.00  1.0000
   1   8  -3     221      64                                                         231   -0.05    0.00  1.0000
   1   8  -3     357     102                                                         369   -0.05    0.00  1.0000
   1   8  -2     149      75                                                         158   -0.05    0.00  1.0000
   1   8  -2     205      70                                                         215   -0.05    0.00  1.0000
   1   8  -2     182      76                                                         192   -0.05    0.00  1.0000
   1   8  -1    1277     155                                                        1298   -0.04    0.00  1.0000
   1   8  -1    1289     168                                                        1310   -0.04    0.00  1.0000
   1   8   0    3019     243                                                        3050    0.04    0.00  1.0000
   1   8   0    3206     243                                                        3239    0.04    0.00  1.0000
   1   8   1    4873     291                                                        4705    0.17    0.00  1.0000
   1   8   1    4747     230                                                        4581    0.17    0.00  1.0000
   1   8   2   29948     600                                                       30556    0.24    0.00  1.0000
   1   8   2   31149     745                                                       31769    0.24    0.00  1.0000
   1   8   3   20709     599                                                       20308    0.20    0.00  1.0000
   1   8   3   21688     512                                                       21277    0.20    0.00  1.0000
   1   8   4   32374     648                                                       32525    0.06    0.00  1.0000
   1   8   4   32881     780                                                       33034    0.06    0.00  1.0000
   1   8   5    2411     225                                                        2481   -0.10    0.00  1.0000
  -1  -8  -5    2756     193                                                        2831   -0.10    0.00  1.0000
  -1  -8  -6    3868     246                                                        4082   -0.24    0.00  1.0000
   1   8   7    8528     334                                                        8096   -0.33    0.00  1.0000
  -1  -8  -7    8402     356                                                        7974   -0.33    0.00  1.0000
  -1  -8  -8    6693     345                                                        7143   -0.38    0.00  1.0000
   1   8   8    6688     303                                                        7138   -0.38    0.00  1.0000
   1   8   9   23452     497                                                       22584   -0.40    0.00  1.0000
  -1  -8  -9   23363     607                                                       22497   -0.40    0.00  1.0000
  -1  -8 -10    7802     352                                                        8300   -0.39    0.00  1.0000
  -1  -8 -11     190      56                                                         137   -0.29    0.00  1.0000
  -1  -8 -12     143      41                                                         125   -0.10    0.00  1.0000
  -1  -8 -12     113      35                                                          97   -0.10    0.00  1.0000
   1   9  -4     465      77                                                         480   -0.05    0.00  1.0000
   1   9  -3      47      49                                                          43   -0.04    0.00  1.0000
   1   9  -3      31      42                                                          27   -0.04    0.00  1.0000
   1   9  -2    1815     170                                                        1814    0.00    0.00  1.0000
   1   9  -2    1708     176                                                        1708    0.00    0.00  1.0000
   1   9  -1     915     141                                                         953    0.09    0.00  1.0000
   1   9  -1     763     127                                                         798    0.09    0.00  1.0000
   1   9   0      53      50                                                          40    0.13    0.00  1.0000
   1   9   0      15      51                                                           8    0.13    0.00  1.0000
   1   9   1      14      50                                                          12    0.04    0.00  1.0000
   1   9   1      34      50                                                          30    0.04    0.00  1.0000
   1   9   1       1      57                                                           0    0.04    0.00  1.0000
   1   9   2    2551     185                                                        2442   -0.15    0.00  1.0000
   1   9   2    2390     216                                                        2284   -0.15    0.00  1.0000
   1   9   3    1348     162                                                        1181   -0.33    0.00  1.0000
   1   9   3    1410     140                                                        1239   -0.33    0.00  1.0000
   1   9   4     629     113                                                         766   -0.36    0.00  1.0000
   1   9   4     509     118                                                         632   -0.36    0.00  1.0000
  -1  -9  -5      80      50                                                         116   -0.25    0.00  1.0000
   1   9   5     251      70                                                         311   -0.25    0.00  1.0000
   1   9   6    1450     149                                                        1406   -0.08    0.00  1.0000
  -1  -9  -6    1355     144                                                        1313   -0.08    0.00  1.0000
   1   9   7     505      92                                                         492    0.04    0.00  1.0000
  -1  -9  -7     434      94                                                         421    0.04    0.00  1.0000
  -1  -9  -8     880     120                                                         848    0.08    0.00  1.0000
   1   9   8     822     112                                                         791    0.08    0.00  1.0000
  -1  -9  -9   19670     550                                                       19801    0.07    0.00  1.0000
   1   9   9   18728     459                                                       18856    0.07    0.00  1.0000
  -1  -9 -10   12954     414                                                       12824    0.08    0.00  1.0000
  -1  -9 -11    5964     251                                                        6093    0.12    0.00  1.0000
  -1  -9 -11    5995     242                                                        6125    0.12    0.00  1.0000
  -1  -9 -12    1973     103                                                        1904    0.11    0.00  1.0000
  -1  -9 -12    2372     121                                                        2296    0.11    0.00  1.0000
   1  10  -2     114      54                                                         132   -0.11    0.00  1.0000
   1  10  -2     114      53                                                         132   -0.11    0.00  1.0000
   1  10  -1      73      54                                                          55   -0.16    0.00  1.0000
   1  10  -1      55      46                                                          39   -0.16    0.00  1.0000
   1  10   0     200      78                                                         247   -0.22    0.00  1.0000
   1  10   1    1344     154                                                        1232   -0.22    0.00  1.0000
   1  10   2      14      53                                                          19   -0.09    0.00  1.0000
   1  10   2      39      52                                                          47   -0.09    0.00  1.0000
   1  10   3      55      62                                                          68    0.11    0.00  1.0000
   1  10   3     172      62                                                         193    0.11    0.00  1.0000
   1  10   4    3719     248                                                        3961    0.27    0.00  1.0000
   1  10   4    4107     302                                                        4361    0.27    0.00  1.0000
   1  10   5   14461     464                                                       13951    0.30    0.00  1.0000
   1  10   6    9586     390                                                        9886    0.21    0.00  1.0000
  -1 -10  -6    9591     346                                                        9890    0.21    0.00  1.0000
  -1 -10  -7    4222     233                                                        4110    0.12    0.00  1.0000
   1  10   7    4322     251                                                        4209    0.12    0.00  1.0000
   1  10   8    5965     283                                                        6085    0.11    0.00  1.0000
  -1 -10  -8    6224     293                                                        6346    0.11    0.00  1.0000
  -1 -10  -9       1      43                                                         -11    0.15    0.00  1.0000
   1  10   9      48      41                                                          34    0.15    0.00  1.0000
  -1 -10 -10    1128     114                                                        1055    0.15    0.00  1.0000
  -1 -10 -11    5390     205                                                        5486    0.09    0.00  1.0000
   1  11  -1      36      32                                                          53    0.19    0.00  1.0000
   1  11   0      77      35                                                          53    0.21    0.00  1.0000
   1  11   0     210      55                                                         169    0.21    0.00  1.0000
   1  11   1     758     103                                                         848    0.22    0.00  1.0000
   1  11   2     103      56                                                          77    0.19    0.00  1.0000
   1  11   2     122      38                                                          94    0.19    0.00  1.0000
   1  11   3     450      93                                                         478    0.09    0.00  1.0000
   1  11   3     433      83                                                         460    0.09    0.00  1.0000
   1  11   4     109      58                                                         116   -0.04    0.00  1.0000
   1  11   5      94      63                                                         112   -0.13    0.00  1.0000
   1  11   6     998     120                                                         941   -0.13    0.00  1.0000
   1  11   7    4222     236                                                        4304   -0.09    0.00  1.0000
   1  11   8   13612     379                                                       13463   -0.09    0.00  1.0000
  -1 -11  -8   12587     329                                                       12444   -0.09    0.00  1.0000
   1  11   9    2835     155                                                        2944   -0.14    0.00  1.0000
  -1 -11  -9    2659     152                                                        2764   -0.14    0.00  1.0000
  -1 -11 -10     836      74                                                         767   -0.17    0.00  1.0000
   1  12   1      56      32                                                          48   -0.08    0.00  1.0000
   1  12   2       9      40                                                          14   -0.09    0.00  1.0000
   1  12   3     230      44                                                         212   -0.09    0.00  1.0000
   1  12   3     367      55                                                         344   -0.09    0.00  1.0000
   1  12   4     894      94                                                         909   -0.03    0.00  1.0000
   1  12   4     791      88                                                         805   -0.03    0.00  1.0000
   1  12   5     994     103                                                        1009    0.03    0.00  1.0000
   1  12   5     995      98                                                        1010    0.03    0.00  1.0000
   1  12   6     844      94                                                         822    0.05    0.00  1.0000
   1  12   7    1412     117                                                        1423    0.02    0.00  1.0000
   1  12   8     135      44                                                         134   -0.01    0.00  1.0000
  -2  11   7    1040      87                                                        1010   -0.07    0.00  1.0000
  -2  11   6     952     100                                                        1034   -0.18    0.00  1.0000
  -2  11   5    1510     122                                                        1375   -0.25    0.00  1.0000
  -2  11   4     199      56                                                         160   -0.20    0.00  1.0000
  -2  11   3     144      45                                                         129   -0.09    0.00  1.0000
  -2  11   3     174      45                                                         158   -0.09    0.00  1.0000
  -2  11   2     185      46                                                         189    0.02    0.00  1.0000
  -2  11   2     144      38                                                         148    0.02    0.00  1.0000
  -2  11   1     158      42                                                         145    0.07    0.00  1.0000
   2 -10  -9      53      32                                                          55   -0.02    0.00  1.0000
  -2  10   8      11      32                                                          11   -0.01    0.00  1.0000
   2 -10  -8      95      34                                                          93   -0.01    0.00  1.0000
  -2  10   7       3      41                                                           4    0.04    0.00  1.0000
  -2  10   6     441      83                                                         396    0.15    0.00  1.0000
  -2  10   5    4271     261                                                        4541    0.28    0.00  1.0000
  -2  10   4       5      43                                                           0    0.32    0.00  1.0000
  -2  10   4     141      66                                                          92    0.32    0.00  1.0000
  -2  10   3    3357     232                                                        3544    0.22    0.00  1.0000
  -2  10   3    2929     204                                                        3104    0.22    0.00  1.0000
  -2  10   3    3048     171                                                        3226    0.22    0.00  1.0000
  -2  10   2     427      68                                                         413    0.05    0.00  1.0000
  -2  10   2     431      90                                                         418    0.05    0.00  1.0000
  -2  10   2     657     104                                                         640    0.05    0.00  1.0000
  -2  10   1      30      39                                                          39   -0.10    0.00  1.0000
  -2  10   1       7      49                                                          11   -0.10    0.00  1.0000
  -2  10   1      35      44                                                          44   -0.10    0.00  1.0000
  -2  10   0     121      52                                                          97   -0.16    0.00  1.0000
  -2  10  -1     602      89                                                         652   -0.14    0.00  1.0000
  -2  10  -2      33      31                                                          28   -0.06    0.00  1.0000
   2  -9 -10    2484     141                                                        2509    0.04    0.00  1.0000
   2  -9  -9    3239     179                                                        3173    0.08    0.00  1.0000
  -2   9   8    2415     155                                                        2482    0.09    0.00  1.0000
   2  -9  -8    3083     189                                                        3159    0.09    0.00  1.0000
   2  -9  -7    1774     142                                                        1727    0.08    0.00  1.0000
  -2   9   7    1677     154                                                        1632    0.08    0.00  1.0000
  -2   9   6    2249     159                                                        2251    0.00    0.00  1.0000
  -2   9   6    1951     184                                                        1954    0.00    0.00  1.0000
  -2   9   5    1105     113                                                        1036   -0.15    0.00  1.0000
  -2   9   5    1192     150                                                        1121   -0.15    0.00  1.0000
  -2   9   4       5      57                                                         -38   -0.31    0.00  1.0000
  -2   9   4      12      63                                                          32   -0.31    0.00  1.0000
  -2   9   3    6377     329                                                        5957   -0.37    0.00  1.0000
  -2   9   3    6877     283                                                        6441   -0.37    0.00  1.0000
  -2   9   2    3613     224                                                        3865   -0.29    0.00  1.0000
  -2   9   2    3224     250                                                        3463   -0.29    0.00  1.0000
  -2   9   1     274      87                                                         249   -0.11    0.00  1.0000
  -2   9   1     252      62                                                         228   -0.11    0.00  1.0000
  -2   9   1     410      94                                                         380   -0.11    0.00  1.0000
  -2   9   0     165      56                                                         152    0.07    0.00  1.0000
  -2   9   0      37      48                                                          31    0.07    0.00  1.0000
  -2   9   0     135      68                                                         123    0.07    0.00  1.0000
  -2   9  -1     433      93                                                         382    0.18    0.00  1.0000
  -2   9  -2       1      49                                                         -26    0.17    0.00  1.0000
  -2   9  -3      85      50                                                          74    0.09    0.00  1.0000
  -2   9  -4      47      27                                                          49    0.01    0.00  1.0000
   2  -8 -11       6      29                                                           2    0.13    0.00  1.0000
   2  -8 -10    1344     123                                                        1348    0.01    0.00  1.0000
   2  -8  -9     241      75                                                         268   -0.12    0.00  1.0000
   2  -8  -8    2304     177                                                        2175   -0.19    0.00  1.0000
   2  -8  -7   13244     434                                                       13616   -0.22    0.00  1.0000
  -2   8   7   12730     427                                                       13094   -0.22    0.00  1.0000
  -2   8   6   21433     579                                                       20973   -0.22    0.00  1.0000
   2  -8  -6   20645     509                                                       20193   -0.22    0.00  1.0000
  -2   8   5     839     133                                                         896   -0.13    0.00  1.0000
  -2   8   4    3764     227                                                        3819    0.06    0.00  1.0000
  -2   8   4    3798     268                                                        3854    0.06    0.00  1.0000
  -2   8   3     437      88                                                         533    0.31    0.00  1.0000
  -2   8   3     674     136                                                         793    0.31    0.00  1.0000
  -2   8   2    5086     290                                                        4619    0.47    0.00  1.0000
  -2   8   2    4800     247                                                        4348    0.47    0.00  1.0000
  -2   8   1    5935     333                                                        6465    0.47    0.00  1.0000
  -2   8   1    6593     322                                                        7152    0.47    0.00  1.0000
  -2   8   0    9254     413                                                        8792    0.34    0.00  1.0000
  -2   8   0    8992     361                                                        8538    0.34    0.00  1.0000
  -2   8   0    8552     363                                                        8109    0.34    0.00  1.0000
  -2   8  -1     633     131                                                         691    0.16    0.00  1.0000
  -2   8  -1     609     111                                                         665    0.16    0.00  1.0000
  -2   8  -1     573      97                                                         628    0.16    0.00  1.0000
  -2   8  -2     396     106                                                         394    0.01    0.00  1.0000
  -2   8  -3      15      54                                                          18   -0.06    0.00  1.0000
  -2   8  -3      20      36                                                          24   -0.06    0.00  1.0000
  -2   8  -4      88      56                                                          82   -0.04    0.00  1.0000
  -2   8  -4      71      33                                                          66   -0.04    0.00  1.0000
  -2   8  -5     122      43                                                         123   -0.01    0.00  1.0000
   2  -7 -11    8541     270                                                        8314   -0.17    0.00  1.0000
   2  -7 -10    4797     247                                                        4869   -0.07    0.00  1.0000
   2  -7  -9    6087     300                                                        6167    0.07    0.00  1.0000
  -2   7   9    6199     329                                                        6281    0.07    0.00  1.0000
   2  -7  -8    1306     144                                                        1212    0.19    0.00  1.0000
  -2   7   8    1365     158                                                        1268    0.19    0.00  1.0000
  -2   7   7    1098     139                                                         974    0.27    0.00  1.0000
  -2   7   6    4458     288                                                        4791    0.34    0.00  1.0000
  -2   7   6    4464     270                                                        4797    0.34    0.00  1.0000
  -2   7   5     813     102                                                         666    0.38    0.00  1.0000
  -2   7   5    1050     127                                                         882    0.38    0.00  1.0000
  -2   7   4   21600     605                                                       22234    0.30    0.00  1.0000
  -2   7   3   10987     426                                                       10884    0.07    0.00  1.0000
  -2   7   3   11257     753                                                       11152    0.07    0.00  1.0000
  -2   7   2     151      48                                                         113   -0.23    0.00  1.0000
  -2   7   2     198      72                                                         153   -0.23    0.00  1.0000
  -2   7   1     521      77                                                         376   -0.48    0.00  1.0000
  -2   7   1     490      86                                                         350   -0.48    0.00  1.0000
  -2   7   0    6871     344                                                        7578   -0.58    0.00  1.0000
  -2   7   0    6777     326                                                        7480   -0.58    0.00  1.0000
  -2   7  -1     739     109                                                         538   -0.56    0.00  1.0000
  -2   7  -1     585      90                                                         408   -0.56    0.00  1.0000
  -2   7  -1     529      87                                                         361   -0.56    0.00  1.0000
  -2   7  -2    1714     172                                                        1995   -0.46    0.00  1.0000
  -2   7  -2    1817     208                                                        2106   -0.46    0.00  1.0000
  -2   7  -2    1700     185                                                        1980   -0.46    0.00  1.0000
  -2   7  -3     576     113                                                         471   -0.32    0.00  1.0000
  -2   7  -3     650      96                                                         537   -0.32    0.00  1.0000
  -2   7  -4       0      58                                                           3   -0.20    0.00  1.0000
  -2   7  -4       4      44                                                          11   -0.20    0.00  1.0000
  -2   7  -5      84      57                                                          99   -0.11    0.00  1.0000
  -2   7  -5      88      53                                                         103   -0.11    0.00  1.0000
  -2   7  -6       0      34                                                         -41   -0.06    0.00  1.0000
  -2   7  -6       0      27                                                          -6   -0.06    0.00  1.0000
   2  -6 -11    2763     166                                                        2828    0.09    0.00  1.0000
  -2   6  10     215      70                                                         207    0.04    0.00  1.0000
   2  -6 -10     176      61                                                         168    0.04    0.00  1.0000
  -2   6   9    2999     232                                                        2962   -0.05    0.00  1.0000
   2  -6  -9    3126     222                                                        3088   -0.05    0.00  1.0000
  -2   6   8   18284     583                                                       18543   -0.13    0.00  1.0000
  -2   6   7    8143     374                                                        7855   -0.22    0.00  1.0000
  -2   6   6     346     149                                                         445   -0.35    0.00  1.0000
  -2   6   6     394      98                                                         499   -0.35    0.00  1.0000
  -2   6   6     485      94                                                         601   -0.35    0.00  1.0000
  -2   6   5    1533     298                                                        1815   -0.48    0.00  1.0000
  -2   6   5    1319     154                                                        1581   -0.48    0.00  1.0000
  -2   6   5    1332     152                                                        1596   -0.48    0.00  1.0000
  -2   6   4   35997    1284                                                       34521   -0.55    0.00  1.0000
  -2   6   3   48650    1515                                                       50123   -0.46    0.00  1.0000
  -2   6   2   31925    1221                                                       31367   -0.22    0.00  1.0000
  -2   6   1   13786     828                                                       13647    0.08    0.00  1.0000
  -2   6   0    2367     165                                                        2145    0.33    0.00  1.0000
  -2   6   0    2136     166                                                        1926    0.33    0.00  1.0000
  -2   6   0    2019     162                                                        1815    0.33    0.00  1.0000
  -2   6  -1     475     116                                                         636    0.48    0.00  1.0000
  -2   6  -1     543      99                                                         715    0.48    0.00  1.0000
  -2   6  -1     359      94                                                         501    0.48    0.00  1.0000
  -2   6  -1     478     101                                                         640    0.48    0.00  1.0000
  -2   6  -2    1119     258                                                         860    0.58    0.00  1.0000
  -2   6  -2    1156     133                                                         892    0.58    0.00  1.0000
  -2   6  -2     969     108                                                         729    0.58    0.00  1.0000
  -2   6  -2     991     108                                                         748    0.58    0.00  1.0000
  -2   6  -2     941     100                                                         705    0.58    0.00  1.0000
  -2   6  -3     583     128                                                         818    0.62    0.00  1.0000
  -2   6  -3     654     130                                                         902    0.62    0.00  1.0000
  -2   6  -3     635     151                                                         879    0.62    0.00  1.0000
  -2   6  -4     205      67                                                         105    0.57    0.00  1.0000
  -2   6  -4     224      66                                                         118    0.57    0.00  1.0000
  -2   6  -5     273     100                                                         383    0.43    0.00  1.0000
  -2   6  -5     297      94                                                         412    0.43    0.00  1.0000
  -2   6  -6     675     105                                                         578    0.27    0.00  1.0000
  -2   6  -6     806     108                                                         700    0.27    0.00  1.0000
  -2   6  -7       1      44                                                         -66    0.16    0.00  1.0000
   2  -5 -12    2341     132                                                        2418    0.11    0.00  1.0000
   2  -5 -11       0      37                                                          -7    0.09    0.00  1.0000
  -2   5  10     746     119                                                         788    0.11    0.00  1.0000
   2  -5 -10     651     105                                                         691    0.11    0.00  1.0000
  -2   5   9      56      52                                                          72    0.14    0.00  1.0000
  -2   5   8   28136     699                                                       27739    0.17    0.00  1.0000
  -2   5   7   22578    1130                                                       23041    0.21    0.00  1.0000
  -2   5   7   22886     623                                                       23352    0.21    0.00  1.0000
  -2   5   6   22921     569                                                       22185    0.34    0.00  1.0000
  -2   5   6   22201     482                                                       21477    0.34    0.00  1.0000
  -2   5   6   23017    1077                                                       22279    0.34    0.00  1.0000
  -2   5   5   21037    1028                                                       22153    0.53    0.00  1.0000
  -2   5   4     300      97                                                         154    0.68    0.00  1.0000
  -2   5   3   12150     677                                                       11056    0.71    0.00  1.0000
  -2   5   2   51926    1482                                                       53788    0.56    0.00  1.0000
  -2   5   1   53775    1508                                                       52769    0.30    0.00  1.0000
  -2   5   1   54411     795                                                       53399    0.30    0.00  1.0000
  -2   5   0    4171     443                                                        4215    0.05    0.00  1.0000
  -2   5   0    4345     224                                                        4390    0.05    0.00  1.0000
  -2   5  -1    4569     520                                                        4690   -0.12    0.00  1.0000
  -2   5  -2      33      89                                                          16   -0.25    0.00  1.0000
  -2   5  -2       3      56                                                          -4   -0.25    0.00  1.0000
  -2   5  -2       3      41                                                         -19   -0.25    0.00  1.0000
  -2   5  -3    4776     562                                                        4386   -0.40    0.00  1.0000
  -2   5  -3    4330     242                                                        3959   -0.40    0.00  1.0000
  -2   5  -3    4453     272                                                        4076   -0.40    0.00  1.0000
  -2   5  -3    4422     256                                                        4046   -0.40    0.00  1.0000
  -2   5  -4    4933     317                                                        5491   -0.54    0.00  1.0000
  -2   5  -4    5206     336                                                        5779   -0.54    0.00  1.0000
  -2   5  -4    5930     332                                                        6541   -0.54    0.00  1.0000
  -2   5  -4    5407     695                                                        5991   -0.54    0.00  1.0000
  -2   5  -5    1986     188                                                        1648   -0.55    0.00  1.0000
  -2   5  -5    1574     164                                                        1276   -0.55    0.00  1.0000
  -2   5  -6    2085     206                                                        2381   -0.44    0.00  1.0000
  -2   5  -6    1954     206                                                        2241   -0.44    0.00  1.0000
  -2   5  -7      58      42                                                          30   -0.30    0.00  1.0000
  -2   5  -7     128      55                                                          84   -0.30    0.00  1.0000
  -2   5  -8     254      62                                                         305   -0.21    0.00  1.0000
  -2   5  -8     228      53                                                         276   -0.21    0.00  1.0000
   2  -4 -12    3360     135                                                        3174   -0.23    0.00  1.0000
  -2   4  11    3150     185                                                        3345   -0.24    0.00  1.0000
   2  -4 -11    3521     175                                                        3726   -0.24    0.00  1.0000
   2  -4 -10    7167     292                                                        6832   -0.28    0.00  1.0000
  -2   4  10    7625     329                                                        7278   -0.28    0.00  1.0000
  -2   4   9   10130     424                                                       10645   -0.35    0.00  1.0000
  -2   4   8    3133     241                                                        3446   -0.38    0.00  1.0000
  -2   4   7     213      62                                                         143   -0.37    0.00  1.0000
  -2   4   7       7     147                                                        -331   -0.37    0.00  1.0000
  -2   4   6    7450     642                                                        7979   -0.42    0.00  1.0000
  -2   4   5   59098    1610                                                       57111   -0.57    0.00  1.0000
  -2   4   4   65773    1660                                                       68547   -0.75    0.00  1.0000
  -2   4   3   46328    1257                                                       43787   -0.83    0.00  1.0000
  -2   4   2      33      56                                                         -16   -0.80    0.00  1.0000
  -2   4   1   20560     877                                                       21882   -0.63    0.00  1.0000
  -2   4   0    7405     515                                                        6922   -0.40    0.00  1.0000
  -2   4   0    7432     249                                                        6949   -0.40    0.00  1.0000
  -2   4  -1   16217     903                                                       16589   -0.20    0.00  1.0000
  -2   4  -1   16647     372                                                       17025   -0.20    0.00  1.0000
  -2   4  -2    9316     718                                                        9176   -0.10    0.00  1.0000
  -2   4  -3    3074     451                                                        3090   -0.02    0.00  1.0000
  -2   4  -4    2371     188                                                        2453    0.12    0.00  1.0000
  -2   4  -4    2617     213                                                        2703    0.12    0.00  1.0000
  -2   4  -4    2709     219                                                        2796    0.12    0.00  1.0000
  -2   4  -4    2954     472                                                        3046    0.12    0.00  1.0000
  -2   4  -5    3644     255                                                        3436    0.24    0.00  1.0000
  -2   4  -5    3554     250                                                        3348    0.24    0.00  1.0000
  -2   4  -5    3693     543                                                        3484    0.24    0.00  1.0000
  -2   4  -6     754     122                                                         654    0.26    0.00  1.0000
  -2   4  -6     493      99                                                         413    0.26    0.00  1.0000
  -2   4  -7     463     102                                                         531    0.21    0.00  1.0000
  -2   4  -7     452     107                                                         519    0.21    0.00  1.0000
  -2   4  -8    1005     111                                                         919    0.19    0.00  1.0000
  -2   4  -8    1130     127                                                        1039    0.19    0.00  1.0000
  -2   4  -9     141      46                                                         175    0.19    0.00  1.0000
   2  -3 -11     148      53                                                         190    0.22    0.00  1.0000
   2  -3 -11     113      46                                                         149    0.22    0.00  1.0000
   2  -3 -10       5      35                                                         -31    0.30    0.00  1.0000
  -2   3  10      44      42                                                          20    0.30    0.00  1.0000
   2  -3 -10       5      40                                                         -15    0.30    0.00  1.0000
   2  -3  -9   15849     414                                                       14963    0.50    0.00  1.0000
  -2   3   9   16809     502                                                       15895    0.50    0.00  1.0000
  -2   3   8    6489     339                                                        7317    0.69    0.00  1.0000
  -2   3   8    5533     700                                                        6300    0.69    0.00  1.0000
  -2   3   7   14060     423                                                       12803    0.76    0.00  1.0000
  -2   3   7   12607     879                                                       11418    0.76    0.00  1.0000
  -2   3   6    3409     410                                                        2826    0.73    0.00  1.0000
  -2   3   5   90037    2115                                                       93231    0.74    0.00  1.0000
  -2   3   4  114409    1982                                                      110659    0.78    0.00  1.0000
  -2   3   3  204914    2637                                                      210128    0.80    0.00  1.0000
  -2   3   3  206115    2064                                                      211345    0.80    0.00  1.0000
  -2   3   2   34655     982                                                       32545    0.80    0.00  1.0000
  -2   3   1    6687     416                                                        5761    0.82    0.00  1.0000
  -2   3   0    7383     507                                                        8395    0.79    0.00  1.0000
  -2   3   0    7186     550                                                        8185    0.79    0.00  1.0000
  -2   3   0    7712     238                                                        8745    0.79    0.00  1.0000
  -2   3  -1   18698     828                                                       17383    0.68    0.00  1.0000
  -2   3  -1   19735     327                                                       18384    0.68    0.00  1.0000
  -2   3  -1   19595     783                                                       18249    0.68    0.00  1.0000
  -2   3  -2   13688     817                                                       14611    0.54    0.00  1.0000
  -2   3  -3    9724     703                                                        9130    0.43    0.00  1.0000
  -2   3  -4    4332     554                                                        4626    0.31    0.00  1.0000
  -2   3  -5   12039     938                                                       11773    0.17    0.00  1.0000
  -2   3  -5   11002     416                                                       10748    0.17    0.00  1.0000
  -2   3  -5   10875     418                                                       10622    0.17    0.00  1.0000
  -2   3  -6     455     205                                                         484    0.09    0.00  1.0000
  -2   3  -6     361      98                                                         386    0.09    0.00  1.0000
  -2   3  -6     336      91                                                         360    0.09    0.00  1.0000
  -2   3  -7     405      93                                                         379    0.09    0.00  1.0000
  -2   3  -7     537     109                                                         508    0.09    0.00  1.0000
  -2   3  -8     662     110                                                         642    0.06    0.00  1.0000
  -2   3  -9    1033     113                                                        1002   -0.07    0.00  1.0000
  -2   3 -10      74      33                                                          94   -0.16    0.00  1.0000
   2  -2 -11     377      66                                                         367   -0.04    0.00  1.0000
   2  -2 -10      20      45                                                          16   -0.07    0.00  1.0000
   2  -2  -9   26041     591                                                       26790   -0.32    0.00  1.0000
  -2   2   9   26955     626                                                       27717   -0.32    0.00  1.0000
  -2   2   8   13269    1004                                                       12068   -0.74    0.00  1.0000
   2  -2  -8   12852     378                                                       11670   -0.74    0.00  1.0000
  -2   2   8   13023     416                                                       11833   -0.74    0.00  1.0000
  -2   2   7   32226     669                                                       35068   -1.08    0.00  1.0000
   2  -2  -7   30973     591                                                       33760   -1.08    0.00  1.0000
  -2   2   7   31048    1569                                                       33838   -1.08    0.00  1.0000
  -2   2   6   51362    1698                                                       47596   -1.18    0.00  1.0000
  -2   2   5   41335    1496                                                       44697   -1.13    0.00  1.0000
  -2   2   4   33560    1068                                                       30951   -1.01    0.00  1.0000
  -2   2   3   82460    1401                                                       79158   -0.81    0.00  1.0000
  -2   2   2   68633    1021                                                       70858   -0.59    0.00  1.0000
  -2   2   2   66695    1327                                                       68888   -0.59    0.00  1.0000
  -2   2   1    8973     447                                                        8255   -0.54    0.00  1.0000
  -2   2   1    8114     240                                                        7433   -0.54    0.00  1.0000
  -2   2   0   28874     874                                                       30658   -0.72    0.00  1.0000
  -2   2   0   30153     960                                                       31976   -0.72    0.00  1.0000
  -2   2  -1    3693     307                                                        2917   -0.94    0.00  1.0000
  -2   2  -1    3986     294                                                        3178   -0.94    0.00  1.0000
  -2   2  -2    1571     287                                                        2199   -1.01    0.00  1.0000
  -2   2  -3    2506     386                                                        3211   -0.92    0.00  1.0000
  -2   2  -4     798     187                                                         526   -0.74    0.00  1.0000
  -2   2  -5   18779    1153                                                       19819   -0.52    0.00  1.0000
  -2   2  -6    5501     248                                                        5139   -0.35    0.00  1.0000
  -2   2  -6    5826     297                                                        5453   -0.35    0.00  1.0000
  -2   2  -6    5537     292                                                        5174   -0.35    0.00  1.0000
  -2   2  -6    5274     267                                                        4920   -0.35    0.00  1.0000
  -2   2  -6    6035     661                                                        5655   -0.35    0.00  1.0000
  -2   2  -7    5898     330                                                        6234   -0.30    0.00  1.0000
  -2   2  -7    5307     297                                                        5626   -0.30    0.00  1.0000
  -2   2  -7    5376     275                                                        5697   -0.30    0.00  1.0000
  -2   2  -7    5409     314                                                        5731   -0.30    0.00  1.0000
  -2   2  -8      42      50                                                          76   -0.31    0.00  1.0000
  -2   2  -8       5      47                                                          -5   -0.31    0.00  1.0000
  -2   2  -9     727      89                                                         654   -0.19    0.00  1.0000
  -2   2  -9     974     114                                                         889   -0.19    0.00  1.0000
  -2   2 -10      55      34                                                          59    0.03    0.00  1.0000
   2  -1 -11     583      78                                                         533   -0.15    0.00  1.0000
   2  -1 -10    4932     257                                                        5173   -0.24    0.00  1.0000
   2  -1  -9      14      52                                                          23   -0.14    0.00  1.0000
  -2   1   8     258      66                                                         196    0.28    0.00  1.0000
   2  -1  -8     263      62                                                         201    0.28    0.00  1.0000
  -2   1   7   10766     864                                                        9567    0.83    0.00  1.0000
  -2   1   7   10834     342                                                        9632    0.83    0.00  1.0000
   2  -1  -7   10703     337                                                        9508    0.83    0.00  1.0000
  -2   1   6   55508    1974                                                       59583    1.18    0.00  1.0000
  -2   1   5   45213    1477                                                       41394    1.28    0.00  1.0000
  -2   1   4   81886    1865                                                       86938    1.21    0.00  1.0000
  -2   1   3    3066     342                                                        3884    0.97    0.00  1.0000
  -2   1   2    1930     187                                                        1616    0.52    0.00  1.0000
  -2   1   1    7217     303                                                        7339    0.10    0.00  1.0000
  -2   1   1    6481     370                                                        6596    0.10    0.00  1.0000
  -2   1   0  145361    1639                                                      145170    0.03    0.00  1.0000
  -2   1   0  143905    1253                                                      143715    0.03    0.00  1.0000
  -2   1  -1   32604     634                                                       33528    0.35    0.00  1.0000
  -2   1  -1   33829     832                                                       34770    0.35    0.00  1.0000
  -2   1  -1   32993     920                                                       33922    0.35    0.00  1.0000
   2  -1   1   34168     467                                                       35113    0.35    0.00  1.0000
  -2   1  -2   32111     835                                                       30191    0.76    0.00  1.0000
   2  -1   2   33415     593                                                       31456    0.76    0.00  1.0000
  -2   1  -3    4885     481                                                        5930    0.99    0.00  1.0000
   2  -1   3    4927     335                                                        5975    0.99    0.00  1.0000
  -2   1  -4   24227    1024                                                       22028    1.01    0.00  1.0000
   2  -1   4   25373     799                                                       23122    1.01    0.00  1.0000
  -2   1  -5     201      92                                                          65    0.85    0.00  1.0000
   2  -1   5      37     104                                                        -229    0.85    0.00  1.0000
  -2   1  -6    3857     559                                                        4399    0.59    0.00  1.0000
   2  -1   6    4084     477                                                        4641    0.59    0.00  1.0000
  -2   1  -7   19599    1205                                                       18817    0.39    0.00  1.0000
  -2   1  -7   19817     545                                                       19030    0.39    0.00  1.0000
  -2   1  -7   18913     497                                                       18145    0.39    0.00  1.0000
  -2   1  -7   19658     532                                                       18875    0.39    0.00  1.0000
  -2   1  -7   18417     527                                                       17659    0.39    0.00  1.0000
  -2   1  -8    9263     378                                                        9768    0.36    0.00  1.0000
  -2   1  -8    8988     399                                                        9486    0.36    0.00  1.0000
  -2   1  -8    9520     395                                                       10032    0.36    0.00  1.0000
  -2   1  -8    8581     356                                                        9067    0.36    0.00  1.0000
  -2   1  -9     486      83                                                         380    0.36    0.00  1.0000
  -2   1  -9     539      82                                                         427    0.36    0.00  1.0000
  -2   1  -9     390      70                                                         296    0.36    0.00  1.0000
  -2   1 -10    2657     166                                                        2804    0.20    0.00  1.0000
  -2   1 -10    2285     167                                                        2421    0.20    0.00  1.0000
  -2   1 -11     365      51                                                         351   -0.05    0.00  1.0000
   2   0 -11     244      59                                                         295    0.22    0.00  1.0000
   2   0 -10    7101     286                                                        6644    0.38    0.00  1.0000
   2   0  -9    3559     244                                                        4007    0.51    0.00  1.0000
   2   0  -8    9205     361                                                        8730    0.35    0.00  1.0000
  -2   0   7    6339     720                                                        6242   -0.08    0.00  1.0000
   2   0  -7    6822     299                                                        6721   -0.08    0.00  1.0000
  -2   0   6      12      73                                                         -28   -0.49    0.00  1.0000
  -2   0   5    7448     689                                                        8257   -0.64    0.00  1.0000
  -2   0   4  178607    2786                                                      174842   -0.62    0.00  1.0000
  -2   0   3   17935     794                                                       18989   -0.54    0.00  1.0000
  -2   0   2   99979    1620                                                      101236   -0.28    0.00  1.0000
  -2   0   1  208013    1941                                                      209242    0.19    0.00  1.0000
  -2   0   0  147878    1495                                                      144839    0.55    0.00  1.0000
  -2   0   0  144244    1422                                                      141243    0.55    0.00  1.0000
  -2   0  -1   13619     493                                                       12752    0.53    0.00  1.0000
  -2   0  -1   14390     449                                                       13499    0.53    0.00  1.0000
  -2   0  -1   14002     433                                                       13123    0.53    0.00  1.0000
  -2   0  -2   15959     599                                                       15651    0.17    0.00  1.0000
  -2   0  -2   16782     538                                                       16466    0.17    0.00  1.0000
  -2   0  -2   17198     539                                                       16878    0.17    0.00  1.0000
   2   0   3   37236     837                                                       36578   -0.24    0.00  1.0000
  -2   0  -3   33601     973                                                       32976   -0.24    0.00  1.0000
  -2   0  -4  125100    2191                                                      127907   -0.55    0.00  1.0000
   2   0   4  122667    1786                                                      125447   -0.55    0.00  1.0000
   2   0   5   39330    1149                                                       37305   -0.72    0.00  1.0000
   2   0   6    3326     437                                                        3924   -0.69    0.00  1.0000
  -2   0  -7    5779     300                                                        6334   -0.50    0.00  1.0000
   2   0   7    5068     570                                                        5588   -0.50    0.00  1.0000
  -2   0  -7    5671     312                                                        6221   -0.50    0.00  1.0000
  -2   0  -7    5652     287                                                        6200   -0.50    0.00  1.0000
  -2   0  -7    5655     672                                                        6204   -0.50    0.00  1.0000
  -2   0  -8   13900    1001                                                       13357   -0.32    0.00  1.0000
  -2   0  -8   13873     449                                                       13330   -0.32    0.00  1.0000
  -2   0  -8   14022     483                                                       13476   -0.32    0.00  1.0000
  -2   0  -8   12803     408                                                       12281   -0.32    0.00  1.0000
  -2   0  -9    1313     142                                                        1472   -0.30    0.00  1.0000
  -2   0  -9    1124     151                                                        1272   -0.30    0.00  1.0000
  -2   0 -10    7727     329                                                        7371   -0.29    0.00  1.0000
  -2   0 -10    8457     339                                                        8085   -0.29    0.00  1.0000
  -2   0 -11     119      44                                                         142   -0.14    0.00  1.0000
  -2   0 -11      58      42                                                          75   -0.14    0.00  1.0000
   2   1 -11      99      38                                                         127   -0.18    0.00  1.0000
   2   1 -10    1271     135                                                        1436   -0.31    0.00  1.0000
   2   1  -9    1321     131                                                        1066   -0.52    0.00  1.0000
   2   1  -8    5137     299                                                        5794   -0.62    0.00  1.0000
  -2  -1   7    9749     907                                                        9093   -0.47    0.00  1.0000
   2   1  -7    9250     352                                                        8611   -0.47    0.00  1.0000
  -2  -1   6    3276     526                                                        3475   -0.24    0.00  1.0000
   2   1  -6    3805     220                                                        4020   -0.24    0.00  1.0000
  -2  -1   5    2201     379                                                        2045   -0.23    0.00  1.0000
  -2  -1   4   43117    1454                                                       41718   -0.47    0.00  1.0000
  -2  -1   3   29574    1115                                                       31332   -0.70    0.00  1.0000
  -2  -1   2  110451    1822                                                      106587   -0.82    0.00  1.0000
  -2  -1   1  785723    4377                                                      797694   -0.94    0.00  1.0000
  -2  -1   0  456216    2918                                                      445951   -1.06    0.00  1.0000
  -2  -1  -1  193803    1393                                                      200314   -1.02    0.00  1.0000
  -2  -1  -1  201917    1942                                                      208562   -1.02    0.00  1.0000
  -2  -1  -2    2900     258                                                        3526   -0.77    0.00  1.0000
  -2  -1  -2    2436     226                                                        3012   -0.77    0.00  1.0000
  -2  -1  -3    4899     355                                                        5397   -0.48    0.00  1.0000
  -2  -1  -3    4478     335                                                        4955   -0.48    0.00  1.0000
   2   1   4    6106     416                                                        6394   -0.25    0.00  1.0000
   2   1   5   51900    1323                                                       51923    0.01    0.00  1.0000
   2   1   6   37048    1271                                                       36276    0.28    0.00  1.0000
   2   1   7    8225     712                                                        8731    0.38    0.00  1.0000
  -2  -1  -8    1556     346                                                        1710    0.27    0.00  1.0000
  -2  -1  -8    1284     149                                                        1424    0.27    0.00  1.0000
  -2  -1  -8    1009     144                                                        1133    0.27    0.00  1.0000
  -2  -1  -9     776     121                                                         829    0.13    0.00  1.0000
  -2  -1  -9     869     133                                                         925    0.13    0.00  1.0000
  -2  -1  -9     741     134                                                         793    0.13    0.00  1.0000
  -2  -1 -10    7387     354                                                        7539    0.12    0.00  1.0000
  -2  -1 -10    7242     356                                                        7393    0.12    0.00  1.0000
  -2  -1 -11    1249     126                                                        1176    0.15    0.00  1.0000
  -2  -1 -11    1425     133                                                        1347    0.15    0.00  1.0000
  -2  -1 -12    1584     113                                                        1632    0.08    0.00  1.0000
   2   2 -10      46      36                                                          57    0.10    0.00  1.0000
   2   2 -10      46      35                                                          57    0.10    0.00  1.0000
   2   2  -9       2      46                                                         -20    0.21    0.00  1.0000
   2   2  -8     317      74                                                         224    0.39    0.00  1.0000
   2   2  -7    4248     267                                                        4701    0.47    0.00  1.0000
   2   2  -6   14358     511                                                       13680    0.40    0.00  1.0000
  -2  -2   6   14517    1083                                                       13835    0.40    0.00  1.0000
   2   2  -6   15029     430                                                       14335    0.40    0.00  1.0000
  -2  -2   5   46240    1847                                                       47613    0.44    0.00  1.0000
  -2  -2   4    1867     306                                                        1390    0.83    0.00  1.0000
  -2  -2   3    5643     448                                                        4233    1.40    0.00  1.0000
  -2  -2   2   10550     713                                                       13449    1.85    0.00  1.0000
  -2  -2   1   13922     575                                                       10706    2.02    0.00  1.0000
  -2  -2   0  113243    1627                                                      104050    1.94    0.00  1.0000
  -2  -2  -1    1110     114                                                         481    1.59    0.00  1.0000
  -2  -2  -1    1079      51                                                         461    1.59    0.00  1.0000
  -2  -2  -2   37241     930                                                       40145    1.03    0.00  1.0000
  -2  -2  -2   37417     653                                                       40327    1.03    0.00  1.0000
  -2  -2  -3  104449    1246                                                      101823    0.57    0.00  1.0000
  -2  -2  -3  102860    1514                                                      100254    0.57    0.00  1.0000
  -2  -2  -4   13877     654                                                       14622    0.43    0.00  1.0000
   2   2   4   14928     648                                                       15700    0.43    0.00  1.0000
   2   2   5   50685    1342                                                       52157    0.45    0.00  1.0000
   2   2   6   56270    1540                                                       55203    0.31    0.00  1.0000
   2   2   7   56931    1765                                                       57088    0.05    0.00  1.0000
   2   2   8   11269     876                                                       11388   -0.08    0.00  1.0000
  -2  -2  -8   11630     412                                                       11751   -0.08    0.00  1.0000
  -2  -2  -8   11516     452                                                       11636   -0.08    0.00  1.0000
  -2  -2  -9   18661     579                                                       18695    0.02    0.00  1.0000
  -2  -2  -9   19000     605                                                       19034    0.02    0.00  1.0000
  -2  -2 -10     697     121                                                         744    0.12    0.00  1.0000
  -2  -2 -10     516     113                                                         556    0.12    0.00  1.0000
  -2  -2 -11     611     100                                                         580    0.09    0.00  1.0000
  -2  -2 -11     541      94                                                         512    0.09    0.00  1.0000
  -2  -2 -12    1505     126                                                        1505    0.00    0.00  1.0000
  -2  -2 -12    1622     126                                                        1622    0.00    0.00  1.0000
   2   3 -10     413      56                                                         437    0.08    0.00  1.0000
   2   3 -10     446      56                                                         470    0.08    0.00  1.0000
   2   3  -9     682      93                                                         627    0.15    0.00  1.0000
   2   3  -8     695     108                                                         720    0.07    0.00  1.0000
   2   3  -7     114      69                                                         130   -0.10    0.00  1.0000
  -2  -3   6    1711     447                                                        1813   -0.17    0.00  1.0000
   2   3  -6    1623     159                                                        1723   -0.17    0.00  1.0000
   2   3  -6    1494     191                                                        1590   -0.17    0.00  1.0000
   2   3  -5   20036     590                                                       19732   -0.15    0.00  1.0000
   2   3  -5   20679     485                                                       20370   -0.15    0.00  1.0000
  -2  -3   4   11546     899                                                       12012   -0.30    0.00  1.0000
  -2  -3   3    7758     613                                                        6821   -0.76    0.00  1.0000
  -2  -3   2   24046    1118                                                       27261   -1.40    0.00  1.0000
  -2  -3   1    1467     165                                                         587   -1.96    0.00  1.0000
  -2  -3   0   19525     886                                                       24342   -2.27    0.00  1.0000
  -2  -3  -1   19834     791                                                       24412   -2.15    0.00  1.0000
   2   3   2    1798      64                                                         990   -1.52    0.00  1.0000
  -2  -3  -2    1631     151                                                         867   -1.52    0.00  1.0000
   2   3   3   24718     327                                                       26321   -0.70    0.00  1.0000
  -2  -3  -3   24247     798                                                       25835   -0.70    0.00  1.0000
  -2  -3  -3   23007     426                                                       24554   -0.70    0.00  1.0000
  -2  -3  -4  180072    2286                                                      178872   -0.20    0.00  1.0000
  -2  -3  -4  189197    1673                                                      187967   -0.20    0.00  1.0000
   2   3   5   23961     937                                                       24418   -0.20    0.00  1.0000
   2   3   6     223     129                                                         309   -0.37    0.00  1.0000
   2   3   7   48011    1580                                                       47012   -0.32    0.00  1.0000
  -2  -3  -8   18177     541                                                       18437   -0.13    0.00  1.0000
   2   3   8   17033    1060                                                       17285   -0.13    0.00  1.0000
  -2  -3  -9   21569     619                                                       21374   -0.09    0.00  1.0000
  -2  -3  -9   21945     648                                                       21748   -0.09    0.00  1.0000
  -2  -3 -10    2357     218                                                        2511   -0.22    0.00  1.0000
  -2  -3 -10    2515     234                                                        2675   -0.22    0.00  1.0000
  -2  -3 -11    1364     144                                                        1210   -0.30    0.00  1.0000
  -2  -3 -11    1484     154                                                        1323   -0.30    0.00  1.0000
  -2  -3 -12      61      40                                                          38   -0.23    0.00  1.0000
  -2  -3 -12      38      38                                                          20   -0.23    0.00  1.0000
   2   4  -9      95      44                                                         133   -0.25    0.00  1.0000
   2   4  -9      85      37                                                         122   -0.25    0.00  1.0000
   2   4  -8     491      71                                                         381   -0.37    0.00  1.0000
   2   4  -7    2519     196                                                        2747   -0.31    0.00  1.0000
   2   4  -6    1709     202                                                        1613   -0.17    0.00  1.0000
   2   4  -6    1644     155                                                        1550   -0.17    0.00  1.0000
  -2  -4   5     697     253                                                         653   -0.12    0.00  1.0000
   2   4  -5     632     102                                                         590   -0.12    0.00  1.0000
   2   4  -5     778     134                                                         732   -0.12    0.00  1.0000
   2   4  -4    4094     268                                                        4247   -0.17    0.00  1.0000
  -2  -4   4    3719     538                                                        3865   -0.17    0.00  1.0000
  -2  -4   3    7808     698                                                        7649   -0.13    0.00  1.0000
  -2  -4   2   24800    1142                                                       24524    0.12    0.00  1.0000
  -2  -4   1    8700     662                                                        9492    0.58    0.00  1.0000
  -2  -4   0   34169    1044                                                       31156    1.16    0.00  1.0000
  -2  -4   0   36590    1159                                                       33470    1.16    0.00  1.0000
  -2  -4  -1    1602     291                                                        2685    1.64    0.00  1.0000
  -2  -4  -2    2704     340                                                        4089    1.66    0.00  1.0000
   2   4   2    2693     158                                                        4074    1.66    0.00  1.0000
  -2  -4  -3   58472    1211                                                       54710    1.10    0.00  1.0000
   2   4   3   58054     572                                                       54306    1.10    0.00  1.0000
  -2  -4  -4  341966    3191                                                      344923    0.35    0.00  1.0000
   2   4   4  336629    1492                                                      339563    0.35    0.00  1.0000
   2   4   5   93277    1881                                                       93423   -0.03    0.00  1.0000
   2   4   6   43759    1417                                                       43883    0.04    0.00  1.0000
   2   4   7    7344     626                                                        7101    0.20    0.00  1.0000
  -2  -4  -8   10723     372                                                       10983    0.17    0.00  1.0000
  -2  -4  -8   11347     427                                                       11615    0.17    0.00  1.0000
   2   4   8   11134     860                                                       11400    0.17    0.00  1.0000
  -2  -4  -9     646     123                                                         682    0.10    0.00  1.0000
  -2  -4 -10    9467     409                                                        9240    0.16    0.00  1.0000
  -2  -4 -10    9826     434                                                        9595    0.16    0.00  1.0000
  -2  -4 -11    8820     389                                                        9238    0.31    0.00  1.0000
  -2  -4 -11    9160     413                                                        9585    0.31    0.00  1.0000
  -2  -4 -12    1495     133                                                        1310    0.34    0.00  1.0000
  -2  -4 -12    1429     128                                                        1248    0.34    0.00  1.0000
  -2  -4 -13       7      25                                                          19    0.25    0.00  1.0000
   2   5  -8      16      35                                                          36    0.27    0.00  1.0000
   2   5  -8       2      30                                                          12    0.27    0.00  1.0000
   2   5  -7     552      78                                                         413    0.44    0.00  1.0000
   2   5  -6    1022     182                                                        1243    0.46    0.00  1.0000
   2   5  -6    1133     138                                                        1365    0.46    0.00  1.0000
   2   5  -5     569     117                                                         444    0.39    0.00  1.0000
   2   5  -5     432      80                                                         324    0.39    0.00  1.0000
   2   5  -4     287     101                                                         385    0.37    0.00  1.0000
   2   5  -4     329      76                                                         433    0.37    0.00  1.0000
  -2  -5   3     584     192                                                         440    0.45    0.00  1.0000
   2   5  -3     137      39                                                          72    0.45    0.00  1.0000
  -2  -5   2     189     132                                                          99    0.53    0.00  1.0000
  -2  -5   1     130     135                                                         229    0.52    0.00  1.0000
  -2  -5   0   12486     694                                                       12054    0.27    0.00  1.0000
  -2  -5  -1   21785     849                                                       21259   -0.25    0.00  1.0000
  -2  -5  -2   44251    1216                                                       46697   -0.80    0.00  1.0000
   2   5   2   43843     611                                                       46278   -0.80    0.00  1.0000
  -2  -5  -3  104496    1719                                                      100061   -0.97    0.00  1.0000
   2   5   3  100189     890                                                       95847   -0.97    0.00  1.0000
   2   5   4      75      48                                                         174   -0.64    0.00  1.0000
  -2  -5  -4      22      91                                                          86   -0.64    0.00  1.0000
  -2  -5  -5    4675     427                                                        4850   -0.18    0.00  1.0000
   2   5   5    4672     219                                                        4847   -0.18    0.00  1.0000
   2   5   6   66140    1781                                                       66159    0.01    0.00  1.0000
   2   5   7   43535    1612                                                       43776   -0.08    0.00  1.0000
  -2  -5  -8    9041     361                                                        8836   -0.15    0.00  1.0000
  -2  -5  -8    9405     383                                                        9196   -0.15    0.00  1.0000
  -2  -5  -9      10      61                                                           6   -0.11    0.00  1.0000
  -2  -5  -9      86      55                                                          71   -0.11    0.00  1.0000
  -2  -5 -10    5166     311                                                        5280   -0.11    0.00  1.0000
  -2  -5 -10    5178     264                                                        5293   -0.11    0.00  1.0000
  -2  -5 -10    5321     330                                                        5438   -0.11    0.00  1.0000
  -2  -5 -11    4349     261                                                        4145   -0.22    0.00  1.0000
  -2  -5 -11    4697     283                                                        4484   -0.22    0.00  1.0000
  -2  -5 -12    2926     207                                                        3174   -0.31    0.00  1.0000
  -2  -5 -13     717      70                                                         616   -0.27    0.00  1.0000
   2   6  -8      92      31                                                          91    0.01    0.00  1.0000
   2   6  -7     203      64                                                         253   -0.23    0.00  1.0000
   2   6  -6    2150     200                                                        1850   -0.47    0.00  1.0000
   2   6  -5    3630     314                                                        4157   -0.59    0.00  1.0000
   2   6  -4    2651     232                                                        2220   -0.61    0.00  1.0000
   2   6  -3    1273     189                                                        1598   -0.60    0.00  1.0000
   2   6  -2    1337     145                                                        1028   -0.63    0.00  1.0000
  -2  -6   1     426     196                                                         664   -0.71    0.00  1.0000
  -2  -6   0    1779     318                                                        2288   -0.79    0.00  1.0000
  -2  -6  -1   11532     624                                                       10508   -0.68    0.00  1.0000
   2   6   1   11775     356                                                       10740   -0.68    0.00  1.0000
  -2  -6  -2   33011    1075                                                       33805   -0.30    0.00  1.0000
   2   6   2   32400     601                                                       33187   -0.30    0.00  1.0000
  -2  -6  -3  126589    1994                                                      127361    0.15    0.00  1.0000
   2   6   3  122821    1154                                                      123582    0.15    0.00  1.0000
   2   6   4   14553     398                                                       13920    0.37    0.00  1.0000
  -2  -6  -4   16190     715                                                       15523    0.37    0.00  1.0000
  -2  -6  -5     367     137                                                         452    0.29    0.00  1.0000
   2   6   5     338      80                                                         420    0.29    0.00  1.0000
   2   6   6   10045     735                                                       10287    0.17    0.00  1.0000
  -2  -6  -7   11552     399                                                       11292    0.17    0.00  1.0000
   2   6   7   12596     863                                                       12324    0.17    0.00  1.0000
  -2  -6  -7   11702     416                                                       11441    0.17    0.00  1.0000
   2   6   8    9997     816                                                       10314    0.22    0.00  1.0000
  -2  -6  -8    9348     395                                                        9654    0.22    0.00  1.0000
  -2  -6  -8    9426     394                                                        9733    0.22    0.00  1.0000
  -2  -6  -9   29139     681                                                       28691    0.18    0.00  1.0000
  -2  -6  -9   28236     692                                                       27795    0.18    0.00  1.0000
  -2  -6 -10    7706     367                                                        7854    0.12    0.00  1.0000
  -2  -6 -10    7549     336                                                        7696    0.12    0.00  1.0000
  -2  -6 -11     314      68                                                         279    0.14    0.00  1.0000
  -2  -6 -11     231      77                                                         201    0.14    0.00  1.0000
  -2  -6 -12      14      43                                                           4    0.23    0.00  1.0000
  -2  -6 -13     183      38                                                         140    0.24    0.00  1.0000
   2   7  -7      63      29                                                          64    0.01    0.00  1.0000
   2   7  -6     117      48                                                          86    0.22    0.00  1.0000
   2   7  -5      56      78                                                         113    0.44    0.00  1.0000
   2   7  -4      14      70                                                          67    0.61    0.00  1.0000
   2   7  -4      57      59                                                         142    0.61    0.00  1.0000
   2   7  -3     451      98                                                         265    0.69    0.00  1.0000
   2   7  -3     236      62                                                         109    0.69    0.00  1.0000
   2   7  -2    4139     316                                                        4808    0.70    0.00  1.0000
   2   7  -2    3595     277                                                        4220    0.70    0.00  1.0000
   2   7  -1    4595     275                                                        3945    0.69    0.00  1.0000
   2   7  -1    4234     256                                                        3611    0.69    0.00  1.0000
   2   7   0    4033     275                                                        4740    0.74    0.00  1.0000
   2   7   1    1868     148                                                        1393    0.82    0.00  1.0000
   2   7   2     124      41                                                          30    0.79    0.00  1.0000
   2   7   3   36772     729                                                       38370    0.57    0.00  1.0000
   2   7   4   22342     556                                                       21764    0.27    0.00  1.0000
   2   7   5   23765     600                                                       23876    0.05    0.00  1.0000
  -2  -7  -6   13303     445                                                       13406   -0.06    0.00  1.0000
   2   7   6   13364     857                                                       13468   -0.06    0.00  1.0000
  -2  -7  -7    1535     160                                                        1453   -0.15    0.00  1.0000
   2   7   7    1210     265                                                        1137   -0.15    0.00  1.0000
  -2  -7  -8     299      93                                                         356   -0.22    0.00  1.0000
  -2  -7  -9   15251     515                                                       15611   -0.20    0.00  1.0000
  -2  -7 -10   11933     429                                                       11768   -0.11    0.00  1.0000
  -2  -7 -11    6302     278                                                        6362   -0.05    0.00  1.0000
  -2  -7 -11    6388     314                                                        6449   -0.05    0.00  1.0000
  -2  -7 -12    5337     191                                                        5231   -0.10    0.00  1.0000
  -2  -7 -12    5954     257                                                        5842   -0.10    0.00  1.0000
  -2  -7 -13    2838     133                                                        2962   -0.16    0.00  1.0000
   2   8  -5       1      32                                                         -23   -0.14    0.00  1.0000
   2   8  -5       1      58                                                         -28   -0.14    0.00  1.0000
   2   8  -4       4      38                                                          -8   -0.27    0.00  1.0000
   2   8  -4      50      59                                                          26   -0.27    0.00  1.0000
   2   8  -3       9      38                                                         -32   -0.42    0.00  1.0000
   2   8  -3     123      70                                                          65   -0.42    0.00  1.0000
   2   8  -2     264      75                                                         151   -0.55    0.00  1.0000
   2   8  -2     102      53                                                          38   -0.55    0.00  1.0000
   2   8  -2     125      52                                                          52   -0.55    0.00  1.0000
   2   8  -1     914     168                                                        1210   -0.63    0.00  1.0000
   2   8  -1     917     156                                                        1213   -0.63    0.00  1.0000
   2   8   0    4777     272                                                        4124   -0.68    0.00  1.0000
   2   8   0    4871     291                                                        4211   -0.68    0.00  1.0000
   2   8   1   11433     469                                                       12607   -0.75    0.00  1.0000
   2   8   2   13896     466                                                       12552   -0.81    0.00  1.0000
   2   8   2   13490     368                                                       12166   -0.81    0.00  1.0000
   2   8   3     740     141                                                        1092   -0.82    0.00  1.0000
   2   8   4     435     115                                                         670   -0.70    0.00  1.0000
  -2  -8  -4     436      98                                                         671   -0.70    0.00  1.0000
   2   8   5   11015     732                                                       10260   -0.51    0.00  1.0000
  -2  -8  -5   10939     381                                                       10186   -0.51    0.00  1.0000
   2   8   5   10258     415                                                        9529   -0.51    0.00  1.0000
  -2  -8  -6   20762     578                                                       21417   -0.31    0.00  1.0000
   2   8   6   20608    1062                                                       21261   -0.31    0.00  1.0000
  -2  -8  -7    6577     329                                                        6416   -0.14    0.00  1.0000
  -2  -8  -8    8390     382                                                        8389    0.00    0.00  1.0000
  -2  -8  -9    1234     148                                                        1202    0.06    0.00  1.0000
  -2  -8 -10    2240     191                                                        2260    0.03    0.00  1.0000
  -2  -8 -11     331      72                                                         338   -0.03    0.00  1.0000
  -2  -8 -11     188      64                                                         194   -0.03    0.00  1.0000
  -2  -8 -12     626      71                                                         619   -0.02    0.00  1.0000
  -2  -8 -12     647      79                                                         640   -0.02    0.00  1.0000
   2   9  -4      13      41                                                          11    0.03    0.00  1.0000
   2   9  -3     121      72                                                         136    0.09    0.00  1.0000
   2   9  -2       2      73                                                         -41    0.21    0.00  1.0000
   2   9  -2       1      44                                                           7    0.21    0.00  1.0000
   2   9  -1       6      56                                                         -19    0.35    0.00  1.0000
   2   9  -1     152      77                                                          96    0.35    0.00  1.0000
   2   9   0     209      94                                                         321    0.48    0.00  1.0000
   2   9   0     214      90                                                         328    0.48    0.00  1.0000
   2   9   1    2681     220                                                        2265    0.58    0.00  1.0000
   2   9   1    2452     200                                                        2055    0.58    0.00  1.0000
   2   9   2    8125     415                                                        8998    0.66    0.00  1.0000
   2   9   2    7411     319                                                        8246    0.66    0.00  1.0000
   2   9   3    4420     227                                                        3769    0.71    0.00  1.0000
   2   9   3    4644     279                                                        3976    0.71    0.00  1.0000
   2   9   4     337     112                                                         553    0.72    0.00  1.0000
   2   9   4     351     104                                                         571    0.72    0.00  1.0000
   2   9   5     489     129                                                         724    0.67    0.00  1.0000
  -2  -9  -5     672     120                                                         943    0.67    0.00  1.0000
  -2  -9  -6    2219     175                                                        1857    0.56    0.00  1.0000
  -2  -9  -7    2030     199                                                        2306    0.41    0.00  1.0000
   2   9   8   27352     599                                                       26748    0.26    0.00  1.0000
  -2  -9  -8   26790     659                                                       26192    0.26    0.00  1.0000
  -2  -9  -9   15046     493                                                       15266    0.12    0.00  1.0000
   2   9   9   14875     419                                                       15093    0.12    0.00  1.0000
   2   9  10    4167     189                                                        4116    0.05    0.00  1.0000
  -2  -9 -10    4235     241                                                        4184    0.05    0.00  1.0000
  -2  -9 -11    2802     174                                                        2835    0.04    0.00  1.0000
  -2  -9 -11    2552     147                                                        2584    0.04    0.00  1.0000
  -2  -9 -12      35      25                                                          32    0.04    0.00  1.0000
   2  10  -3     184      48                                                         177   -0.03    0.00  1.0000
   2  10  -2     424      87                                                         444   -0.07    0.00  1.0000
   2  10  -1    1119     136                                                        1060   -0.12    0.00  1.0000
   2  10  -1     720      99                                                         673   -0.12    0.00  1.0000
   2  10   0     880     145                                                         969   -0.20    0.00  1.0000
   2  10   1      57      75                                                          93   -0.30    0.00  1.0000
   2  10   2    1180     114                                                        1003   -0.37    0.00  1.0000
   2  10   2    1034     133                                                         869   -0.37    0.00  1.0000
   2  10   3    2746     205                                                        3077   -0.43    0.00  1.0000
   2  10   3    2918     255                                                        3258   -0.43    0.00  1.0000
   2  10   4    3609     216                                                        3220   -0.46    0.00  1.0000
   2  10   4    3562     254                                                        3176   -0.46    0.00  1.0000
   2  10   5    5097     288                                                        5609   -0.49    0.00  1.0000
  -2 -10  -6    3168     192                                                        2791   -0.48    0.00  1.0000
   2  10   6    3340     210                                                        2952   -0.48    0.00  1.0000
  -2 -10  -7    1625     168                                                        1880   -0.42    0.00  1.0000
   2  10   7    1663     168                                                        1921   -0.42    0.00  1.0000
  -2 -10  -8    2758     207                                                        3002   -0.32    0.00  1.0000
   2  10   8    2962     206                                                        3214   -0.32    0.00  1.0000
  -2 -10  -9    1836     154                                                        1724   -0.19    0.00  1.0000
   2  10   9    1683     132                                                        1575   -0.19    0.00  1.0000
  -2 -10 -10     876     104                                                         908   -0.07    0.00  1.0000
   2  10  10     885      88                                                         917   -0.07    0.00  1.0000
  -2 -10 -11    5374     207                                                        5365   -0.01    0.00  1.0000
   2  11  -1      71      42                                                          83    0.09    0.00  1.0000
   2  11   0     281      67                                                         264    0.07    0.00  1.0000
   2  11   0     208      51                                                         193    0.07    0.00  1.0000
   2  11   1     197      68                                                         213    0.08    0.00  1.0000
   2  11   2     339      86                                                         310    0.11    0.00  1.0000
   2  11   3      50      54                                                          35    0.15    0.00  1.0000
   2  11   3      41      44                                                          28    0.15    0.00  1.0000
   2  11   4     484      88                                                         545    0.18    0.00  1.0000
   2  11   5    1271     127                                                        1164    0.21    0.00  1.0000
   2  11   6    2209     178                                                        2375    0.24    0.00  1.0000
  -2 -11  -7    6589     244                                                        6305    0.25    0.00  1.0000
   2  11   7    7433     297                                                        7132    0.25    0.00  1.0000
  -2 -11  -8    1460     125                                                        1572    0.20    0.00  1.0000
   2  11   8    1504     136                                                        1618    0.20    0.00  1.0000
   2  11   9      20      35                                                          13    0.12    0.00  1.0000
  -2 -11  -9       1      41                                                          -8    0.12    0.00  1.0000
  -2 -11 -10       0      34                                                         -20    0.03    0.00  1.0000
   2  11  10      74      28                                                          70    0.03    0.00  1.0000
   2  12   2     609      79                                                         603    0.02    0.00  1.0000
   2  12   2     401      70                                                         396    0.02    0.00  1.0000
   2  12   3     172      50                                                         169   -0.01    0.00  1.0000
   2  12   4      89      54                                                          95   -0.05    0.00  1.0000
   2  12   4      62      38                                                          67   -0.05    0.00  1.0000
   2  12   5       0      52                                                         -54   -0.06    0.00  1.0000
   2  12   5       6      33                                                           4   -0.06    0.00  1.0000
   2  12   6     126      45                                                         115   -0.07    0.00  1.0000
   2  12   7    2421     151                                                        2476   -0.08    0.00  1.0000
   2  12   8     772      80                                                         746   -0.07    0.00  1.0000
   2  12   9     288      44                                                         296   -0.03    0.00  1.0000
  -3  10   7    1304      91                                                        1233   -0.14    0.00  1.0000
  -3  10   6    3002     135                                                        3088   -0.11    0.00  1.0000
  -3  10   6    2981     171                                                        3067   -0.11    0.00  1.0000
  -3  10   5     427      81                                                         418   -0.03    0.00  1.0000
  -3  10   5     393      56                                                         384   -0.03    0.00  1.0000
  -3  10   4    3214     156                                                        3205    0.01    0.00  1.0000
  -3  10   4    3101     199                                                        3092    0.01    0.00  1.0000
  -3  10   3     197      45                                                         204   -0.03    0.00  1.0000
  -3  10   3     329      77                                                         337   -0.03    0.00  1.0000
  -3  10   2     361      56                                                         328   -0.12    0.00  1.0000
  -3  10   2     330      61                                                         299   -0.12    0.00  1.0000
  -3  10   2     341      68                                                         310   -0.12    0.00  1.0000
  -3  10   1     714      84                                                         789   -0.19    0.00  1.0000
  -3  10   1     134      52                                                         168   -0.19    0.00  1.0000
  -3  10   0     158      43                                                         122   -0.21    0.00  1.0000
  -3   9   9      77      23                                                          41    0.33    0.00  1.0000
   3  -9  -9     174      37                                                         117    0.33    0.00  1.0000
  -3   9   8      90      37                                                         139    0.32    0.00  1.0000
   3  -9  -8     150      48                                                         211    0.32    0.00  1.0000
  -3   9   7       0      32                                                           7    0.31    0.00  1.0000
  -3   9   7      14      37                                                          35    0.31    0.00  1.0000
  -3   9   6    2944     192                                                        2738    0.27    0.00  1.0000
  -3   9   6    3144     176                                                        2932    0.27    0.00  1.0000
  -3   9   5      23      40                                                          14    0.16    0.00  1.0000
  -3   9   5       1      65                                                         -15    0.16    0.00  1.0000
  -3   9   4    9699     340                                                        9654    0.03    0.00  1.0000
  -3   9   4    9556     397                                                        9511    0.03    0.00  1.0000
  -3   9   3    1103     126                                                        1106    0.01    0.00  1.0000
  -3   9   3    1080     154                                                        1083    0.01    0.00  1.0000
  -3   9   2     296      72                                                         274    0.09    0.00  1.0000
  -3   9   2     273      81                                                         252    0.09    0.00  1.0000
  -3   9   2     231      65                                                         212    0.09    0.00  1.0000
  -3   9   1       2      56                                                         -47    0.19    0.00  1.0000
  -3   9   1       9      59                                                          19    0.19    0.00  1.0000
  -3   9   1       2      53                                                         -60    0.19    0.00  1.0000
  -3   9   0     143      62                                                         189    0.25    0.00  1.0000
  -3   9   0     116      55                                                         158    0.25    0.00  1.0000
  -3   9  -1       4      52                                                         -26    0.27    0.00  1.0000
  -3   9  -2     287      70                                                         351    0.25    0.00  1.0000
  -3   9  -3      50      30                                                          35    0.16    0.00  1.0000
   3  -8 -10   15544     332                                                       15105   -0.25    0.00  1.0000
   3  -8  -9    2413     165                                                        2682   -0.37    0.00  1.0000
   3  -8  -8    2391     157                                                        2084   -0.45    0.00  1.0000
   3  -8  -7   14981     435                                                       15923   -0.53    0.00  1.0000
   3  -8  -6    5250     234                                                        4659   -0.58    0.00  1.0000
  -3   8   6    5357     269                                                        4760   -0.58    0.00  1.0000
  -3   8   5   17655     569                                                       18689   -0.53    0.00  1.0000
  -3   8   4    9664     381                                                       10174   -0.36    0.00  1.0000
  -3   8   4    9723     439                                                       10233   -0.36    0.00  1.0000
  -3   8   3    7088     321                                                        6877   -0.18    0.00  1.0000
  -3   8   3    7330     374                                                        7115   -0.18    0.00  1.0000
  -3   8   2    3428     231                                                        3526   -0.12    0.00  1.0000
  -3   8   2    2934     228                                                        3025   -0.12    0.00  1.0000
  -3   8   2    3543     266                                                        3643   -0.12    0.00  1.0000
  -3   8   1     836     115                                                         780   -0.14    0.00  1.0000
  -3   8   1     959     135                                                         899   -0.14    0.00  1.0000
  -3   8   1     831     127                                                         776   -0.14    0.00  1.0000
  -3   8   0     104      69                                                          85   -0.14    0.00  1.0000
  -3   8   0       1      57                                                         -66   -0.14    0.00  1.0000
  -3   8   0      13      57                                                           7   -0.14    0.00  1.0000
  -3   8  -1      63      47                                                          50   -0.13    0.00  1.0000
  -3   8  -1     214      78                                                         188   -0.13    0.00  1.0000
  -3   8  -2     130      66                                                         108   -0.14    0.00  1.0000
  -3   8  -3      70      48                                                          90   -0.16    0.00  1.0000
  -3   8  -4     180      53                                                         162   -0.10    0.00  1.0000
   3  -7 -11    6782     197                                                        6632   -0.13    0.00  1.0000
   3  -7 -10     874      96                                                         842   -0.08    0.00  1.0000
  -3   7   9      95      67                                                          90    0.04    0.00  1.0000
   3  -7  -9     137      64                                                         132    0.04    0.00  1.0000
  -3   7   8     421      95                                                         477    0.18    0.00  1.0000
   3  -7  -8     538     102                                                         601    0.18    0.00  1.0000
  -3   7   7    9687     392                                                        9154    0.38    0.00  1.0000
  -3   7   6    2875     200                                                        2407    0.63    0.00  1.0000
  -3   7   6    2861     194                                                        2394    0.63    0.00  1.0000
  -3   7   5    9261     344                                                        8153    0.83    0.00  1.0000
  -3   7   5    9763     388                                                        8625    0.83    0.00  1.0000
  -3   7   4    5085     289                                                        4282    0.82    0.00  1.0000
  -3   7   3    2728     258                                                        3222    0.63    0.00  1.0000
  -3   7   2    2742     193                                                        2421    0.44    0.00  1.0000
  -3   7   2    2867     206                                                        2538    0.44    0.00  1.0000
  -3   7   2    2775     219                                                        2451    0.44    0.00  1.0000
  -3   7   1    8410     398                                                        8861    0.34    0.00  1.0000
  -3   7   1    9050     421                                                        9517    0.34    0.00  1.0000
  -3   7   1    8768     379                                                        9228    0.34    0.00  1.0000
  -3   7   0    2188     200                                                        2030    0.24    0.00  1.0000
  -3   7   0    2283     198                                                        2122    0.24    0.00  1.0000
  -3   7   0    2449     193                                                        2282    0.24    0.00  1.0000
  -3   7  -1    5435     329                                                        5529    0.09    0.00  1.0000
  -3   7  -1    5671     308                                                        5768    0.09    0.00  1.0000
  -3   7  -1    5428     303                                                        5523    0.09    0.00  1.0000
  -3   7  -2    1106     156                                                        1115   -0.02    0.00  1.0000
  -3   7  -2    1030     124                                                        1038   -0.02    0.00  1.0000
  -3   7  -2    1195     150                                                        1204   -0.02    0.00  1.0000
  -3   7  -3     229      85                                                         228   -0.01    0.00  1.0000
  -3   7  -3     167      58                                                         166   -0.01    0.00  1.0000
  -3   7  -4      50      37                                                          54    0.04    0.00  1.0000
  -3   7  -4      39      60                                                          43    0.04    0.00  1.0000
  -3   7  -5     112      55                                                         111    0.00    0.00  1.0000
  -3   7  -6     364      52                                                         345   -0.07    0.00  1.0000
   3  -6 -11   15269     327                                                       15746    0.27    0.00  1.0000
   3  -6 -10     846      94                                                         705    0.35    0.00  1.0000
  -3   6  10     839     102                                                         699    0.35    0.00  1.0000
  -3   6   9     226      86                                                         316    0.38    0.00  1.0000
  -3   6   8    3974     256                                                        3674    0.34    0.00  1.0000
  -3   6   7    2565     209                                                        2430    0.19    0.00  1.0000
  -3   6   6    2205     171                                                        2281   -0.11    0.00  1.0000
  -3   6   6    2127     194                                                        2202   -0.11    0.00  1.0000
  -3   6   5  102401    1243                                                      104729   -0.50    0.00  1.0000
  -3   6   5  100453    1267                                                      102759   -0.50    0.00  1.0000
  -3   6   4   45256     743                                                       42876   -0.79    0.00  1.0000
  -3   6   4   44948     865                                                       42576   -0.79    0.00  1.0000
  -3   6   3   10586     818                                                       11842   -0.83    0.00  1.0000
  -3   6   3   11056     475                                                       12339   -0.83    0.00  1.0000
  -3   6   2    3639     429                                                        3055   -0.70    0.00  1.0000
  -3   6   2    3553     232                                                        2977   -0.70    0.00  1.0000
  -3   6   1    2210     162                                                        1821   -0.60    0.00  1.0000
  -3   6   1    2587     171                                                        2164   -0.60    0.00  1.0000
  -3   6   1    2335     176                                                        1934   -0.60    0.00  1.0000
  -3   6   1    2419     347                                                        2011   -0.60    0.00  1.0000
  -3   6   1    2377     186                                                        1973   -0.60    0.00  1.0000
  -3   6   0     535      83                                                         369   -0.55    0.00  1.0000
  -3   6   0     480      69                                                         324   -0.55    0.00  1.0000
  -3   6   0     291      65                                                         173   -0.55    0.00  1.0000
  -3   6   0     472      97                                                         317   -0.55    0.00  1.0000
  -3   6  -1    3672     227                                                        3326   -0.41    0.00  1.0000
  -3   6  -1    3452     205                                                        3117   -0.41    0.00  1.0000
  -3   6  -1    3233     236                                                        2909   -0.41    0.00  1.0000
  -3   6  -1    3514     234                                                        3176   -0.41    0.00  1.0000
  -3   6  -1    3550     213                                                        3210   -0.41    0.00  1.0000
  -3   6  -2    2823     244                                                        2971   -0.19    0.00  1.0000
  -3   6  -2    2876     222                                                        3025   -0.19    0.00  1.0000
  -3   6  -2    3077     223                                                        3231   -0.19    0.00  1.0000
  -3   6  -2    3058     236                                                        3211   -0.19    0.00  1.0000
  -3   6  -3    1560     170                                                        1533   -0.05    0.00  1.0000
  -3   6  -3    1619     184                                                        1591   -0.05    0.00  1.0000
  -3   6  -3    1705     174                                                        1677   -0.05    0.00  1.0000
  -3   6  -4     322     100                                                         332   -0.04    0.00  1.0000
  -3   6  -4     146      71                                                         153   -0.04    0.00  1.0000
  -3   6  -5      34      56                                                          30   -0.05    0.00  1.0000
  -3   6  -5      24      47                                                          20   -0.05    0.00  1.0000
  -3   6  -6     313      74                                                         318    0.02    0.00  1.0000
  -3   6  -6     247      67                                                         252    0.02    0.00  1.0000
  -3   6  -7       0      27                                                          -7    0.09    0.00  1.0000
   3  -5 -11    4720     180                                                        4583   -0.14    0.00  1.0000
  -3   5  10    1622     162                                                        1793   -0.29    0.00  1.0000
   3  -5 -10    1439     140                                                        1600   -0.29    0.00  1.0000
  -3   5   9    1440     146                                                        1200   -0.46    0.00  1.0000
  -3   5   8   21212     633                                                       22506   -0.61    0.00  1.0000
  -3   5   7     627      96                                                         409   -0.67    0.00  1.0000
  -3   5   6   41937    1617                                                       43579   -0.55    0.00  1.0000
  -3   5   6   42924     768                                                       44585   -0.55    0.00  1.0000
  -3   5   6   43444     852                                                       45115   -0.55    0.00  1.0000
  -3   5   5   24849     598                                                       25346   -0.22    0.00  1.0000
  -3   5   5   25844    1224                                                       26351   -0.22    0.00  1.0000
  -3   5   5   24428     543                                                       24921   -0.22    0.00  1.0000
  -3   5   4   24320    1160                                                       24764    0.20    0.00  1.0000
  -3   5   3   15400     876                                                       14592    0.46    0.00  1.0000
  -3   5   2   58981    1773                                                       60701    0.49    0.00  1.0000
  -3   5   1    2000     311                                                        1723    0.45    0.00  1.0000
  -3   5   0    8564     342                                                        9217    0.48    0.00  1.0000
  -3   5   0    8700     735                                                        9358    0.48    0.00  1.0000
  -3   5   0    9009     373                                                        9678    0.48    0.00  1.0000
  -3   5  -1     467     101                                                         649    0.54    0.00  1.0000
  -3   5  -1     528      98                                                         719    0.54    0.00  1.0000
  -3   5  -1     317      98                                                         468    0.54    0.00  1.0000
  -3   5  -1     443     102                                                         619    0.54    0.00  1.0000
  -3   5  -1     423      93                                                         597    0.54    0.00  1.0000
  -3   5  -2     926     108                                                         733    0.47    0.00  1.0000
  -3   5  -2     872      95                                                         685    0.47    0.00  1.0000
  -3   5  -2     848     102                                                         663    0.47    0.00  1.0000
  -3   5  -2    1043     134                                                         837    0.47    0.00  1.0000
  -3   5  -2    1010     114                                                         808    0.47    0.00  1.0000
  -3   5  -3     489     104                                                         593    0.31    0.00  1.0000
  -3   5  -3     569      99                                                         680    0.31    0.00  1.0000
  -3   5  -3     577     129                                                         689    0.31    0.00  1.0000
  -3   5  -3     525     114                                                         632    0.31    0.00  1.0000
  -3   5  -3     520     246                                                         627    0.31    0.00  1.0000
  -3   5  -4    1558     163                                                        1444    0.20    0.00  1.0000
  -3   5  -4    1398     168                                                        1290    0.20    0.00  1.0000
  -3   5  -4    1423     167                                                        1315    0.20    0.00  1.0000
  -3   5  -5    2671     238                                                        2801    0.17    0.00  1.0000
  -3   5  -5    2628     230                                                        2757    0.17    0.00  1.0000
  -3   5  -6      77      63                                                          63    0.11    0.00  1.0000
  -3   5  -6       1      55                                                         -16    0.11    0.00  1.0000
  -3   5  -7      28      42                                                          27    0.00    0.00  1.0000
  -3   5  -7     158      59                                                         157    0.00    0.00  1.0000
  -3   5  -7      90      50                                                          89    0.00    0.00  1.0000
  -3   5  -8      13      28                                                          17   -0.07    0.00  1.0000
  -3   5  -8       1      25                                                           2   -0.07    0.00  1.0000
  -3   4  11       1      37                                                         -22   -0.11    0.00  1.0000
   3  -4 -11       1      25                                                          -1   -0.11    0.00  1.0000
  -3   4  10      83      46                                                          88   -0.04    0.00  1.0000
   3  -4 -10       0      47                                                         -63   -0.04    0.00  1.0000
  -3   4   9      49      73                                                          35    0.15    0.00  1.0000
  -3   4   8   14131     487                                                       13436    0.41    0.00  1.0000
  -3   4   7     220      88                                                         384    0.66    0.00  1.0000
  -3   4   7     399     103                                                         611    0.66    0.00  1.0000
  -3   4   7     328     199                                                         523    0.66    0.00  1.0000
  -3   4   6  113582    1289                                                      109824    0.78    0.00  1.0000
  -3   4   6  112153    1203                                                      108419    0.78    0.00  1.0000
  -3   4   6  110972    2592                                                      107258    0.78    0.00  1.0000
  -3   4   5    9233     366                                                       10189    0.68    0.00  1.0000
  -3   4   5    9316     340                                                       10276    0.68    0.00  1.0000
  -3   4   5    9715     776                                                       10695    0.68    0.00  1.0000
  -3   4   4       0      84                                                           5    0.37    0.00  1.0000
  -3   4   3    1267     251                                                        1301    0.07    0.00  1.0000
  -3   4   2   20469     965                                                       20375   -0.05    0.00  1.0000
  -3   4   1    6983     569                                                        6987    0.00    0.00  1.0000
  -3   4   0   21632    1022                                                       21656    0.01    0.00  1.0000
  -3   4  -1   18345     983                                                       18574   -0.12    0.00  1.0000
  -3   4  -2    1109     276                                                         989   -0.26    0.00  1.0000
  -3   4  -3    1277     129                                                        1136   -0.28    0.00  1.0000
  -3   4  -3    1331     334                                                        1186   -0.28    0.00  1.0000
  -3   4  -3    1374     150                                                        1228   -0.28    0.00  1.0000
  -3   4  -3    1208     129                                                        1070   -0.28    0.00  1.0000
  -3   4  -3    1532     153                                                        1377   -0.28    0.00  1.0000
  -3   4  -4    9811     938                                                       10142   -0.23    0.00  1.0000
  -3   4  -4    9897     398                                                       10229   -0.23    0.00  1.0000
  -3   4  -4   10323     440                                                       10662   -0.23    0.00  1.0000
  -3   4  -4    9732     434                                                       10061   -0.23    0.00  1.0000
  -3   4  -4    9565     384                                                        9891   -0.23    0.00  1.0000
  -3   4  -5   11934     479                                                       11625   -0.20    0.00  1.0000
  -3   4  -5   11811     415                                                       11504   -0.20    0.00  1.0000
  -3   4  -5   12001     488                                                       11692   -0.20    0.00  1.0000
  -3   4  -6     615     128                                                         678   -0.17    0.00  1.0000
  -3   4  -6     426     111                                                         479   -0.17    0.00  1.0000
  -3   4  -7     496     102                                                         467   -0.09    0.00  1.0000
  -3   4  -7     632     112                                                         600   -0.09    0.00  1.0000
  -3   4  -8     271      58                                                         267    0.02    0.00  1.0000
  -3   4  -8     198      61                                                         194    0.02    0.00  1.0000
  -3   3  11    2669     134                                                        2511    0.22    0.00  1.0000
  -3   3  10    1375     147                                                        1533    0.29    0.00  1.0000
   3  -3 -10    1182     117                                                        1329    0.29    0.00  1.0000
  -3   3   9    5137     284                                                        4904    0.23    0.00  1.0000
  -3   3   8       2      55                                                           1    0.03    0.00  1.0000
  -3   3   7   11300     436                                                       11650   -0.23    0.00  1.0000
  -3   3   7   10898     399                                                       11242   -0.23    0.00  1.0000
  -3   3   6   95259    1167                                                       97250   -0.45    0.00  1.0000
  -3   3   6   92541    1111                                                       94504   -0.45    0.00  1.0000
  -3   3   4   27426    1168                                                       28457   -0.43    0.00  1.0000
  -3   3   3   45645    1392                                                       44820   -0.27    0.00  1.0000
  -3   3   2   24420     972                                                       23945   -0.21    0.00  1.0000
  -3   3   1     518     149                                                         626   -0.31    0.00  1.0000
  -3   3   0   65871    1603                                                       64271   -0.44    0.00  1.0000
  -3   3  -1   50335    1501                                                       51643   -0.40    0.00  1.0000
  -3   3  -2    6698     622                                                        6444   -0.22    0.00  1.0000
  -3   3  -3   19362    1144                                                       19449   -0.04    0.00  1.0000
  -3   3  -4   12383     451                                                       12414    0.02    0.00  1.0000
  -3   3  -4   11418     390                                                       11449    0.02    0.00  1.0000
  -3   3  -4   11742     412                                                       11773    0.02    0.00  1.0000
  -3   3  -4   11235     439                                                       11266    0.02    0.00  1.0000
  -3   3  -5     185     163                                                         180    0.03    0.00  1.0000
  -3   3  -5      85      68                                                          82    0.03    0.00  1.0000
  -3   3  -5       0      46                                                          -1    0.03    0.00  1.0000
  -3   3  -5      86      63                                                          83    0.03    0.00  1.0000
  -3   3  -6     823     119                                                         843    0.05    0.00  1.0000
  -3   3  -6     640     127                                                         658    0.05    0.00  1.0000
  -3   3  -6     718     126                                                         737    0.05    0.00  1.0000
  -3   3  -7     772     108                                                         798    0.07    0.00  1.0000
  -3   3  -7     815     137                                                         842    0.07    0.00  1.0000
  -3   3  -7     792     129                                                         819    0.07    0.00  1.0000
  -3   3  -8     890     121                                                         879    0.02    0.00  1.0000
  -3   3  -8     792     111                                                         782    0.02    0.00  1.0000
  -3   3  -9     541      77                                                         528   -0.04    0.00  1.0000
  -3   3  -9     382      62                                                         371   -0.04    0.00  1.0000
   3  -2 -11     152      35                                                         134   -0.11    0.00  1.0000
  -3   2  10     158      64                                                         203   -0.24    0.00  1.0000
   3  -2 -10     153      56                                                         198   -0.24    0.00  1.0000
  -3   2   9    5917     309                                                        6263   -0.31    0.00  1.0000
   3  -2  -9    5491     260                                                        5824   -0.31    0.00  1.0000
   3  -2  -8    5885     258                                                        5574   -0.29    0.00  1.0000
  -3   2   8    6317     317                                                        5995   -0.29    0.00  1.0000
  -3   2   7   57780     944                                                       58462   -0.20    0.00  1.0000
  -3   2   7   55248    2123                                                       55915   -0.20    0.00  1.0000
   3  -2  -7   57182     789                                                       57861   -0.20    0.00  1.0000
  -3   2   7   59643     901                                                       60336   -0.20    0.00  1.0000
  -3   2   6    4614     246                                                        4729   -0.12    0.00  1.0000
  -3   2   6    3746     539                                                        3850   -0.12    0.00  1.0000
  -3   2   5   22810    1174                                                       22582   -0.11    0.00  1.0000
  -3   2   4    9277     634                                                        9494   -0.16    0.00  1.0000
  -3   2   3   98911    1665                                                       98074   -0.19    0.00  1.0000
  -3   2   3  100587    1994                                                       99743   -0.19    0.00  1.0000
  -3   2   2     147      89                                                         162   -0.09    0.00  1.0000
  -3   2   2     217      85                                                         235   -0.09    0.00  1.0000
  -3   2   1   72953    1555                                                       73611    0.17    0.00  1.0000
  -3   2   0   15078     689                                                       14263    0.47    0.00  1.0000
  -3   2  -1    5442     476                                                        4805    0.62    0.00  1.0000
  -3   2  -1    6406     452                                                        5713    0.62    0.00  1.0000
  -3   2  -2    3004     423                                                        3437    0.53    0.00  1.0000
  -3   2  -2    3021     370                                                        3455    0.53    0.00  1.0000
  -3   2  -3   47731    1629                                                       46759    0.31    0.00  1.0000
  -3   2  -4   32589    1486                                                       32971    0.15    0.00  1.0000
  -3   2  -5       1     114                                                        -102    0.11    0.00  1.0000
  -3   2  -5      19      47                                                          12    0.11    0.00  1.0000
  -3   2  -5       3      38                                                           1    0.11    0.00  1.0000
  -3   2  -5      31      49                                                          23    0.11    0.00  1.0000
  -3   2  -6    2787     226                                                        2870    0.11    0.00  1.0000
  -3   2  -6    2817     232                                                        2901    0.11    0.00  1.0000
  -3   2  -6    2517     478                                                        2596    0.11    0.00  1.0000
  -3   2  -6    2969     245                                                        3055    0.11    0.00  1.0000
  -3   2  -7       0      61                                                         -42    0.06    0.00  1.0000
  -3   2  -7       0      46                                                          -3    0.06    0.00  1.0000
  -3   2  -7      13      54                                                          16    0.06    0.00  1.0000
  -3   2  -8      14      50                                                          15   -0.02    0.00  1.0000
  -3   2  -8      63      51                                                          65   -0.02    0.00  1.0000
  -3   2  -8      89      56                                                          93   -0.02    0.00  1.0000
  -3   2  -9     526      77                                                         510   -0.05    0.00  1.0000
  -3   2  -9     440      82                                                         425   -0.05    0.00  1.0000
  -3   2  -9     500      81                                                         484   -0.05    0.00  1.0000
  -3   2 -10    2830     132                                                        2840   -0.01    0.00  1.0000
   3  -1 -11     117      35                                                         127   -0.06    0.00  1.0000
   3  -1 -11      17      28                                                          21   -0.06    0.00  1.0000
   3  -1 -10     656      90                                                         648   -0.02    0.00  1.0000
   3  -1  -9    4367     238                                                        4341    0.03    0.00  1.0000
  -3   1   9    4468     246                                                        4442    0.03    0.00  1.0000
   3  -1  -8    1780     163                                                        1819    0.07    0.00  1.0000
  -3   1   8    1834     173                                                        1874    0.07    0.00  1.0000
  -3   1   7   66460    2385                                                       66019    0.12    0.00  1.0000
   3  -1  -7   66995     907                                                       66552    0.12    0.00  1.0000
  -3   1   7   67780     995                                                       67334    0.12    0.00  1.0000
  -3   1   6   26071    1451                                                       26667    0.26    0.00  1.0000
  -3   1   6   28351     583                                                       28973    0.26    0.00  1.0000
  -3   1   5    3993     481                                                        3536    0.52    0.00  1.0000
  -3   1   4    3167     450                                                        3901    0.86    0.00  1.0000
  -3   1   3   58891    1513                                                       62865    1.12    0.00  1.0000
  -3   1   2      28      87                                                         178    1.12    0.00  1.0000
  -3   1   1  108518    1559                                                      112335    0.80    0.00  1.0000
  -3   1   1  107732    1417                                                      111536    0.80    0.00  1.0000
  -3   1   0  120971    1825                                                      119630    0.27    0.00  1.0000
  -3   1   0  125075    1523                                                      123712    0.27    0.00  1.0000
  -3   1  -1    3760     318                                                        3557   -0.23    0.00  1.0000
  -3   1  -1    3450     243                                                        3256   -0.23    0.00  1.0000
  -3   1  -2   13143     664                                                       13971   -0.50    0.00  1.0000
  -3   1  -2   13016     756                                                       13839   -0.50    0.00  1.0000
  -3   1  -3    8628     668                                                        9257   -0.46    0.00  1.0000
  -3   1  -4   30471    1300                                                       29762   -0.28    0.00  1.0000
  -3   1  -5       1     130                                                        -107   -0.16    0.00  1.0000
  -3   1  -6   14793     493                                                       14498   -0.17    0.00  1.0000
  -3   1  -6   14486    1063                                                       14193   -0.17    0.00  1.0000
  -3   1  -6   14586     484                                                       14293   -0.17    0.00  1.0000
  -3   1  -6   13593     469                                                       13310   -0.17    0.00  1.0000
  -3   1  -7    1701     398                                                        1811   -0.18    0.00  1.0000
  -3   1  -7    2100     202                                                        2222   -0.18    0.00  1.0000
  -3   1  -7    1775     189                                                        1887   -0.18    0.00  1.0000
  -3   1  -7    1763     180                                                        1874   -0.18    0.00  1.0000
  -3   1  -8    1193     153                                                        1155   -0.08    0.00  1.0000
  -3   1  -8    1319     152                                                        1279   -0.08    0.00  1.0000
  -3   1  -8    1202     142                                                        1164   -0.08    0.00  1.0000
  -3   1  -9     812     114                                                         772    0.10    0.00  1.0000
  -3   1  -9     638      98                                                         602    0.10    0.00  1.0000
  -3   1  -9     821     101                                                         780    0.10    0.00  1.0000
  -3   1 -10    2883     147                                                        2729    0.20    0.00  1.0000
  -3   1 -10    2760     160                                                        2610    0.20    0.00  1.0000
   3   0 -11     291      50                                                         326    0.14    0.00  1.0000
   3   0 -10    1951     140                                                        1830    0.19    0.00  1.0000
   3   0  -9    2842     204                                                        3045    0.26    0.00  1.0000
   3   0  -8    5446     275                                                        5102    0.33    0.00  1.0000
  -3   0   8    5302     264                                                        4962    0.33    0.00  1.0000
  -3   0   7   24755    1477                                                       23973    0.35    0.00  1.0000
   3   0  -7   24829     575                                                       24045    0.35    0.00  1.0000
  -3   0   6   33761    1699                                                       34366    0.23    0.00  1.0000
   3   0  -6   35623     652                                                       36244    0.23    0.00  1.0000
  -3   0   6   33598     609                                                       34201    0.23    0.00  1.0000
  -3   0   5   19743    1183                                                       19984   -0.12    0.00  1.0000
  -3   0   4   35591    1370                                                       33702   -0.71    0.00  1.0000
  -3   0   3    1907     228                                                        1134   -1.39    0.00  1.0000
  -3   0   2   16089     661                                                       12811   -1.90    0.00  1.0000
  -3   0   1   32431     842                                                       27463   -2.00    0.00  1.0000
  -3   0   0   92695    1539                                                      100009   -1.64    0.00  1.0000
  -3   0   0   91552    1481                                                       98821   -1.64    0.00  1.0000
  -3   0  -1    5005     310                                                        4062   -0.98    0.00  1.0000
  -3   0  -1    5255     308                                                        4288   -0.98    0.00  1.0000
  -3   0  -2  128412    2079                                                      129804   -0.27    0.00  1.0000
  -3   0  -2  127666    1754                                                      129054   -0.27    0.00  1.0000
  -3   0  -2  127558    1722                                                      128945   -0.27    0.00  1.0000
  -3   0  -3   93376    1907                                                       94345    0.22    0.00  1.0000
  -3   0  -3   93758    1628                                                       94729    0.22    0.00  1.0000
   3   0   3   96841    1416                                                       97827    0.22    0.00  1.0000
  -3   0  -4    1941     297                                                        1711    0.38    0.00  1.0000
   3   0   4    1324     175                                                        1135    0.38    0.00  1.0000
  -3   0  -5   18488    1054                                                       19093    0.31    0.00  1.0000
   3   0   5   16552     769                                                       17125    0.31    0.00  1.0000
  -3   0  -6   14101    1014                                                       14527    0.25    0.00  1.0000
  -3   0  -6   14972     474                                                       15411    0.25    0.00  1.0000
  -3   0  -6   14935     486                                                       15374    0.25    0.00  1.0000
  -3   0  -7    6610     315                                                        6282    0.28    0.00  1.0000
  -3   0  -7    6731     727                                                        6400    0.28    0.00  1.0000
  -3   0  -7    6674     340                                                        6345    0.28    0.00  1.0000
  -3   0  -7    6661     303                                                        6332    0.28    0.00  1.0000
  -3   0  -7    6956     313                                                        6619    0.28    0.00  1.0000
  -3   0  -8   14900     500                                                       15389    0.28    0.00  1.0000
  -3   0  -8   15584     551                                                       16084    0.28    0.00  1.0000
  -3   0  -8   15081     479                                                       15573    0.28    0.00  1.0000
  -3   0  -8   15347     480                                                       15843    0.28    0.00  1.0000
  -3   0  -9   18858     531                                                       18678    0.09    0.00  1.0000
  -3   0  -9   21024     611                                                       20835    0.09    0.00  1.0000
  -3   0  -9   20276     502                                                       20090    0.09    0.00  1.0000
  -3   0  -9   20338     503                                                       20152    0.09    0.00  1.0000
  -3   0 -10     302      77                                                         348   -0.18    0.00  1.0000
  -3   0 -10     260      65                                                         304   -0.18    0.00  1.0000
  -3   0 -11     108      53                                                         162   -0.32    0.00  1.0000
   3   1 -10     730      89                                                         774   -0.11    0.00  1.0000
   3   1  -9    2731     186                                                        2582   -0.20    0.00  1.0000
   3   1  -8   20759     567                                                       21463   -0.34    0.00  1.0000
   3   1  -7    2776     197                                                        2421   -0.49    0.00  1.0000
   3   1  -6      40      53                                                         108   -0.57    0.00  1.0000
  -3  -1   6       3     110                                                          35   -0.57    0.00  1.0000
  -3  -1   5    5110     657                                                        5635   -0.50    0.00  1.0000
  -3  -1   4   43093    1636                                                       42575   -0.17    0.00  1.0000
  -3  -1   3    4428     453                                                        4027    0.43    0.00  1.0000
  -3  -1   2   60540    1621                                                       64768    1.18    0.00  1.0000
  -3  -1   1   32087     957                                                       27627    1.80    0.00  1.0000
  -3  -1   0       0      97                                                         209    2.08    0.00  1.0000
  -3  -1   0       0      77                                                         224    2.08    0.00  1.0000
  -3  -1  -1    3134     176                                                        1778    1.92    0.00  1.0000
  -3  -1  -1    2926     212                                                        1622    1.92    0.00  1.0000
  -3  -1  -2   61615    1225                                                       56752    1.39    0.00  1.0000
  -3  -1  -2   61417    1008                                                       56562    1.39    0.00  1.0000
  -3  -1  -2   60804    1214                                                       55974    1.39    0.00  1.0000
  -3  -1  -3   58885    1363                                                       61229    0.67    0.00  1.0000
  -3  -1  -3   58934    1326                                                       61278    0.67    0.00  1.0000
  -3  -1  -4    8860     583                                                        8922    0.05    0.00  1.0000
   3   1   4    9552     525                                                        9617    0.05    0.00  1.0000
  -3  -1  -5   36605    1327                                                       35940   -0.24    0.00  1.0000
   3   1   5   35368    1110                                                       34714   -0.24    0.00  1.0000
  -3  -1  -6       4      88                                                          -7   -0.27    0.00  1.0000
   3   1   6       4      90                                                         -72   -0.27    0.00  1.0000
  -3  -1  -7    1319     305                                                        1177   -0.28    0.00  1.0000
  -3  -1  -7     983     121                                                         861   -0.28    0.00  1.0000
   3   1   7    1343     260                                                        1200   -0.28    0.00  1.0000
  -3  -1  -7     957     125                                                         837   -0.28    0.00  1.0000
  -3  -1  -7     892     106                                                         776   -0.28    0.00  1.0000
  -3  -1  -8    2060     159                                                        1830   -0.36    0.00  1.0000
  -3  -1  -8    2066     184                                                        1836   -0.36    0.00  1.0000
  -3  -1  -8    2202     201                                                        1964   -0.36    0.00  1.0000
  -3  -1  -9   29283     759                                                       30168   -0.36    0.00  1.0000
  -3  -1  -9   27830     701                                                       28693   -0.36    0.00  1.0000
  -3  -1 -10       1      52                                                         -24   -0.15    0.00  1.0000
  -3  -1 -10      80      54                                                          62   -0.15    0.00  1.0000
  -3  -1 -11    1507     125                                                        1444    0.11    0.00  1.0000
  -3  -1 -11    1634     136                                                        1568    0.11    0.00  1.0000
   3   2 -10       4      21                                                           6   -0.06    0.00  1.0000
   3   2 -10      53      33                                                          60   -0.06    0.00  1.0000
   3   2  -9     204      65                                                         185   -0.09    0.00  1.0000
   3   2  -8    9377     371                                                        9474   -0.07    0.00  1.0000
   3   2  -7    2629     208                                                        2648    0.03    0.00  1.0000
   3   2  -6     309      96                                                         266    0.17    0.00  1.0000
   3   2  -6     164      65                                                         133    0.17    0.00  1.0000
  -3  -2   6       2     100                                                         -17    0.17    0.00  1.0000
  -3  -2   5    1153     291                                                         992    0.34    0.00  1.0000
   3   2  -5     746     110                                                         617    0.34    0.00  1.0000
   3   2  -5     817      98                                                         682    0.34    0.00  1.0000
  -3  -2   4    5296     648                                                        5804    0.48    0.00  1.0000
  -3  -2   3     532     230                                                         696    0.46    0.00  1.0000
  -3  -2   2   52759    1598                                                       53487    0.22    0.00  1.0000
  -3  -2   1  123108    2231                                                      124140   -0.20    0.00  1.0000
  -3  -2   0   31655    1017                                                       29925   -0.69    0.00  1.0000
  -3  -2   0   33625    1062                                                       31841   -0.69    0.00  1.0000
  -3  -2  -1   57036    1367                                                       60888   -1.11    0.00  1.0000
  -3  -2  -1   56147     845                                                       59969   -1.11    0.00  1.0000
  -3  -2  -2    4271     185                                                        3124   -1.32    0.00  1.0000
  -3  -2  -2    3979     297                                                        2876   -1.32    0.00  1.0000
  -3  -2  -3   43812    1115                                                       40344   -1.18    0.00  1.0000
  -3  -2  -3   42590     957                                                       39172   -1.18    0.00  1.0000
  -3  -2  -4       4      61                                                          52   -0.72    0.00  1.0000
  -3  -2  -4      14      54                                                           2   -0.72    0.00  1.0000
  -3  -2  -5  121506    2158                                                      120319   -0.24    0.00  1.0000
   3   2   5  122177    2130                                                      120987   -0.24    0.00  1.0000
  -3  -2  -6   17357     952                                                       17348    0.00    0.00  1.0000
   3   2   6   14276     809                                                       14268    0.00    0.00  1.0000
  -3  -2  -7   28450    1377                                                       28592    0.06    0.00  1.0000
  -3  -2  -7   29091     666                                                       29235    0.06    0.00  1.0000
   3   2   7   26192    1205                                                       26329    0.06    0.00  1.0000
  -3  -2  -7   28253     690                                                       28395    0.06    0.00  1.0000
  -3  -2  -8   21551     608                                                       21233    0.15    0.00  1.0000
  -3  -2  -8   21980     646                                                       21659    0.15    0.00  1.0000
   3   2   8   20495    1124                                                       20186    0.15    0.00  1.0000
  -3  -2  -9   14228     529                                                       13700    0.31    0.00  1.0000
  -3  -2  -9   14225     502                                                       13697    0.31    0.00  1.0000
  -3  -2 -10     111      78                                                         171    0.35    0.00  1.0000
  -3  -2 -10     101      66                                                         158    0.35    0.00  1.0000
  -3  -2 -11    5234     259                                                        5017    0.21    0.00  1.0000
  -3  -2 -11    5568     279                                                        5344    0.21    0.00  1.0000
  -3  -2 -12     403      63                                                         417    0.05    0.00  1.0000
   3   3  -9    1282     110                                                        1173    0.22    0.00  1.0000
   3   3  -8    1060     114                                                         888    0.38    0.00  1.0000
   3   3  -7    2803     226                                                        3171    0.47    0.00  1.0000
   3   3  -6    8593     416                                                        8002    0.45    0.00  1.0000
   3   3  -6    9149     355                                                        8539    0.45    0.00  1.0000
   3   3  -5   11392     475                                                       11913    0.34    0.00  1.0000
   3   3  -5   11076     392                                                       11590    0.34    0.00  1.0000
  -3  -3   4    3554     528                                                        3463    0.11    0.00  1.0000
  -3  -3   3    9554     793                                                        9261   -0.21    0.00  1.0000
  -3  -3   2    3035     402                                                        2643   -0.51    0.00  1.0000
  -3  -3   1   15958     909                                                       17268   -0.71    0.00  1.0000
  -3  -3   0    6349     478                                                        5515   -0.75    0.00  1.0000
  -3  -3  -1   60856    1491                                                       62968   -0.59    0.00  1.0000
  -3  -3  -2   72084    1565                                                       71361   -0.19    0.00  1.0000
  -3  -3  -3    1089     211                                                        1229    0.29    0.00  1.0000
  -3  -3  -4   57061    1463                                                       58873    0.52    0.00  1.0000
  -3  -3  -5   13794     792                                                       14532    0.43    0.00  1.0000
   3   3   5   15570     807                                                       16354    0.43    0.00  1.0000
   3   3   6   10861     715                                                       10508    0.24    0.00  1.0000
  -3  -3  -7   84613    1131                                                       85279    0.16    0.00  1.0000
   3   3   7   80287    2130                                                       80935    0.16    0.00  1.0000
  -3  -3  -7   82360    1172                                                       83017    0.16    0.00  1.0000
   3   3   8  143565    3020                                                      142903    0.12    0.00  1.0000
  -3  -3  -8  144325    1582                                                      143661    0.12    0.00  1.0000
  -3  -3  -8  143232    1651                                                      142570    0.12    0.00  1.0000
  -3  -3  -9    1124     152                                                        1137   -0.03    0.00  1.0000
  -3  -3  -9     909     145                                                         920   -0.03    0.00  1.0000
  -3  -3 -10     958     146                                                        1056   -0.22    0.00  1.0000
  -3  -3 -10    1151     160                                                        1259   -0.22    0.00  1.0000
  -3  -3 -11    1946     182                                                        2116   -0.26    0.00  1.0000
  -3  -3 -11    2311     202                                                        2496   -0.26    0.00  1.0000
  -3  -3 -12       1      44                                                         -62   -0.17    0.00  1.0000
   3   4  -9    1138      85                                                        1181   -0.09    0.00  1.0000
   3   4  -9    1252      95                                                        1297   -0.09    0.00  1.0000
   3   4  -8     166      51                                                         111   -0.33    0.00  1.0000
   3   4  -7       1      48                                                          26   -0.55    0.00  1.0000
   3   4  -6    1559     219                                                        1957   -0.66    0.00  1.0000
   3   4  -6    1446     169                                                        1831   -0.66    0.00  1.0000
   3   4  -5    2756     226                                                        2265   -0.68    0.00  1.0000
   3   4  -5    2911     189                                                        2406   -0.68    0.00  1.0000
   3   4  -4     780     147                                                        1046   -0.62    0.00  1.0000
  -3  -4   4     603     260                                                         840   -0.62    0.00  1.0000
   3   4  -4     806     122                                                        1077   -0.62    0.00  1.0000
  -3  -4   3   12119     934                                                       11444   -0.43    0.00  1.0000
  -3  -4   2    8957     777                                                        9165   -0.15    0.00  1.0000
  -3  -4   1    7867     681                                                        8099    0.18    0.00  1.0000
  -3  -4   0    3452     377                                                        2991    0.57    0.00  1.0000
  -3  -4  -1    5058     416                                                        4130    0.95    0.00  1.0000
  -3  -4  -2   54847    1504                                                       58746    1.14    0.00  1.0000
  -3  -4  -3    5666     420                                                        4689    0.95    0.00  1.0000
   3   4   3    5688     164                                                        4710    0.95    0.00  1.0000
  -3  -4  -4  149278    2430                                                      152122    0.51    0.00  1.0000
  -3  -4  -5   15500     811                                                       15203    0.17    0.00  1.0000
   3   4   6   19431     993                                                       19527    0.05    0.00  1.0000
  -3  -4  -7    2775     208                                                        2770    0.01    0.00  1.0000
   3   4   7    2871     427                                                        2866    0.01    0.00  1.0000
  -3  -4  -7    2676     213                                                        2671    0.01    0.00  1.0000
   3   4   8   48417    1773                                                       48595   -0.06    0.00  1.0000
  -3  -4  -8   49503     937                                                       49683   -0.06    0.00  1.0000
  -3  -4  -8   48577     802                                                       48756   -0.06    0.00  1.0000
  -3  -4  -8   50474     974                                                       50656   -0.06    0.00  1.0000
  -3  -4  -9    2248     210                                                        2276   -0.04    0.00  1.0000
  -3  -4  -9    2599     238                                                        2629   -0.04    0.00  1.0000
  -3  -4 -10   11958     467                                                       11805    0.10    0.00  1.0000
  -3  -4 -10   12509     488                                                       12353    0.10    0.00  1.0000
  -3  -4 -11     228      81                                                         275    0.20    0.00  1.0000
  -3  -4 -11     224      79                                                         270    0.20    0.00  1.0000
  -3  -4 -12     128      42                                                         104    0.16    0.00  1.0000
   3   5  -8      60      33                                                          74    0.11    0.00  1.0000
   3   5  -7       6      46                                                         -41    0.34    0.00  1.0000
   3   5  -6       6      66                                                           2    0.52    0.00  1.0000
   3   5  -6      14      54                                                         -19    0.52    0.00  1.0000
   3   5  -5      21      72                                                         -47    0.63    0.00  1.0000
   3   5  -5     171      48                                                          73    0.63    0.00  1.0000
   3   5  -4     586     142                                                         855    0.70    0.00  1.0000
   3   5  -4     592     112                                                         861    0.70    0.00  1.0000
   3   5  -3    8344     409                                                        9288    0.70    0.00  1.0000
   3   5  -3    7998     320                                                        8922    0.70    0.00  1.0000
  -3  -5   3    7721     845                                                        8629    0.70    0.00  1.0000
  -3  -5   2   22398    1253                                                       21065    0.63    0.00  1.0000
  -3  -5   1   33715    1432                                                       35138    0.53    0.00  1.0000
  -3  -5   0   22675    1052                                                       21850    0.39    0.00  1.0000
  -3  -5  -1   10372     695                                                       10451    0.05    0.00  1.0000
  -3  -5  -2    9094     601                                                        8479   -0.46    0.00  1.0000
   3   5   2    9124     271                                                        8507   -0.46    0.00  1.0000
  -3  -5  -3     173     136                                                         378   -0.88    0.00  1.0000
   3   5   3     104      53                                                         273   -0.88    0.00  1.0000
   3   5   4   60198     680                                                       56871   -0.96    0.00  1.0000
  -3  -5  -4   58740    1497                                                       55453   -0.96    0.00  1.0000
  -3  -5  -5   28497    1169                                                       30399   -0.77    0.00  1.0000
   3   5   6   78812    2024                                                       76535   -0.57    0.00  1.0000
  -3  -5  -7   86243    1170                                                       88077   -0.43    0.00  1.0000
   3   5   7   84038    2302                                                       85848   -0.43    0.00  1.0000
  -3  -5  -7   84973    1192                                                       86794   -0.43    0.00  1.0000
  -3  -5  -7   80653    1179                                                       82427   -0.43    0.00  1.0000
  -3  -5  -8   36816     822                                                       37637   -0.30    0.00  1.0000
  -3  -5  -8   38612     784                                                       39452   -0.30    0.00  1.0000
   3   5   8   39583    1643                                                       40433   -0.30    0.00  1.0000
  -3  -5  -8   38811     857                                                       39653   -0.30    0.00  1.0000
  -3  -5  -9    2321     209                                                        2193   -0.19    0.00  1.0000
  -3  -5  -9    2458     188                                                        2327   -0.19    0.00  1.0000
  -3  -5  -9    2322     215                                                        2194   -0.19    0.00  1.0000
  -3  -5 -10   26264     696                                                       26738   -0.20    0.00  1.0000
  -3  -5 -10   26920     721                                                       27400   -0.20    0.00  1.0000
  -3  -5 -11    1386     151                                                        1239   -0.28    0.00  1.0000
  -3  -5 -12     887     113                                                        1000   -0.25    0.00  1.0000
  -3  -5 -13    9228     234                                                        9091   -0.10    0.00  1.0000
   3   6  -6    1596     119                                                        1433   -0.29    0.00  1.0000
   3   6  -5     871     118                                                        1085   -0.48    0.00  1.0000
   3   6  -5     834     168                                                        1044   -0.48    0.00  1.0000
   3   6  -4    1594     176                                                        1234   -0.67    0.00  1.0000
   3   6  -4    1486     124                                                        1140   -0.67    0.00  1.0000
   3   6  -3     240     117                                                         455   -0.81    0.00  1.0000
   3   6  -3     197      78                                                         395   -0.81    0.00  1.0000
   3   6  -2    1611     157                                                        1158   -0.85    0.00  1.0000
  -3  -6   2    1490     289                                                        1057   -0.85    0.00  1.0000
   3   6  -2    1459     106                                                        1030   -0.85    0.00  1.0000
   3   6  -1     488     120                                                         788   -0.83    0.00  1.0000
  -3  -6   1     324     195                                                         574   -0.83    0.00  1.0000
  -3  -6   0    1269     316                                                        1753   -0.87    0.00  1.0000
  -3  -6  -1   18403     906                                                       16701   -0.90    0.00  1.0000
  -3  -6  -2    5315     534                                                        6066   -0.69    0.00  1.0000
   3   6   2    5839     272                                                        6625   -0.69    0.00  1.0000
   3   6   3   36718     620                                                       36079   -0.23    0.00  1.0000
  -3  -6  -3   37249    1259                                                       36606   -0.23    0.00  1.0000
  -3  -6  -4    3535     385                                                        3335    0.24    0.00  1.0000
   3   6   4    3397     185                                                        3201    0.24    0.00  1.0000
   3   6   5     592      73                                                         431    0.50    0.00  1.0000
  -3  -6  -5     358     125                                                         236    0.50    0.00  1.0000
   3   6   6   34548    1434                                                       36090    0.57    0.00  1.0000
  -3  -6  -6   34746     772                                                       36292    0.57    0.00  1.0000
   3   6   7  143656    2963                                                      140558    0.57    0.00  1.0000
  -3  -6  -7  134244    1525                                                      131249    0.57    0.00  1.0000
  -3  -6  -8     432      86                                                         296    0.50    0.00  1.0000
  -3  -6  -8     602      97                                                         438    0.50    0.00  1.0000
  -3  -6  -9    9850     392                                                        9344    0.36    0.00  1.0000
  -3  -6  -9    9788     417                                                        9283    0.36    0.00  1.0000
  -3  -6 -10    1644     149                                                        1493    0.27    0.00  1.0000
  -3  -6 -10    1882     184                                                        1719    0.27    0.00  1.0000
  -3  -6 -11     233      60                                                         301    0.29    0.00  1.0000
  -3  -6 -11     207      74                                                         272    0.29    0.00  1.0000
  -3  -6 -12       5      35                                                          -1    0.31    0.00  1.0000
  -3  -6 -13    8844     229                                                        9140    0.22    0.00  1.0000
   3   7  -6     176      46                                                         163    0.07    0.00  1.0000
   3   7  -5     129      80                                                         168    0.22    0.00  1.0000
   3   7  -4    1236     186                                                        1481    0.46    0.00  1.0000
   3   7  -3    2521     219                                                        2002    0.76    0.00  1.0000
   3   7  -2    1332     207                                                        1887    0.97    0.00  1.0000
   3   7  -1     162      97                                                         397    1.00    0.00  1.0000
   3   7   0    1922     157                                                        1346    1.00    0.00  1.0000
   3   7   0    1830     151                                                        1270    1.00    0.00  1.0000
  -3  -7  -1    8498     715                                                       10007    1.09    0.00  1.0000
   3   7   1    8869     400                                                       10410    1.09    0.00  1.0000
   3   7   2    5451     245                                                        4250    1.20    0.00  1.0000
  -3  -7  -2    5348     451                                                        4158    1.20    0.00  1.0000
   3   7   3   34401     718                                                       37416    1.11    0.00  1.0000
  -3  -7  -3   35868    1309                                                       38945    1.11    0.00  1.0000
   3   7   4   28649     599                                                       26792    0.78    0.00  1.0000
  -3  -7  -4   29352    1093                                                       27471    0.78    0.00  1.0000
  -3  -7  -4   28928     593                                                       27061    0.78    0.00  1.0000
   3   7   5   16819     494                                                       17546    0.39    0.00  1.0000
  -3  -7  -5   17594     911                                                       18337    0.39    0.00  1.0000
  -3  -7  -5   18188     528                                                       18944    0.39    0.00  1.0000
   3   7   6    3150     430                                                        3096    0.07    0.00  1.0000
  -3  -7  -6    3131     232                                                        3077    0.07    0.00  1.0000
   3   7   7   62727    2008                                                       63342   -0.17    0.00  1.0000
  -3  -7  -7   57883    1032                                                       58474   -0.17    0.00  1.0000
  -3  -7  -8    1315     151                                                        1165   -0.30    0.00  1.0000
  -3  -7  -9   21202     616                                                       21748   -0.26    0.00  1.0000
  -3  -7  -9   21167     602                                                       21713   -0.26    0.00  1.0000
  -3  -7 -10    1579     156                                                        1508   -0.13    0.00  1.0000
  -3  -7 -10    1775     169                                                        1699   -0.13    0.00  1.0000
  -3  -7 -11    3591     200                                                        3643   -0.06    0.00  1.0000
  -3  -7 -11    3485     222                                                        3536   -0.06    0.00  1.0000
  -3  -7 -12   14225     370                                                       14062   -0.10    0.00  1.0000
   3   8  -5       0      23                                                          -6    0.01    0.00  1.0000
   3   8  -4      98      41                                                          86   -0.08    0.00  1.0000
   3   8  -4      46      60                                                          38   -0.08    0.00  1.0000
   3   8  -3     218      97                                                         294   -0.33    0.00  1.0000
   3   8  -2     933     138                                                         668   -0.65    0.00  1.0000
   3   8  -2     818     105                                                         572   -0.65    0.00  1.0000
   3   8  -1    2843     278                                                        3539   -0.86    0.00  1.0000
   3   8  -1    2533     239                                                        3192   -0.86    0.00  1.0000
   3   8   0    3158     235                                                        2470   -0.91    0.00  1.0000
   3   8   0    3422     225                                                        2704   -0.91    0.00  1.0000
   3   8   1     155      52                                                          32   -0.95    0.00  1.0000
   3   8   2    1700     206                                                        2406   -1.09    0.00  1.0000
   3   8   3    8271     337                                                        6749   -1.22    0.00  1.0000
  -3  -8  -4   11823     431                                                       13776   -1.20    0.00  1.0000
   3   8   4   10960     457                                                       12843   -1.20    0.00  1.0000
   3   8   5   22817     586                                                       20647   -1.03    0.00  1.0000
  -3  -8  -5   23055     566                                                       20874   -1.03    0.00  1.0000
   3   8   6   48170    1731                                                       50642   -0.77    0.00  1.0000
  -3  -8  -6   44865     900                                                       47252   -0.77    0.00  1.0000
  -3  -8  -7    3394     266                                                        3814   -0.49    0.00  1.0000
  -3  -8  -8       2      48                                                          -4   -0.21    0.00  1.0000
  -3  -8  -9   11400     445                                                       11505   -0.07    0.00  1.0000
  -3  -8 -10    2001     175                                                        1935   -0.10    0.00  1.0000
  -3  -8 -10    2011     159                                                        1945   -0.10    0.00  1.0000
  -3  -8 -11    1165     120                                                        1263   -0.20    0.00  1.0000
  -3  -8 -11    1082     113                                                        1176   -0.20    0.00  1.0000
  -3  -8 -12   13415     269                                                       13091   -0.20    0.00  1.0000
  -3  -8 -12   13727     298                                                       13399   -0.20    0.00  1.0000
   3   9  -4      56      47                                                          67   -0.10    0.00  1.0000
   3   9  -3      85      63                                                          96   -0.07    0.00  1.0000
   3   9  -2     368      96                                                         398    0.11    0.00  1.0000
   3   9  -1     980     140                                                         839    0.33    0.00  1.0000
   3   9   0    2848     263                                                        3200    0.45    0.00  1.0000
   3   9   0    2764     237                                                        3110    0.45    0.00  1.0000
   3   9   1    5038     308                                                        4555    0.49    0.00  1.0000
   3   9   1    5151     294                                                        4663    0.49    0.00  1.0000
   3   9   2   19279     613                                                       20446    0.58    0.00  1.0000
   3   9   2   17831     458                                                       18954    0.58    0.00  1.0000
   3   9   3   20868     593                                                       19348    0.75    0.00  1.0000
  -3  -9  -4    4113     256                                                        4986    0.90    0.00  1.0000
   3   9   4    3716     285                                                        4548    0.90    0.00  1.0000
  -3  -9  -5    3996     273                                                        4939    0.98    0.00  1.0000
   3   9   5    3619     288                                                        4518    0.98    0.00  1.0000
  -3  -9  -6   40647     778                                                       37818    1.00    0.00  1.0000
  -3  -9  -7     725     147                                                        1122    0.92    0.00  1.0000
  -3  -9  -8    3148     215                                                        2599    0.71    0.00  1.0000
  -3  -9  -9      35      62                                                          86    0.47    0.00  1.0000
  -3  -9 -10    1009     111                                                         864    0.33    0.00  1.0000
   3   9  10    1023      93                                                         878    0.33    0.00  1.0000
  -3  -9 -11    2059     148                                                        2263    0.31    0.00  1.0000
  -3  -9 -12    5442     166                                                        5745    0.28    0.00  1.0000
   3  10  -3     182      53                                                         204    0.11    0.00  1.0000
   3  10  -2     336      82                                                         310    0.10    0.00  1.0000
   3  10  -1      51      54                                                          55    0.04    0.00  1.0000
   3  10   0     347      97                                                         350    0.01    0.00  1.0000
   3  10   1     467     114                                                         453    0.05    0.00  1.0000
   3  10   2     215      89                                                         224    0.04    0.00  1.0000
   3  10   3      18      51                                                          14   -0.07    0.00  1.0000
   3  10   3      56      43                                                          48   -0.07    0.00  1.0000
   3  10   4     118      57                                                         163   -0.27    0.00  1.0000
   3  10   4      62      49                                                          95   -0.27    0.00  1.0000
   3  10   5      22      54                                                          65   -0.47    0.00  1.0000
  -3 -10  -5      48      48                                                         106   -0.47    0.00  1.0000
  -3 -10  -6    7537     337                                                        8402   -0.68    0.00  1.0000
   3  10   6    7606     344                                                        8475   -0.68    0.00  1.0000
  -3 -10  -7    1677     136                                                        1219   -0.84    0.00  1.0000
   3  10   7    1823     144                                                        1344   -0.84    0.00  1.0000
  -3 -10  -8    7303     344                                                        8402   -0.87    0.00  1.0000
   3  10   8    8361     345                                                        9535   -0.87    0.00  1.0000
  -3 -10  -9    2343     157                                                        1877   -0.71    0.00  1.0000
   3  10   9    2569     147                                                        2080   -0.71    0.00  1.0000
  -3 -10 -10    2868     187                                                        3248   -0.48    0.00  1.0000
   3  10  10    2793     158                                                        3168   -0.48    0.00  1.0000
  -3 -10 -11   10128     263                                                        9689   -0.31    0.00  1.0000
   3  11  -1      35      39                                                          31   -0.04    0.00  1.0000
   3  11   0      21      40                                                          28   -0.10    0.00  1.0000
   3  11   1     232      66                                                         183   -0.24    0.00  1.0000
   3  11   2      16      65                                                          42   -0.35    0.00  1.0000
   3  11   3    1371     164                                                        1547   -0.32    0.00  1.0000
   3  11   3    1246     114                                                        1415   -0.32    0.00  1.0000
   3  11   4    7150     273                                                        6944   -0.17    0.00  1.0000
   3  11   5   10798     353                                                       10764    0.02    0.00  1.0000
   3  11   6       3      43                                                          -5    0.23    0.00  1.0000
   3  11   7       0      44                                                           8    0.45    0.00  1.0000
  -3 -11  -7      10      37                                                         -47    0.45    0.00  1.0000
   3  11   8      19      46                                                         -67    0.61    0.00  1.0000
  -3 -11  -8      19      38                                                         -32    0.61    0.00  1.0000
   3  11   9      86      32                                                          25    0.60    0.00  1.0000
  -3 -11  -9      76      32                                                          19    0.60    0.00  1.0000
   3  11  10     426      46                                                         307    0.44    0.00  1.0000
  -3 -11 -10     431      52                                                         311    0.44    0.00  1.0000
   3  12   1     144      45                                                         168    0.14    0.00  1.0000
   3  12   2      74      42                                                          44    0.28    0.00  1.0000
   3  12   2      67      30                                                          39    0.28    0.00  1.0000
   3  12   3      23      44                                                          50    0.32    0.00  1.0000
   3  12   4     231      67                                                         281    0.22    0.00  1.0000
   3  12   4     202      43                                                         249    0.22    0.00  1.0000
   3  12   5    4103     220                                                        4033    0.08    0.00  1.0000
   3  12   5    3575     165                                                        3510    0.08    0.00  1.0000
   3  12   6    1819     125                                                        1800   -0.03    0.00  1.0000
   3  12   7    2674     149                                                        2768   -0.12    0.00  1.0000
   3  12   8     867      78                                                         772   -0.23    0.00  1.0000
   3  12   9     835      73                                                         959   -0.29    0.00  1.0000
  -4  10   4     830      65                                                         810   -0.05    0.00  1.0000
  -4  10   3     151      34                                                         162   -0.06    0.00  1.0000
  -4   9   7    4623     173                                                        4752    0.13    0.00  1.0000
  -4   9   6    8194     252                                                        8098    0.07    0.00  1.0000
  -4   9   5    1272     110                                                        1282    0.02    0.00  1.0000
  -4   9   5    1305     123                                                        1315    0.02    0.00  1.0000
  -4   9   4       6      31                                                           7    0.03    0.00  1.0000
  -4   9   4      10      46                                                          11    0.03    0.00  1.0000
  -4   9   3      30      35                                                          37    0.08    0.00  1.0000
  -4   9   2       1      52                                                         -90    0.13    0.00  1.0000
  -4   9   1      47      36                                                          35    0.13    0.00  1.0000
  -4   9   0     494      74                                                         528    0.10    0.00  1.0000
  -4   9   0     467      64                                                         500    0.10    0.00  1.0000
  -4   9  -1     407      51                                                         381    0.09    0.00  1.0000
   4  -8  -9    6522     194                                                        6638   -0.10    0.00  1.0000
   4  -8  -8    2439     133                                                        2263   -0.25    0.00  1.0000
   4  -8  -7       0      33                                                           5   -0.36    0.00  1.0000
  -4   8   6    3806     211                                                        4155   -0.39    0.00  1.0000
  -4   8   5    4100     220                                                        3794   -0.34    0.00  1.0000
  -4   8   5    3616     224                                                        3330   -0.34    0.00  1.0000
  -4   8   4    1118     136                                                        1255   -0.28    0.00  1.0000
  -4   8   4    1470     172                                                        1628   -0.28    0.00  1.0000
  -4   8   3    1192     128                                                        1073   -0.25    0.00  1.0000
  -4   8   3     912     129                                                         808   -0.25    0.00  1.0000
  -4   8   2      98      54                                                         134   -0.23    0.00  1.0000
  -4   8   2     153      77                                                         197   -0.23    0.00  1.0000
  -4   8   1      39      44                                                          23   -0.20    0.00  1.0000
  -4   8   0     249      64                                                         219   -0.14    0.00  1.0000
  -4   8   0     335      70                                                         300   -0.14    0.00  1.0000
  -4   8  -1     320      74                                                         341   -0.08    0.00  1.0000
  -4   8  -1     276      71                                                         295   -0.08    0.00  1.0000
  -4   8  -2     201      55                                                         189   -0.06    0.00  1.0000
  -4   8  -2      98      34                                                          90   -0.06    0.00  1.0000
  -4   8  -3      71      38                                                          79   -0.07    0.00  1.0000
  -4   8  -3      71      30                                                          79   -0.07    0.00  1.0000
   4  -7 -10     562      60                                                         547   -0.04    0.00  1.0000
   4  -7  -9    6791     244                                                        6819   -0.02    0.00  1.0000
  -4   7   8   16004     438                                                       16180    0.10    0.00  1.0000
   4  -7  -8   17562     437                                                       17747    0.10    0.00  1.0000
  -4   7   7   16185     453                                                       15708    0.26    0.00  1.0000
  -4   7   6     883     123                                                        1074    0.43    0.00  1.0000
  -4   7   5    3305     245                                                        3784    0.56    0.00  1.0000
  -4   7   4    1483     154                                                        1152    0.64    0.00  1.0000
  -4   7   3    1536     180                                                        1911    0.63    0.00  1.0000
  -4   7   3    1691     210                                                        2084    0.63    0.00  1.0000
  -4   7   2    2023     171                                                        1682    0.55    0.00  1.0000
  -4   7   2    2110     196                                                        1761    0.55    0.00  1.0000
  -4   7   1    9137     387                                                        9742    0.43    0.00  1.0000
  -4   7   1    8898     425                                                        9495    0.43    0.00  1.0000
  -4   7   0    2854     210                                                        2630    0.30    0.00  1.0000
  -4   7   0    2810     209                                                        2588    0.30    0.00  1.0000
  -4   7  -1     467     100                                                         519    0.16    0.00  1.0000
  -4   7  -1     472     105                                                         525    0.16    0.00  1.0000
  -4   7  -2       0      60                                                         -56    0.06    0.00  1.0000
  -4   7  -2      50      59                                                          44    0.06    0.00  1.0000
  -4   7  -3     186      77                                                         183    0.02    0.00  1.0000
  -4   7  -4     444      78                                                         451    0.02    0.00  1.0000
  -4   7  -4     381      70                                                         387    0.02    0.00  1.0000
  -4   7  -5      93      32                                                          89    0.03    0.00  1.0000
   4  -6 -10    8349     247                                                        8248    0.08    0.00  1.0000
  -4   6   9       7      44                                                          15    0.15    0.00  1.0000
   4  -6  -9       7      35                                                          14    0.15    0.00  1.0000
  -4   6   8    8365     352                                                        8568    0.15    0.00  1.0000
  -4   6   7   13615     460                                                       13454    0.10    0.00  1.0000
  -4   6   6    5298     286                                                        5284   -0.01    0.00  1.0000
  -4   6   6    5495     260                                                        5481   -0.01    0.00  1.0000
  -4   6   5     370      79                                                         317   -0.20    0.00  1.0000
  -4   6   5     485      81                                                         424   -0.20    0.00  1.0000
  -4   6   5     447      90                                                         389   -0.20    0.00  1.0000
  -4   6   4     900     125                                                         722   -0.44    0.00  1.0000
  -4   6   3      81      86                                                         182   -0.62    0.00  1.0000
  -4   6   2      86      44                                                          19   -0.67    0.00  1.0000
  -4   6   2      90      71                                                          22   -0.67    0.00  1.0000
  -4   6   1    4791     263                                                        4206   -0.61    0.00  1.0000
  -4   6   1    5412     275                                                        4789   -0.61    0.00  1.0000
  -4   6   1    5294     303                                                        4678   -0.61    0.00  1.0000
  -4   6   0    3077     237                                                        3493   -0.51    0.00  1.0000
  -4   6   0    2888     227                                                        3291   -0.51    0.00  1.0000
  -4   6   0    2747     238                                                        3140   -0.51    0.00  1.0000
  -4   6   0    2751     248                                                        3144   -0.51    0.00  1.0000
  -4   6  -1    3381     225                                                        3053   -0.40    0.00  1.0000
  -4   6  -1    3026     207                                                        2716   -0.40    0.00  1.0000
  -4   6  -1    3226     231                                                        2905   -0.40    0.00  1.0000
  -4   6  -2    2818     225                                                        3046   -0.29    0.00  1.0000
  -4   6  -2    2752     204                                                        2977   -0.29    0.00  1.0000
  -4   6  -2    2721     240                                                        2945   -0.29    0.00  1.0000
  -4   6  -3      69      53                                                          49   -0.18    0.00  1.0000
  -4   6  -3      97      43                                                          73   -0.18    0.00  1.0000
  -4   6  -3      92      58                                                          69   -0.18    0.00  1.0000
  -4   6  -4      81      62                                                          68   -0.11    0.00  1.0000
  -4   6  -5     162      63                                                         174   -0.07    0.00  1.0000
  -4   6  -5     100      54                                                         110   -0.07    0.00  1.0000
  -4   6  -6     124      40                                                         119   -0.03    0.00  1.0000
   4  -5 -10    9446     281                                                        9522   -0.05    0.00  1.0000
  -4   5  10    9231     304                                                        9306   -0.05    0.00  1.0000
  -4   5   9    7723     322                                                        7565   -0.13    0.00  1.0000
  -4   5   8     532     110                                                         589   -0.17    0.00  1.0000
  -4   5   7    1201     156                                                        1303   -0.20    0.00  1.0000
  -4   5   7    1380     148                                                        1489   -0.20    0.00  1.0000
  -4   5   6   22895     607                                                       22341   -0.26    0.00  1.0000
  -4   5   6   24111     580                                                       23542   -0.26    0.00  1.0000
  -4   5   5    4884     281                                                        5162   -0.27    0.00  1.0000
  -4   5   5    4846     267                                                        5123   -0.27    0.00  1.0000
  -4   5   4   13322     909                                                       13060   -0.16    0.00  1.0000
  -4   5   4   12989     412                                                       12730   -0.16    0.00  1.0000
  -4   5   4   12824     386                                                       12568   -0.16    0.00  1.0000
  -4   5   4   13327     469                                                       13065   -0.16    0.00  1.0000
  -4   5   3    6755     267                                                        6682    0.06    0.00  1.0000
  -4   5   3    7111     387                                                        7036    0.06    0.00  1.0000
  -4   5   2   18773     543                                                       19268    0.25    0.00  1.0000
  -4   5   2   18110    1071                                                       18596    0.25    0.00  1.0000
  -4   5   2   17667     589                                                       18148    0.25    0.00  1.0000
  -4   5   1     347      67                                                         265    0.33    0.00  1.0000
  -4   5   1     291      77                                                         217    0.33    0.00  1.0000
  -4   5   1     335     156                                                         255    0.33    0.00  1.0000
  -4   5   1     226      71                                                         161    0.33    0.00  1.0000
  -4   5   0     967     114                                                         816    0.35    0.00  1.0000
  -4   5   0     967     119                                                         815    0.35    0.00  1.0000
  -4   5   0     769     214                                                         635    0.35    0.00  1.0000
  -4   5   0     865     125                                                         723    0.35    0.00  1.0000
  -4   5  -1    1872     185                                                        2133    0.41    0.00  1.0000
  -4   5  -1    1869     189                                                        2130    0.41    0.00  1.0000
  -4   5  -1    1723     189                                                        1973    0.41    0.00  1.0000
  -4   5  -1    2005     205                                                        2275    0.41    0.00  1.0000
  -4   5  -2    3129     211                                                        2774    0.45    0.00  1.0000
  -4   5  -2    2850     198                                                        2512    0.45    0.00  1.0000
  -4   5  -2    2891     223                                                        2551    0.45    0.00  1.0000
  -4   5  -2    2932     217                                                        2590    0.45    0.00  1.0000
  -4   5  -3     344      98                                                         469    0.43    0.00  1.0000
  -4   5  -3     341      95                                                         465    0.43    0.00  1.0000
  -4   5  -3     259     102                                                         368    0.43    0.00  1.0000
  -4   5  -3     175      89                                                         267    0.43    0.00  1.0000
  -4   5  -4     998     109                                                         847    0.35    0.00  1.0000
  -4   5  -4    1040     141                                                         886    0.35    0.00  1.0000
  -4   5  -4     953     129                                                         806    0.35    0.00  1.0000
  -4   5  -5     274      63                                                         339    0.26    0.00  1.0000
  -4   5  -5     324      93                                                         395    0.26    0.00  1.0000
  -4   5  -5     264      90                                                         328    0.26    0.00  1.0000
  -4   5  -6     101      53                                                          76    0.18    0.00  1.0000
  -4   5  -6      91      54                                                          68    0.18    0.00  1.0000
  -4   5  -6      23      40                                                          12    0.18    0.00  1.0000
  -4   5  -7     231      52                                                         211    0.09    0.00  1.0000
  -4   4  10    4187     212                                                        4240   -0.06    0.00  1.0000
   4  -4 -10    3985     186                                                        4037   -0.06    0.00  1.0000
  -4   4   9   18800     523                                                       18718   -0.04    0.00  1.0000
  -4   4   8   15244     506                                                       15304   -0.03    0.00  1.0000
  -4   4   7   13170     477                                                       13129   -0.02    0.00  1.0000
  -4   4   7   13989     457                                                       13947   -0.02    0.00  1.0000
  -4   4   6    8053     368                                                        8134    0.06    0.00  1.0000
  -4   4   6    8327     357                                                        8409    0.06    0.00  1.0000
  -4   4   5      28      54                                                          50    0.25    0.00  1.0000
  -4   4   5      36      46                                                          61    0.25    0.00  1.0000
  -4   4   5     153     137                                                         200    0.25    0.00  1.0000
  -4   4   4    3547     228                                                        3901    0.40    0.00  1.0000
  -4   4   4    3670     495                                                        4029    0.40    0.00  1.0000
  -4   4   4    3584     219                                                        3940    0.40    0.00  1.0000
  -4   4   3    6564     605                                                        6103    0.40    0.00  1.0000
  -4   4   3    6813     259                                                        6344    0.40    0.00  1.0000
  -4   4   3    6348     301                                                        5896    0.40    0.00  1.0000
  -4   4   2   38352     729                                                       39132    0.28    0.00  1.0000
  -4   4   2   39165    1498                                                       39953    0.28    0.00  1.0000
  -4   4   2   36871     762                                                       37636    0.28    0.00  1.0000
  -4   4   1   17021     473                                                       16736    0.15    0.00  1.0000
  -4   4   1   16513     967                                                       16232    0.15    0.00  1.0000
  -4   4   1   16668     507                                                       16386    0.15    0.00  1.0000
  -4   4   0    5527     265                                                        5592    0.06    0.00  1.0000
  -4   4   0    6168     291                                                        6237    0.06    0.00  1.0000
  -4   4   0    6208     608                                                        6277    0.06    0.00  1.0000
  -4   4   0    5936     311                                                        6004    0.06    0.00  1.0000
  -4   4  -1    2853     198                                                        2914   -0.08    0.00  1.0000
  -4   4  -1    2460     193                                                        2517   -0.08    0.00  1.0000
  -4   4  -1    2633     427                                                        2692   -0.08    0.00  1.0000
  -4   4  -1    2243     187                                                        2298   -0.08    0.00  1.0000
  -4   4  -1    2796     218                                                        2857   -0.08    0.00  1.0000
  -4   4  -2    5628     290                                                        5927   -0.27    0.00  1.0000
  -4   4  -2    5765     303                                                        6069   -0.27    0.00  1.0000
  -4   4  -2    5605     317                                                        5905   -0.27    0.00  1.0000
  -4   4  -2    5903     319                                                        6210   -0.27    0.00  1.0000
  -4   4  -3    7482     330                                                        6982   -0.41    0.00  1.0000
  -4   4  -3    7425     333                                                        6927   -0.41    0.00  1.0000
  -4   4  -3    7631     364                                                        7126   -0.41    0.00  1.0000
  -4   4  -3    7884     369                                                        7372   -0.41    0.00  1.0000
  -4   4  -4   15173     559                                                       15916   -0.42    0.00  1.0000
  -4   4  -4   15008     501                                                       15748   -0.42    0.00  1.0000
  -4   4  -4   14845     488                                                       15580   -0.42    0.00  1.0000
  -4   4  -4   14875     549                                                       15611   -0.42    0.00  1.0000
  -4   4  -5    3207     206                                                        2919   -0.36    0.00  1.0000
  -4   4  -5    3152     244                                                        2867   -0.36    0.00  1.0000
  -4   4  -5    3191     242                                                        2904   -0.36    0.00  1.0000
  -4   4  -6    1175     126                                                        1337   -0.32    0.00  1.0000
  -4   4  -6    1387     173                                                        1563   -0.32    0.00  1.0000
  -4   4  -6    1425     172                                                        1603   -0.32    0.00  1.0000
  -4   4  -6    1256     164                                                        1424   -0.32    0.00  1.0000
  -4   4  -7     248      62                                                         194   -0.25    0.00  1.0000
  -4   4  -7     294      67                                                         235   -0.25    0.00  1.0000
  -4   4  -8       1      30                                                          -3   -0.13    0.00  1.0000
  -4   3  10    1031     109                                                        1118    0.19    0.00  1.0000
   4  -3 -10    1020      97                                                        1106    0.19    0.00  1.0000
  -4   3   9    5587     293                                                        5863    0.25    0.00  1.0000
  -4   3   8    4787     279                                                        4503    0.29    0.00  1.0000
  -4   3   7   23602     644                                                       24329    0.33    0.00  1.0000
  -4   3   7   23975     614                                                       24708    0.33    0.00  1.0000
  -4   3   6    2237     205                                                        2458    0.32    0.00  1.0000
  -4   3   6    2401     203                                                        2630    0.32    0.00  1.0000
  -4   3   6    2053     416                                                        2265    0.32    0.00  1.0000
  -4   3   5    9149     370                                                        9381    0.17    0.00  1.0000
  -4   3   5    9373     795                                                        9608    0.17    0.00  1.0000
  -4   3   5    8780     350                                                        9007    0.17    0.00  1.0000
  -4   3   4    8412     325                                                        8558   -0.11    0.00  1.0000
  -4   3   4    7651     695                                                        7791   -0.11    0.00  1.0000
  -4   3   4    7753     302                                                        7893   -0.11    0.00  1.0000
  -4   3   3    9369     688                                                        8884   -0.35    0.00  1.0000
  -4   3   2     435     159                                                         314   -0.44    0.00  1.0000
  -4   3   1   13207     832                                                       13892   -0.41    0.00  1.0000
  -4   3   0   17367     919                                                       16702   -0.35    0.00  1.0000
  -4   3  -1   34829    1387                                                       35481   -0.24    0.00  1.0000
  -4   3  -2    2452     171                                                        2434   -0.03    0.00  1.0000
  -4   3  -2    2399     184                                                        2381   -0.03    0.00  1.0000
  -4   3  -2    2550     197                                                        2532   -0.03    0.00  1.0000
  -4   3  -2    2450     190                                                        2432   -0.03    0.00  1.0000
  -4   3  -3    4976     253                                                        4776    0.20    0.00  1.0000
  -4   3  -3    5076     286                                                        4873    0.20    0.00  1.0000
  -4   3  -3    4801     276                                                        4605    0.20    0.00  1.0000
  -4   3  -3    5175     294                                                        4971    0.20    0.00  1.0000
  -4   3  -4     575      95                                                         480    0.29    0.00  1.0000
  -4   3  -4     980     280                                                         855    0.29    0.00  1.0000
  -4   3  -4     709     115                                                         604    0.29    0.00  1.0000
  -4   3  -4     820     119                                                         706    0.29    0.00  1.0000
  -4   3  -4     608     113                                                         511    0.29    0.00  1.0000
  -4   3  -5     592     121                                                         685    0.26    0.00  1.0000
  -4   3  -5     641     135                                                         738    0.26    0.00  1.0000
  -4   3  -5     590     133                                                         684    0.26    0.00  1.0000
  -4   3  -6    3762     265                                                        3544    0.25    0.00  1.0000
  -4   3  -6    3260     229                                                        3057    0.25    0.00  1.0000
  -4   3  -6    3199     252                                                        2998    0.25    0.00  1.0000
  -4   3  -7    3280     209                                                        3523    0.29    0.00  1.0000
  -4   3  -7    3678     259                                                        3935    0.29    0.00  1.0000
  -4   3  -7    3540     251                                                        3791    0.29    0.00  1.0000
  -4   3  -7    3427     226                                                        3675    0.29    0.00  1.0000
  -4   3  -7    3207     238                                                        3447    0.29    0.00  1.0000
  -4   3  -8      91      51                                                          60    0.25    0.00  1.0000
  -4   3  -8     146      50                                                         105    0.25    0.00  1.0000
  -4   3  -9      67      30                                                          56    0.10    0.00  1.0000
  -4   2  10    2547     152                                                        2436   -0.15    0.00  1.0000
  -4   2   9      90      61                                                         138   -0.31    0.00  1.0000
  -4   2   8    1719     165                                                        1470   -0.43    0.00  1.0000
  -4   2   7   33124     729                                                       31754   -0.53    0.00  1.0000
  -4   2   7   33993     695                                                       32605   -0.53    0.00  1.0000
  -4   2   6    5107     307                                                        5755   -0.61    0.00  1.0000
  -4   2   6    5236     298                                                        5892   -0.61    0.00  1.0000
  -4   2   5   38291     684                                                       36587   -0.61    0.00  1.0000
  -4   2   5   37676    1535                                                       35986   -0.61    0.00  1.0000
  -4   2   4   43925    1619                                                       45262   -0.44    0.00  1.0000
  -4   2   3   40832    1429                                                       40449   -0.13    0.00  1.0000
  -4   2   2   19392     932                                                       19075    0.16    0.00  1.0000
  -4   2   1    3622     406                                                        3330    0.35    0.00  1.0000
  -4   2   0    6879     573                                                        7430    0.45    0.00  1.0000
  -4   2  -1   51118    1516                                                       49584    0.48    0.00  1.0000
  -4   2  -2   16689     930                                                       17314    0.33    0.00  1.0000
  -4   2  -3   37897    1650                                                       37729    0.06    0.00  1.0000
  -4   2  -4    2884     187                                                        2776   -0.14    0.00  1.0000
  -4   2  -4    2594     464                                                        2491   -0.14    0.00  1.0000
  -4   2  -4    3281     232                                                        3165   -0.14    0.00  1.0000
  -4   2  -4    3172     235                                                        3058   -0.14    0.00  1.0000
  -4   2  -4    3008     224                                                        2897   -0.14    0.00  1.0000
  -4   2  -5    1313     153                                                        1395   -0.16    0.00  1.0000
  -4   2  -5    1354     368                                                        1437   -0.16    0.00  1.0000
  -4   2  -5    1124     153                                                        1200   -0.16    0.00  1.0000
  -4   2  -5    1025     148                                                        1098   -0.16    0.00  1.0000
  -4   2  -5    1064     165                                                        1138   -0.16    0.00  1.0000
  -4   2  -6      75      71                                                          90   -0.12    0.00  1.0000
  -4   2  -6      57      54                                                          70   -0.12    0.00  1.0000
  -4   2  -6     114      62                                                         133   -0.12    0.00  1.0000
  -4   2  -6     140      77                                                         161   -0.12    0.00  1.0000
  -4   2  -7    4508     285                                                        4321   -0.20    0.00  1.0000
  -4   2  -7    4263     267                                                        4082   -0.20    0.00  1.0000
  -4   2  -7    4338     280                                                        4156   -0.20    0.00  1.0000
  -4   2  -7    4385     276                                                        4201   -0.20    0.00  1.0000
  -4   2  -8    1204     146                                                        1365   -0.31    0.00  1.0000
  -4   2  -8    1324     148                                                        1493   -0.31    0.00  1.0000
  -4   2  -8    1208     149                                                        1370   -0.31    0.00  1.0000
  -4   2  -9     502      56                                                         417   -0.28    0.00  1.0000
  -4   2  -9     691      76                                                         590   -0.28    0.00  1.0000
  -4   2  -9     608      73                                                         514   -0.28    0.00  1.0000
   4  -1 -10    9062     238                                                        9029   -0.02    0.00  1.0000
  -4   1  10    8256     242                                                        8224   -0.02    0.00  1.0000
   4  -1  -9    5625     236                                                        5506    0.11    0.00  1.0000
  -4   1   9    5687     268                                                        5567    0.11    0.00  1.0000
   4  -1  -8   18429     475                                                       19005    0.29    0.00  1.0000
  -4   1   8   18735     549                                                       19316    0.29    0.00  1.0000
   4  -1  -7    3934     234                                                        4362    0.46    0.00  1.0000
  -4   1   7    3971     271                                                        4402    0.46    0.00  1.0000
   4  -1  -6   11997     383                                                       12990    0.62    0.00  1.0000
  -4   1   6   11022    1048                                                       11974    0.62    0.00  1.0000
  -4   1   6   11985     434                                                       12976    0.62    0.00  1.0000
  -4   1   5    8057     734                                                        7099    0.77    0.00  1.0000
  -4   1   5    8623     308                                                        7632    0.77    0.00  1.0000
  -4   1   4     895     184                                                         571    0.84    0.00  1.0000
  -4   1   3   12279     744                                                       13487    0.74    0.00  1.0000
  -4   1   3   13577     862                                                       14846    0.74    0.00  1.0000
  -4   1   2   61373    1434                                                       59629    0.49    0.00  1.0000
  -4   1   2   63992    1629                                                       62212    0.49    0.00  1.0000
  -4   1   1   13673     727                                                       13978    0.18    0.00  1.0000
  -4   1   1   13240     621                                                       13540    0.18    0.00  1.0000
  -4   1   0   34804    1138                                                       35204   -0.15    0.00  1.0000
  -4   1   0   34518     933                                                       34916   -0.15    0.00  1.0000
  -4   1  -1     354     159                                                         486   -0.45    0.00  1.0000
  -4   1  -1     166      84                                                         259   -0.45    0.00  1.0000
  -4   1  -2    2875     319                                                        2451   -0.57    0.00  1.0000
  -4   1  -3   57807    1911                                                       59247   -0.41    0.00  1.0000
  -4   1  -4   20057    1181                                                       19830   -0.11    0.00  1.0000
  -4   1  -5   15171    1114                                                       15067    0.06    0.00  1.0000
  -4   1  -5   13407     391                                                       13308    0.06    0.00  1.0000
  -4   1  -5   13997     479                                                       13897    0.06    0.00  1.0000
  -4   1  -5   14004     497                                                       13903    0.06    0.00  1.0000
  -4   1  -5   13825     506                                                       13726    0.06    0.00  1.0000
  -4   1  -6    4426     613                                                        4469    0.05    0.00  1.0000
  -4   1  -6    5060     311                                                        5106    0.05    0.00  1.0000
  -4   1  -6    4976     314                                                        5022    0.05    0.00  1.0000
  -4   1  -6    4444     303                                                        4487    0.05    0.00  1.0000
  -4   1  -6    4782     297                                                        4827    0.05    0.00  1.0000
  -4   1  -7    2885     244                                                        2933    0.06    0.00  1.0000
  -4   1  -7    3364     250                                                        3417    0.06    0.00  1.0000
  -4   1  -7    3182     244                                                        3233    0.06    0.00  1.0000
  -4   1  -8    1366     153                                                        1244    0.24    0.00  1.0000
  -4   1  -8    1440     149                                                        1314    0.24    0.00  1.0000
  -4   1  -8    1423     144                                                        1298    0.24    0.00  1.0000
  -4   1  -9     955     128                                                        1135    0.39    0.00  1.0000
  -4   1  -9     869     115                                                        1040    0.39    0.00  1.0000
  -4   1  -9     919     113                                                        1095    0.39    0.00  1.0000
  -4   1 -10       5      32                                                         -31    0.32    0.00  1.0000
   4   0 -10     470      63                                                         502    0.10    0.00  1.0000
  -4   0   9      53      42                                                          42    0.12    0.00  1.0000
   4   0  -9       1      55                                                         -61    0.12    0.00  1.0000
   4   0  -8   17918     483                                                       17948    0.02    0.00  1.0000
  -4   0   8   18428     511                                                       18458    0.02    0.00  1.0000
   4   0  -7      37      52                                                          51   -0.14    0.00  1.0000
   4   0  -6   11885     383                                                       11444   -0.28    0.00  1.0000
  -4   0   6   12586    1071                                                       12132   -0.28    0.00  1.0000
  -4   0   6   12085     390                                                       11641   -0.28    0.00  1.0000
  -4   0   5   14797    1124                                                       15576   -0.44    0.00  1.0000
   4   0  -5   14253     412                                                       15018   -0.44    0.00  1.0000
  -4   0   5   15330     439                                                       16122   -0.44    0.00  1.0000
  -4   0   4    3440     433                                                        2913   -0.65    0.00  1.0000
  -4   0   3   22793    1137                                                       24710   -0.87    0.00  1.0000
  -4   0   2    9182     681                                                       10572   -0.97    0.00  1.0000
  -4   0   2    9747     669                                                       11177   -0.97    0.00  1.0000
  -4   0   2    9097     654                                                       10480   -0.97    0.00  1.0000
  -4   0   1   27638     959                                                       25503   -0.91    0.00  1.0000
  -4   0   1   30116     980                                                       27885   -0.91    0.00  1.0000
  -4   0   0  141911    2139                                                      145531   -0.67    0.00  1.0000
  -4   0   0  141010    2134                                                      144619   -0.67    0.00  1.0000
  -4   0  -1   45775    1182                                                       45019   -0.25    0.00  1.0000
  -4   0  -1   47856    1195                                                       47082   -0.25    0.00  1.0000
  -4   0  -2   18089     760                                                       17699    0.20    0.00  1.0000
  -4   0  -2   17238     721                                                       16858    0.20    0.00  1.0000
  -4   0  -3    6386     558                                                        5899    0.43    0.00  1.0000
  -4   0  -3    6138     449                                                        5661    0.43    0.00  1.0000
  -4   0  -4    2574     410                                                        2823    0.33    0.00  1.0000
  -4   0  -5   15070    1024                                                       14876    0.11    0.00  1.0000
  -4   0  -5   13954     472                                                       13768    0.11    0.00  1.0000
  -4   0  -5   14196     452                                                       14008    0.11    0.00  1.0000
  -4   0  -5   14195     450                                                       14007    0.11    0.00  1.0000
  -4   0  -6   29754    1561                                                       29828    0.03    0.00  1.0000
  -4   0  -6   33035     748                                                       33114    0.03    0.00  1.0000
  -4   0  -6   30419     754                                                       30494    0.03    0.00  1.0000
  -4   0  -6   29383     679                                                       29457    0.03    0.00  1.0000
  -4   0  -6   30880     706                                                       30956    0.03    0.00  1.0000
  -4   0  -7    1969     200                                                        1927    0.07    0.00  1.0000
  -4   0  -7    1667     164                                                        1629    0.07    0.00  1.0000
  -4   0  -7    1665     172                                                        1627    0.07    0.00  1.0000
  -4   0  -8    1588     185                                                        1584   -0.01    0.00  1.0000
  -4   0  -8    1553     164                                                        1548   -0.01    0.00  1.0000
  -4   0  -8    1497     150                                                        1493   -0.01    0.00  1.0000
  -4   0  -9       2      58                                                         -57   -0.22    0.00  1.0000
  -4   0  -9      19      39                                                          35   -0.22    0.00  1.0000
  -4   0  -9      25      41                                                          44   -0.22    0.00  1.0000
  -4   0 -10      69      40                                                          34   -0.34    0.00  1.0000
  -4   0 -11       3      25                                                         -30   -0.25    0.00  1.0000
   4   1 -10     371      54                                                         378   -0.02    0.00  1.0000
   4   1  -9    2663     164                                                        2546   -0.16    0.00  1.0000
   4   1  -8    3435     212                                                        3253   -0.22    0.00  1.0000
  -4  -1   8    2927     189                                                        2759   -0.22    0.00  1.0000
   4   1  -7    2794     203                                                        2668   -0.17    0.00  1.0000
   4   1  -6     390      87                                                         365   -0.09    0.00  1.0000
   4   1  -5   18950     491                                                       19027   -0.04    0.00  1.0000
  -4  -1   5   18373     450                                                       18449   -0.04    0.00  1.0000
  -4  -1   4   10865     895                                                       10964    0.07    0.00  1.0000
  -4  -1   3   13464     895                                                       12936    0.32    0.00  1.0000
  -4  -1   2   71156    1844                                                       68564    0.68    0.00  1.0000
  -4  -1   1   54894    1597                                                       58374    1.02    0.00  1.0000
  -4  -1   1   53107    1341                                                       56531    1.02    0.00  1.0000
  -4  -1   1   56929    1594                                                       60472    1.02    0.00  1.0000
  -4  -1   0   40824    1199                                                       37429    1.20    0.00  1.0000
  -4  -1   0   40591     996                                                       37205    1.20    0.00  1.0000
  -4  -1  -1   38858    1016                                                       42078    1.12    0.00  1.0000
  -4  -1  -1   39962    1239                                                       43227    1.12    0.00  1.0000
  -4  -1  -2  107354    1886                                                      103810    0.76    0.00  1.0000
  -4  -1  -2  109834    1626                                                      106249    0.76    0.00  1.0000
  -4  -1  -3   44134    1283                                                       45049    0.30    0.00  1.0000
  -4  -1  -4   26318    1137                                                       26282    0.02    0.00  1.0000
  -4  -1  -4   27010    1066                                                       26974    0.02    0.00  1.0000
   4   1   4   26874     915                                                       26838    0.02    0.00  1.0000
  -4  -1  -5       0     113                                                        -170   -0.01    0.00  1.0000
  -4  -1  -6   27794    1415                                                       27837    0.02    0.00  1.0000
  -4  -1  -6   25788     675                                                       25829    0.02    0.00  1.0000
  -4  -1  -6   26797     622                                                       26839    0.02    0.00  1.0000
  -4  -1  -7    6267     750                                                        6331   -0.06    0.00  1.0000
  -4  -1  -7    6826     362                                                        6893   -0.06    0.00  1.0000
  -4  -1  -7    6624     369                                                        6690   -0.06    0.00  1.0000
  -4  -1  -7    7494     344                                                        7563   -0.06    0.00  1.0000
  -4  -1  -8    8368     412                                                        8188   -0.14    0.00  1.0000
  -4  -1  -8    7423     357                                                        7254   -0.14    0.00  1.0000
  -4  -1  -8    7609     344                                                        7437   -0.14    0.00  1.0000
  -4  -1  -9     746     115                                                         770   -0.06    0.00  1.0000
  -4  -1  -9     862     140                                                         889   -0.06    0.00  1.0000
  -4  -1  -9     924     115                                                         951   -0.06    0.00  1.0000
  -4  -1 -10    1262     147                                                        1316    0.10    0.00  1.0000
  -4  -1 -11    1951     133                                                        1850    0.16    0.00  1.0000
   4   2  -9    3272     176                                                        3390    0.14    0.00  1.0000
   4   2  -8     586     106                                                         697    0.31    0.00  1.0000
   4   2  -7    1318     159                                                        1508    0.35    0.00  1.0000
   4   2  -6     328      80                                                         255    0.30    0.00  1.0000
   4   2  -5    2843     220                                                        2640    0.27    0.00  1.0000
  -4  -2   5    2763     487                                                        2564    0.27    0.00  1.0000
   4   2  -5    3051     203                                                        2841    0.27    0.00  1.0000
  -4  -2   4     716     267                                                         834    0.29    0.00  1.0000
   4   2  -4     573      95                                                         679    0.29    0.00  1.0000
  -4  -2   3   72000    2226                                                       71064    0.24    0.00  1.0000
  -4  -2   2  112943    2567                                                      112992    0.01    0.00  1.0000
  -4  -2   1  252096    3604                                                      254770   -0.37    0.00  1.0000
  -4  -2   1  269047    3709                                                      271809   -0.37    0.00  1.0000
  -4  -2   0  114789    2213                                                      111034   -0.78    0.00  1.0000
  -4  -2   0  112995    1597                                                      109270   -0.78    0.00  1.0000
  -4  -2  -1    2278     177                                                        1589   -1.10    0.00  1.0000
  -4  -2  -1    1815     226                                                        1207   -1.10    0.00  1.0000
  -4  -2  -2   57274    1041                                                       61489   -1.21    0.00  1.0000
  -4  -2  -2   56335    1539                                                       60515   -1.21    0.00  1.0000
  -4  -2  -3   15430     735                                                       13613   -1.05    0.00  1.0000
  -4  -2  -4   35608    1276                                                       37679   -0.75    0.00  1.0000
  -4  -2  -5   18896     904                                                       17896   -0.51    0.00  1.0000
   4   2   5   16833     804                                                       15890   -0.51    0.00  1.0000
  -4  -2  -6     953     115                                                         791   -0.38    0.00  1.0000
   4   2   6     959     204                                                         796   -0.38    0.00  1.0000
  -4  -2  -6     798     111                                                         650   -0.38    0.00  1.0000
  -4  -2  -6     826     103                                                         675   -0.38    0.00  1.0000
  -4  -2  -7     448     107                                                         525   -0.24    0.00  1.0000
  -4  -2  -7     493     110                                                         574   -0.24    0.00  1.0000
  -4  -2  -7     351      88                                                         419   -0.24    0.00  1.0000
  -4  -2  -8    2528     217                                                        2488   -0.06    0.00  1.0000
  -4  -2  -8    2738     245                                                        2697   -0.06    0.00  1.0000
  -4  -2  -8    2656     200                                                        2615   -0.06    0.00  1.0000
  -4  -2  -9       0      63                                                          -8    0.06    0.00  1.0000
  -4  -2  -9       0      56                                                         -10    0.06    0.00  1.0000
  -4  -2 -10    1179     136                                                        1190    0.02    0.00  1.0000
  -4  -2 -10    1416     164                                                        1427    0.02    0.00  1.0000
  -4  -2 -11    8477     322                                                        8537   -0.05    0.00  1.0000
  -4  -2 -12    1126      81                                                        1118   -0.02    0.00  1.0000
   4   3  -9    1561     101                                                        1476   -0.15    0.00  1.0000
   4   3  -8       6      44                                                          -7   -0.34    0.00  1.0000
   4   3  -7    2280     176                                                        1978   -0.46    0.00  1.0000
   4   3  -6    7362     346                                                        7903   -0.43    0.00  1.0000
   4   3  -5    2337     205                                                        2102   -0.35    0.00  1.0000
   4   3  -5    2233     176                                                        2003   -0.35    0.00  1.0000
   4   3  -4    4980     299                                                        5337   -0.35    0.00  1.0000
   4   3  -4    5055     271                                                        5415   -0.35    0.00  1.0000
  -4  -3   4    4430     667                                                        4767   -0.35    0.00  1.0000
   4   3  -3   17461     452                                                       18266   -0.42    0.00  1.0000
  -4  -3   3   17543    1204                                                       18350   -0.42    0.00  1.0000
  -4  -3   2   11942     883                                                       11285   -0.43    0.00  1.0000
  -4  -3   1    7519     679                                                        7871   -0.28    0.00  1.0000
  -4  -3   1    8016     716                                                        8379   -0.28    0.00  1.0000
  -4  -3   0   18316     960                                                       18273   -0.02    0.00  1.0000
  -4  -3  -1   16446     852                                                       15914    0.29    0.00  1.0000
  -4  -3  -2    3430     421                                                        3969    0.62    0.00  1.0000
  -4  -3  -3      39      58                                                         -11    0.87    0.00  1.0000
  -4  -3  -4   60242    1600                                                       56956    0.95    0.00  1.0000
  -4  -3  -5   55744    1726                                                       58751    0.88    0.00  1.0000
   4   3   5   59586    1677                                                       62693    0.88    0.00  1.0000
  -4  -3  -6   14544     444                                                       13270    0.75    0.00  1.0000
   4   3   6   13803     806                                                       12562    0.75    0.00  1.0000
  -4  -3  -7   13039     501                                                       14055    0.61    0.00  1.0000
  -4  -3  -7   12735     515                                                       13739    0.61    0.00  1.0000
  -4  -3  -8    3364     258                                                        3027    0.42    0.00  1.0000
  -4  -3  -8    3113     235                                                        2788    0.42    0.00  1.0000
  -4  -3  -9    4848     311                                                        5076    0.22    0.00  1.0000
  -4  -3  -9    4996     329                                                        5227    0.22    0.00  1.0000
  -4  -3 -10     159      69                                                         136    0.13    0.00  1.0000
  -4  -3 -11    5548     275                                                        5416    0.12    0.00  1.0000
  -4  -3 -12    2067     133                                                        2126    0.09    0.00  1.0000
   4   4  -8     132      51                                                         173    0.23    0.00  1.0000
   4   4  -7     147      69                                                         221    0.38    0.00  1.0000
   4   4  -6    2489     181                                                        2186    0.44    0.00  1.0000
   4   4  -5    1881     214                                                        2125    0.38    0.00  1.0000
   4   4  -5    1918     186                                                        2165    0.38    0.00  1.0000
   4   4  -4   14451     509                                                       13864    0.34    0.00  1.0000
   4   4  -4   14779     452                                                       14185    0.34    0.00  1.0000
   4   4  -3    1635     182                                                        1893    0.43    0.00  1.0000
  -4  -4   3    1627     399                                                        1884    0.43    0.00  1.0000
   4   4  -3    1825     169                                                        2097    0.43    0.00  1.0000
  -4  -4   2    2586     438                                                        2198    0.55    0.00  1.0000
  -4  -4   2    3038     449                                                        2616    0.55    0.00  1.0000
   4   4  -2    3273     178                                                        2834    0.55    0.00  1.0000
  -4  -4   1      44     116                                                         116    0.58    0.00  1.0000
  -4  -4   0   28449    1305                                                       29651    0.49    0.00  1.0000
  -4  -4  -1   25857    1137                                                       25068    0.34    0.00  1.0000
  -4  -4  -2    2969     394                                                        3090    0.15    0.00  1.0000
  -4  -4  -3   26899    1133                                                       27153   -0.11    0.00  1.0000
  -4  -4  -4     165     109                                                         101   -0.39    0.00  1.0000
  -4  -4  -5    3691     416                                                        3205   -0.58    0.00  1.0000
   4   4   6   21782    1131                                                       23150   -0.64    0.00  1.0000
  -4  -4  -6   20732     547                                                       22067   -0.64    0.00  1.0000
  -4  -4  -7   35100     685                                                       33517   -0.60    0.00  1.0000
  -4  -4  -7   33586     789                                                       32037   -0.60    0.00  1.0000
  -4  -4  -8    3884     292                                                        4332   -0.49    0.00  1.0000
  -4  -4  -8    4186     314                                                        4651   -0.49    0.00  1.0000
  -4  -4  -9    8783     418                                                        8323   -0.35    0.00  1.0000
  -4  -4 -10    9258     424                                                        9591   -0.24    0.00  1.0000
  -4  -4 -11      64      50                                                          43   -0.20    0.00  1.0000
  -4  -4 -12    1018      97                                                         936   -0.18    0.00  1.0000
   4   5  -8     365      49                                                         352   -0.05    0.00  1.0000
   4   5  -7     371      68                                                         421   -0.17    0.00  1.0000
   4   5  -6       1      44                                                           1   -0.27    0.00  1.0000
   4   5  -5      49      62                                                          25   -0.28    0.00  1.0000
   4   5  -5       4      63                                                         -38   -0.28    0.00  1.0000
   4   5  -4    9007     436                                                        9348   -0.25    0.00  1.0000
   4   5  -4    9381     374                                                        9729   -0.25    0.00  1.0000
   4   5  -3    6711     350                                                        6353   -0.31    0.00  1.0000
  -4  -5   3    6114     692                                                        5772   -0.31    0.00  1.0000
   4   5  -3    6500     292                                                        6147   -0.31    0.00  1.0000
   4   5  -2   11787     449                                                       12543   -0.48    0.00  1.0000
   4   5  -2   11340     382                                                       12082   -0.48    0.00  1.0000
  -4  -5   1   12859     913                                                       11882   -0.61    0.00  1.0000
   4   5  -1   13889     374                                                       12873   -0.61    0.00  1.0000
  -4  -5   0     119      95                                                          44   -0.60    0.00  1.0000
  -4  -5  -1   14902     958                                                       15776   -0.49    0.00  1.0000
  -4  -5  -2   34584    1347                                                       33539   -0.39    0.00  1.0000
  -4  -5  -3  169588    2997                                                      171410   -0.31    0.00  1.0000
  -4  -5  -4   43917    1495                                                       43407   -0.17    0.00  1.0000
  -4  -5  -5   10127     741                                                       10119    0.01    0.00  1.0000
  -4  -5  -6    1898     351                                                        1988    0.14    0.00  1.0000
  -4  -5  -6    1867     181                                                        1956    0.14    0.00  1.0000
   4   5   6    2003     360                                                        2095    0.14    0.00  1.0000
   4   5   7    1365     290                                                        1264    0.19    0.00  1.0000
  -4  -5  -7     956     130                                                         872    0.19    0.00  1.0000
  -4  -5  -7     921     142                                                         838    0.19    0.00  1.0000
  -4  -5  -8   14932     495                                                       15245    0.18    0.00  1.0000
  -4  -5  -8   15123     558                                                       15438    0.18    0.00  1.0000
  -4  -5  -9    3718     228                                                        3828    0.12    0.00  1.0000
  -4  -5  -9    3955     283                                                        4068    0.12    0.00  1.0000
  -4  -5 -10   23822     648                                                       23654    0.08    0.00  1.0000
  -4  -5 -11    9823     380                                                        9923    0.07    0.00  1.0000
  -4  -5 -12    1157     107                                                        1112    0.09    0.00  1.0000
   4   6  -6      37      41                                                          52    0.16    0.00  1.0000
   4   6  -5     421     111                                                         369    0.18    0.00  1.0000
   4   6  -5     560      89                                                         499    0.18    0.00  1.0000
   4   6  -4     271      94                                                         242    0.13    0.00  1.0000
   4   6  -4     319      82                                                         287    0.13    0.00  1.0000
   4   6  -3       0      64                                                         -54    0.08    0.00  1.0000
   4   6  -3      13      58                                                          18    0.08    0.00  1.0000
   4   6  -2    1238     158                                                        1157    0.16    0.00  1.0000
   4   6  -2    1421     137                                                        1334    0.16    0.00  1.0000
   4   6  -1    8726     399                                                        9175    0.33    0.00  1.0000
  -4  -6   1    8870     813                                                        9322    0.33    0.00  1.0000
   4   6  -1    8655     326                                                        9101    0.33    0.00  1.0000
   4   6   0    6100     288                                                        5630    0.43    0.00  1.0000
  -4  -6   0    5555     590                                                        5107    0.43    0.00  1.0000
   4   6   0    6208     245                                                        5734    0.43    0.00  1.0000
  -4  -6  -1    1935     375                                                        2183    0.38    0.00  1.0000
   4   6   2   12105     369                                                       11662    0.28    0.00  1.0000
  -4  -6  -2   11953     822                                                       11512    0.28    0.00  1.0000
  -4  -6  -3    4628     502                                                        4392    0.24    0.00  1.0000
   4   6   3    4734     220                                                        4495    0.24    0.00  1.0000
  -4  -6  -4     580     208                                                         671    0.25    0.00  1.0000
  -4  -6  -4     562      95                                                         653    0.25    0.00  1.0000
  -4  -6  -5   18547     530                                                       18078    0.24    0.00  1.0000
  -4  -6  -5   18590    1001                                                       18120    0.24    0.00  1.0000
   4   6   6   29018    1360                                                       29493    0.19    0.00  1.0000
  -4  -6  -6   28746    1318                                                       29219    0.19    0.00  1.0000
  -4  -6  -6   28734     733                                                       29206    0.19    0.00  1.0000
  -4  -6  -7    1656     193                                                        1570    0.15    0.00  1.0000
   4   6   7    1813     356                                                        1723    0.15    0.00  1.0000
  -4  -6  -8   12521     482                                                       12731    0.13    0.00  1.0000
  -4  -6  -8   11652     466                                                       11856    0.13    0.00  1.0000
  -4  -6  -9    1096     142                                                        1159    0.13    0.00  1.0000
  -4  -6  -9    1109     153                                                        1172    0.13    0.00  1.0000
  -4  -6 -10    7578     295                                                        7418    0.13    0.00  1.0000
  -4  -6 -10    7712     352                                                        7551    0.13    0.00  1.0000
  -4  -6 -11   11918     399                                                       12093    0.11    0.00  1.0000
  -4  -6 -12    9055     278                                                        8965    0.07    0.00  1.0000
   4   7  -6     625      62                                                         574   -0.15    0.00  1.0000
   4   7  -5    1946     180                                                        2075   -0.20    0.00  1.0000
   4   7  -5    1754     115                                                        1877   -0.20    0.00  1.0000
   4   7  -4     235      79                                                         200   -0.17    0.00  1.0000
   4   7  -4     252      53                                                         215   -0.17    0.00  1.0000
   4   7  -3     410     116                                                         427   -0.06    0.00  1.0000
   4   7  -3     355      75                                                         371   -0.06    0.00  1.0000
   4   7  -2       0      74                                                        -141    0.02    0.00  1.0000
   4   7  -2      21      44                                                          22    0.02    0.00  1.0000
   4   7  -1    2716     233                                                        2701   -0.02    0.00  1.0000
   4   7  -1    2560     176                                                        2545   -0.02    0.00  1.0000
   4   7   0    8209     391                                                        8397   -0.14    0.00  1.0000
   4   7   0    8396     303                                                        8587   -0.14    0.00  1.0000
   4   7   1    7685     279                                                        7417   -0.21    0.00  1.0000
  -4  -7  -1    6813     653                                                        6560   -0.21    0.00  1.0000
   4   7   1    7743     340                                                        7474   -0.21    0.00  1.0000
  -4  -7  -2   34750     652                                                       35237   -0.18    0.00  1.0000
   4   7   2   33923     697                                                       34405   -0.18    0.00  1.0000
  -4  -7  -3    1635     295                                                        1566   -0.12    0.00  1.0000
  -4  -7  -3    1678     151                                                        1608   -0.12    0.00  1.0000
   4   7   3    1793     154                                                        1720   -0.12    0.00  1.0000
  -4  -7  -4    1037     275                                                        1087   -0.11    0.00  1.0000
  -4  -7  -4     654     107                                                         694   -0.11    0.00  1.0000
  -4  -7  -5    4967     534                                                        5099   -0.13    0.00  1.0000
  -4  -7  -5    5282     301                                                        5418   -0.13    0.00  1.0000
  -4  -7  -6   13283     493                                                       13051   -0.14    0.00  1.0000
  -4  -7  -6   13050     869                                                       12819   -0.14    0.00  1.0000
  -4  -7  -7     112      74                                                          93   -0.14    0.00  1.0000
  -4  -7  -8   33422     791                                                       33080   -0.13    0.00  1.0000
  -4  -7  -9   16848     532                                                       17090   -0.13    0.00  1.0000
  -4  -7  -9   16159     489                                                       16396   -0.13    0.00  1.0000
  -4  -7 -10    4582     242                                                        4462   -0.12    0.00  1.0000
  -4  -7 -10    4414     244                                                        4296   -0.12    0.00  1.0000
  -4  -7 -11     692      80                                                         651   -0.11    0.00  1.0000
  -4  -7 -11     677      87                                                         636   -0.11    0.00  1.0000
  -4  -7 -12    2847     140                                                        2915   -0.09    0.00  1.0000
   4   8  -4      46      60                                                          67    0.19    0.00  1.0000
   4   8  -3     914     131                                                         834    0.19    0.00  1.0000
   4   8  -2    1619     190                                                        1690    0.12    0.00  1.0000
   4   8  -1     367      97                                                         348    0.07    0.00  1.0000
   4   8  -1     335      86                                                         316    0.07    0.00  1.0000
   4   8   0     211      81                                                         188    0.11    0.00  1.0000
   4   8   0     121      57                                                         104    0.11    0.00  1.0000
   4   8   1      69      51                                                          95    0.20    0.00  1.0000
   4   8   1      97      57                                                         126    0.20    0.00  1.0000
   4   8   2   16540     509                                                       16129    0.22    0.00  1.0000
  -4  -8  -3    6290     294                                                        6474    0.16    0.00  1.0000
   4   8   3    6190     315                                                        6372    0.16    0.00  1.0000
  -4  -8  -4    9076     367                                                        8995    0.06    0.00  1.0000
   4   8   4    9108     364                                                        9026    0.06    0.00  1.0000
  -4  -8  -5    4044     260                                                        4025   -0.02    0.00  1.0000
  -4  -8  -6      44      51                                                          38   -0.07    0.00  1.0000
  -4  -8  -7   14223     516                                                       14068   -0.09    0.00  1.0000
  -4  -8  -8    8078     382                                                        7979   -0.08    0.00  1.0000
  -4  -8  -9   14601     487                                                       14666   -0.04    0.00  1.0000
  -4  -8 -10   23367     548                                                       23370    0.00    0.00  1.0000
  -4  -8 -11   11627     312                                                       11595    0.02    0.00  1.0000
   4   9  -3      18      48                                                          28   -0.15    0.00  1.0000
   4   9  -2     244      77                                                         199   -0.21    0.00  1.0000
   4   9  -1     958     154                                                        1061   -0.23    0.00  1.0000
   4   9   0    1076     151                                                         969   -0.23    0.00  1.0000
   4   9   1    3912     285                                                        4162   -0.27    0.00  1.0000
   4   9   1    3569     260                                                        3808   -0.27    0.00  1.0000
   4   9   2      60      49                                                          99   -0.30    0.00  1.0000
   4   9   3       3      48                                                         -43   -0.25    0.00  1.0000
  -4  -9  -4    2912     205                                                        2999   -0.11    0.00  1.0000
   4   9   4    2699     213                                                        2783   -0.11    0.00  1.0000
  -4  -9  -5    9260     375                                                        9325    0.05    0.00  1.0000
  -4  -9  -6     146      69                                                         118    0.17    0.00  1.0000
  -4  -9  -7   15971     526                                                       16404    0.24    0.00  1.0000
  -4  -9  -8     323      92                                                         383    0.22    0.00  1.0000
  -4  -9  -9    1128     128                                                        1059    0.14    0.00  1.0000
  -4  -9 -10    6893     284                                                        6952    0.05    0.00  1.0000
  -4  -9 -11    7757     242                                                        7773   -0.01    0.00  1.0000
   4  10  -2     162      58                                                         181    0.10    0.00  1.0000
   4  10  -1     438      86                                                         397    0.14    0.00  1.0000
   4  10   0     222      83                                                         253    0.14    0.00  1.0000
   4  10   1    2157     198                                                        2060    0.15    0.00  1.0000
   4  10   2     458     108                                                         509    0.16    0.00  1.0000
   4  10   3     234      50                                                         204    0.14    0.00  1.0000
   4  10   4     341      68                                                         325    0.06    0.00  1.0000
  -4 -10  -5    4348     227                                                        4293   -0.06    0.00  1.0000
  -4 -10  -6      96      41                                                          74   -0.16    0.00  1.0000
  -4 -10  -7   18286     492                                                       17857   -0.22    0.00  1.0000
  -4 -10  -8   11754     397                                                       12083   -0.21    0.00  1.0000
  -4 -10  -9   11938     367                                                       11733   -0.13    0.00  1.0000
   4  10   9   12694     344                                                       12483   -0.13    0.00  1.0000
  -4 -10 -10    1139     105                                                        1151   -0.02    0.00  1.0000
   4  10  10    1112      89                                                        1124   -0.02    0.00  1.0000
  -4 -10 -11    1507      93                                                        1477    0.05    0.00  1.0000
   4  11   0      57      42                                                          51    0.05    0.00  1.0000
   4  11   1     644     101                                                         605    0.11    0.00  1.0000
   4  11   2     677     113                                                         724    0.12    0.00  1.0000
   4  11   3    1370     147                                                        1311    0.11    0.00  1.0000
   4  11   4    1627     169                                                        1695    0.12    0.00  1.0000
   4  11   4    1486     117                                                        1551    0.12    0.00  1.0000
   4  11   5       1      47                                                         -39    0.14    0.00  1.0000
  -4 -11  -6    3674     179                                                        3816    0.16    0.00  1.0000
   4  11   6    4000     207                                                        4149    0.16    0.00  1.0000
  -4 -11  -7    1766     132                                                        1865    0.16    0.00  1.0000
   4  11   7    1987     148                                                        2092    0.16    0.00  1.0000
  -4 -11  -8    1538     115                                                        1462    0.14    0.00  1.0000
   4  11   8    1570     120                                                        1493    0.14    0.00  1.0000
  -4 -11  -9    4710     190                                                        4793    0.08    0.00  1.0000
   4  11   9    5459     197                                                        5548    0.08    0.00  1.0000
  -4 -11 -10    6149     182                                                        6132    0.02    0.00  1.0000
   4  11  10    6510     170                                                        6492    0.02    0.00  1.0000
   4  12   2       6      31                                                          16   -0.22    0.00  1.0000
   4  12   3     227      59                                                         277   -0.22    0.00  1.0000
   4  12   4    1082     104                                                         991   -0.20    0.00  1.0000
   4  12   5      25      41                                                          39   -0.18    0.00  1.0000
   4  12   5      71      32                                                          94   -0.18    0.00  1.0000
   4  12   6    5178     214                                                        5023   -0.15    0.00  1.0000
   4  12   6    4505     166                                                        4360   -0.15    0.00  1.0000
   4  12   7     786      76                                                         833   -0.11    0.00  1.0000
   4  12   8     465      54                                                         440   -0.08    0.00  1.0000
  -5   9   5     259      36                                                         223   -0.16    0.00  1.0000
  -5   9   4       2      33                                                         -39   -0.18    0.00  1.0000
  -5   9   3     403      56                                                         443   -0.14    0.00  1.0000
  -5   9   2     631      62                                                         612   -0.05    0.00  1.0000
  -5   9   1      93      27                                                          92    0.01    0.00  1.0000
  -5   8   7    7553     214                                                        7586    0.03    0.00  1.0000
  -5   8   6    1741     118                                                        1731    0.02    0.00  1.0000
  -5   8   5    2052     139                                                        2072    0.03    0.00  1.0000
  -5   8   4     972     101                                                         925    0.11    0.00  1.0000
  -5   8   3     206      60                                                         243    0.17    0.00  1.0000
  -5   8   2      28      38                                                          40    0.15    0.00  1.0000
  -5   8   1       0      48                                                         -60    0.03    0.00  1.0000
  -5   8   0     944      94                                                         910   -0.08    0.00  1.0000
   5  -7  -8    4854     172                                                        4820   -0.03    0.00  1.0000
   5  -7  -7    1074      94                                                        1107   -0.07    0.00  1.0000
   5  -7  -6    3288     163                                                        3260   -0.03    0.00  1.0000
  -5   7   5     987     116                                                        1010    0.05    0.00  1.0000
  -5   7   4    4317     237                                                        4249    0.07    0.00  1.0000
  -5   7   3    3907     229                                                        3902   -0.01    0.00  1.0000
  -5   7   2     224      70                                                         240   -0.07    0.00  1.0000
  -5   7   1     208      67                                                         201   -0.03    0.00  1.0000
  -5   7   0     147      59                                                         161    0.07    0.00  1.0000
  -5   7  -1      31      50                                                          19    0.16    0.00  1.0000
  -5   7  -2     741      98                                                         804    0.16    0.00  1.0000
  -5   7  -2     336      58                                                         379    0.16    0.00  1.0000
  -5   7  -3     665      71                                                         636    0.08    0.00  1.0000
   5  -6  -9    6021     195                                                        6005    0.01    0.00  1.0000
  -5   6   8   10200     310                                                       10239    0.03    0.00  1.0000
  -5   6   7      43      37                                                          35    0.09    0.00  1.0000
  -5   6   6      23      44                                                          33    0.14    0.00  1.0000
  -5   6   5    5719     250                                                        5798    0.07    0.00  1.0000
  -5   6   4    3475     193                                                        3509   -0.04    0.00  1.0000
  -5   6   3    4377     255                                                        4300   -0.08    0.00  1.0000
  -5   6   2    3309     226                                                        3344   -0.04    0.00  1.0000
  -5   6   1    6947     324                                                        6916   -0.03    0.00  1.0000
  -5   6   0    4306     256                                                        4375   -0.07    0.00  1.0000
  -5   6  -1    2600     193                                                        2514   -0.12    0.00  1.0000
  -5   6  -1    2402     185                                                        2319   -0.12    0.00  1.0000
  -5   6  -1    2224     178                                                        2144   -0.12    0.00  1.0000
  -5   6  -2     154      65                                                         174   -0.10    0.00  1.0000
  -5   6  -2     201      61                                                         223   -0.10    0.00  1.0000
  -5   6  -2     273      73                                                         298   -0.10    0.00  1.0000
  -5   6  -2     257      61                                                         282   -0.10    0.00  1.0000
  -5   6  -3     763      94                                                         774   -0.03    0.00  1.0000
  -5   6  -3     661     102                                                         670   -0.03    0.00  1.0000
  -5   6  -3     641      91                                                         650   -0.03    0.00  1.0000
  -5   6  -4       7      35                                                          10    0.09    0.00  1.0000
  -5   6  -4       1      34                                                           3    0.09    0.00  1.0000
  -5   6  -5    1024      78                                                         935    0.20    0.00  1.0000
  -5   5   9      44      37                                                          60   -0.16    0.00  1.0000
  -5   5   8    6535     275                                                        6434   -0.09    0.00  1.0000
  -5   5   7     966     120                                                         986   -0.05    0.00  1.0000
  -5   5   6   20664     540                                                       20496   -0.08    0.00  1.0000
  -5   5   6   21446     524                                                       21276   -0.08    0.00  1.0000
  -5   5   5   12924     422                                                       13104   -0.11    0.00  1.0000
  -5   5   5   14089     440                                                       14278   -0.11    0.00  1.0000
  -5   5   4    9275     341                                                        9194   -0.06    0.00  1.0000
  -5   5   3     440      79                                                         435    0.02    0.00  1.0000
  -5   5   2      86      45                                                          82    0.03    0.00  1.0000
  -5   5   1     261      76                                                         265    0.02    0.00  1.0000
  -5   5   1     355      89                                                         359    0.02    0.00  1.0000
  -5   5   0    2742     203                                                        2719    0.03    0.00  1.0000
  -5   5   0    3115     233                                                        3091    0.03    0.00  1.0000
  -5   5  -1    5931     298                                                        5990    0.05    0.00  1.0000
  -5   5  -1    6162     319                                                        6222    0.05    0.00  1.0000
  -5   5  -2    4396     257                                                        4361    0.04    0.00  1.0000
  -5   5  -2    4288     263                                                        4254    0.04    0.00  1.0000
  -5   5  -2    4114     263                                                        4080    0.04    0.00  1.0000
  -5   5  -2    3925     253                                                        3892    0.04    0.00  1.0000
  -5   5  -3      69      50                                                          70   -0.01    0.00  1.0000
  -5   5  -3      36      47                                                          37   -0.01    0.00  1.0000
  -5   5  -3     113      63                                                         114   -0.01    0.00  1.0000
  -5   5  -3      93      65                                                          95   -0.01    0.00  1.0000
  -5   5  -4     509      86                                                         530   -0.06    0.00  1.0000
  -5   5  -4     516      98                                                         537   -0.06    0.00  1.0000
  -5   5  -4     462      94                                                         481   -0.06    0.00  1.0000
  -5   5  -5     749      82                                                         800   -0.13    0.00  1.0000
  -5   5  -5     915     115                                                         971   -0.13    0.00  1.0000
  -5   5  -5     808     105                                                         861   -0.13    0.00  1.0000
  -5   5  -6     241      48                                                         203   -0.18    0.00  1.0000
  -5   4  10    7547     207                                                        7331    0.17    0.00  1.0000
  -5   4   9    6399     260                                                        6690    0.25    0.00  1.0000
  -5   4   8      73      57                                                         100    0.21    0.00  1.0000
  -5   4   7    1071     139                                                        1105    0.07    0.00  1.0000
  -5   4   7    1088     132                                                        1123    0.07    0.00  1.0000
  -5   4   6    9766     393                                                        9723   -0.03    0.00  1.0000
  -5   4   6   10059     387                                                       10015   -0.03    0.00  1.0000
  -5   4   5    7711     343                                                        7767   -0.04    0.00  1.0000
  -5   4   5    7760     340                                                        7816   -0.04    0.00  1.0000
  -5   4   4   11848     399                                                       11800   -0.03    0.00  1.0000
  -5   4   4   12423     409                                                       12374   -0.03    0.00  1.0000
  -5   4   3   18044     482                                                       18104   -0.03    0.00  1.0000
  -5   4   2    8947     755                                                        8935   -0.01    0.00  1.0000
  -5   4   2    8825     326                                                        8813   -0.01    0.00  1.0000
  -5   4   1    7369     321                                                        7317    0.04    0.00  1.0000
  -5   4   1    7239     340                                                        7187    0.04    0.00  1.0000
  -5   4   1    7455     701                                                        7403    0.04    0.00  1.0000
  -5   4   1    6881     282                                                        6831    0.04    0.00  1.0000
  -5   4   0     114      54                                                         104    0.07    0.00  1.0000
  -5   4   0     193      73                                                         180    0.07    0.00  1.0000
  -5   4   0     117      48                                                         107    0.07    0.00  1.0000
  -5   4  -1    2207     185                                                        2237    0.04    0.00  1.0000
  -5   4  -1    1998     192                                                        2026    0.04    0.00  1.0000
  -5   4  -2    3901     242                                                        3881    0.02    0.00  1.0000
  -5   4  -2    4149     269                                                        4128    0.02    0.00  1.0000
  -5   4  -2    3551     252                                                        3531    0.02    0.00  1.0000
  -5   4  -2    3709     262                                                        3689    0.02    0.00  1.0000
  -5   4  -3      75      61                                                          78    0.02    0.00  1.0000
  -5   4  -3      20      75                                                          21    0.02    0.00  1.0000
  -5   4  -3     169      78                                                         173    0.02    0.00  1.0000
  -5   4  -3      49      66                                                          52    0.02    0.00  1.0000
  -5   4  -4    5700     287                                                        5699    0.00    0.00  1.0000
  -5   4  -4    5842     298                                                        5842    0.00    0.00  1.0000
  -5   4  -4    5676     318                                                        5675    0.00    0.00  1.0000
  -5   4  -4    5577     328                                                        5577    0.00    0.00  1.0000
  -5   4  -5     368      74                                                         360   -0.03    0.00  1.0000
  -5   4  -5     291      83                                                         284   -0.03    0.00  1.0000
  -5   4  -5     359      93                                                         351   -0.03    0.00  1.0000
  -5   4  -6      11      36                                                          12   -0.01    0.00  1.0000
  -5   4  -6      34      43                                                          35   -0.01    0.00  1.0000
  -5   4  -7      85      38                                                          78    0.05    0.00  1.0000
  -5   3  10    2499     124                                                        2487    0.02    0.00  1.0000
  -5   3   9   10932     341                                                       10816   -0.08    0.00  1.0000
  -5   3   8    2305     190                                                        2409   -0.15    0.00  1.0000
  -5   3   7   11078     418                                                       10913   -0.11    0.00  1.0000
  -5   3   7   11793     408                                                       11623   -0.11    0.00  1.0000
  -5   3   6      60      57                                                          58    0.02    0.00  1.0000
  -5   3   6      77      62                                                          75    0.02    0.00  1.0000
  -5   3   5       1      56                                                          -6    0.12    0.00  1.0000
  -5   3   5       3      53                                                           6    0.12    0.00  1.0000
  -5   3   4     131      63                                                         158    0.15    0.00  1.0000
  -5   3   4     157      67                                                         186    0.15    0.00  1.0000
  -5   3   3    4619     554                                                        4492    0.13    0.00  1.0000
  -5   3   3    4209     223                                                        4088    0.13    0.00  1.0000
  -5   3   3    4241     235                                                        4120    0.13    0.00  1.0000
  -5   3   2     401      87                                                         385    0.06    0.00  1.0000
  -5   3   2     302     158                                                         287    0.06    0.00  1.0000
  -5   3   2     396      86                                                         379    0.06    0.00  1.0000
  -5   3   1   11836     419                                                       11914   -0.05    0.00  1.0000
  -5   3   1   11804     369                                                       11881   -0.05    0.00  1.0000
  -5   3   0   12684     390                                                       12468   -0.13    0.00  1.0000
  -5   3   0   12217     431                                                       12005   -0.13    0.00  1.0000
  -5   3   0   12901     884                                                       12682   -0.13    0.00  1.0000
  -5   3  -1    3861     228                                                        3980   -0.13    0.00  1.0000
  -5   3  -1    3817     250                                                        3936   -0.13    0.00  1.0000
  -5   3  -2    4244     240                                                        4312   -0.07    0.00  1.0000
  -5   3  -2    4580     280                                                        4651   -0.07    0.00  1.0000
  -5   3  -2    4053     258                                                        4120   -0.07    0.00  1.0000
  -5   3  -2    4412     280                                                        4482   -0.07    0.00  1.0000
  -5   3  -3    7144     313                                                        7118   -0.02    0.00  1.0000
  -5   3  -3    7648     374                                                        7621   -0.02    0.00  1.0000
  -5   3  -3    7194     356                                                        7168   -0.02    0.00  1.0000
  -5   3  -3    7096     386                                                        7070   -0.02    0.00  1.0000
  -5   3  -4   22733     562                                                       22686    0.02    0.00  1.0000
  -5   3  -4   23588     635                                                       23541    0.02    0.00  1.0000
  -5   3  -4   22521     640                                                       22475    0.02    0.00  1.0000
  -5   3  -4   22202     672                                                       22156    0.02    0.00  1.0000
  -5   3  -5    6030     318                                                        6127    0.09    0.00  1.0000
  -5   3  -5    6039     337                                                        6136    0.09    0.00  1.0000
  -5   3  -5    6018     339                                                        6115    0.09    0.00  1.0000
  -5   3  -6    1369     141                                                        1300    0.13    0.00  1.0000
  -5   3  -6    1219     149                                                        1155    0.13    0.00  1.0000
  -5   3  -7     142      49                                                         157    0.08    0.00  1.0000
  -5   3  -7     186      61                                                         203    0.08    0.00  1.0000
  -5   3  -8     159      46                                                         155   -0.02    0.00  1.0000
  -5   2  10     196      36                                                         180   -0.08    0.00  1.0000
  -5   2   9    2688     170                                                        2621   -0.09    0.00  1.0000
  -5   2   8     677     110                                                         687   -0.03    0.00  1.0000
  -5   2   7   12937     461                                                       13020    0.05    0.00  1.0000
  -5   2   7   13476     434                                                       13561    0.05    0.00  1.0000
  -5   2   6   11503     435                                                       11423    0.05    0.00  1.0000
  -5   2   6   12197     435                                                       12114    0.05    0.00  1.0000
  -5   2   5   12384     444                                                       12333   -0.03    0.00  1.0000
  -5   2   5   11709     422                                                       11659   -0.03    0.00  1.0000
  -5   2   4   15237    1010                                                       15468   -0.13    0.00  1.0000
  -5   2   4   14115     442                                                       14337   -0.13    0.00  1.0000
  -5   2   3     454      97                                                         509   -0.18    0.00  1.0000
  -5   2   3     968     261                                                        1048   -0.18    0.00  1.0000
  -5   2   2     502      88                                                         549   -0.14    0.00  1.0000
  -5   2   2     328     157                                                         367   -0.14    0.00  1.0000
  -5   2   2     443      85                                                         487   -0.14    0.00  1.0000
  -5   2   1   37828     697                                                       37933   -0.04    0.00  1.0000
  -5   2   1   39004    1458                                                       39109   -0.04    0.00  1.0000
  -5   2   0   46529     785                                                       46801    0.09    0.00  1.0000
  -5   2   0   46504    1573                                                       46776    0.09    0.00  1.0000
  -5   2  -1   20863     461                                                       20568    0.14    0.00  1.0000
  -5   2  -1   20963     546                                                       20668    0.14    0.00  1.0000
  -5   2  -2    6336     268                                                        6452    0.10    0.00  1.0000
  -5   2  -2    5825     308                                                        5936    0.10    0.00  1.0000
  -5   2  -2    6547     314                                                        6664    0.10    0.00  1.0000
  -5   2  -3    8723     324                                                        8681    0.03    0.00  1.0000
  -5   2  -3    7970     356                                                        7931    0.03    0.00  1.0000
  -5   2  -3    8857     405                                                        8816    0.03    0.00  1.0000
  -5   2  -3    8692     394                                                        8651    0.03    0.00  1.0000
  -5   2  -4     249      63                                                         248    0.00    0.00  1.0000
  -5   2  -4     328      83                                                         327    0.00    0.00  1.0000
  -5   2  -4     396      99                                                         395    0.00    0.00  1.0000
  -5   2  -4     331     102                                                         330    0.00    0.00  1.0000
  -5   2  -5     379      97                                                         372   -0.02    0.00  1.0000
  -5   2  -5     535     117                                                         527   -0.02    0.00  1.0000
  -5   2  -5     456     107                                                         449   -0.02    0.00  1.0000
  -5   2  -6    3228     249                                                        3279   -0.06    0.00  1.0000
  -5   2  -6    2688     226                                                        2735   -0.06    0.00  1.0000
  -5   2  -7    2683     206                                                        2623   -0.08    0.00  1.0000
  -5   2  -7    2297     193                                                        2241   -0.08    0.00  1.0000
  -5   2  -8       0      40                                                         -21   -0.03    0.00  1.0000
  -5   2  -8       8      38                                                          10   -0.03    0.00  1.0000
  -5   1   9     213      54                                                         217   -0.02    0.00  1.0000
  -5   1   8     983     124                                                         992    0.02    0.00  1.0000
   5  -1  -7    1080     111                                                        1067   -0.03    0.00  1.0000
  -5   1   7    1216     142                                                        1202   -0.03    0.00  1.0000
  -5   1   6    4101     253                                                        4199   -0.10    0.00  1.0000
  -5   1   5    3670     233                                                        3583   -0.10    0.00  1.0000
  -5   1   4   22182    1199                                                       22151    0.01    0.00  1.0000
  -5   1   4   20722     524                                                       20692    0.01    0.00  1.0000
  -5   1   3    2178     168                                                        2291    0.17    0.00  1.0000
  -5   1   3    1897     357                                                        2002    0.17    0.00  1.0000
  -5   1   2   42044    1456                                                       41292    0.26    0.00  1.0000
  -5   1   2   41098     666                                                       40355    0.26    0.00  1.0000
  -5   1   1    3743     448                                                        3958    0.24    0.00  1.0000
  -5   1   0    2502     349                                                        2605    0.14    0.00  1.0000
  -5   1  -1   10271     693                                                       10232    0.03    0.00  1.0000
  -5   1  -2   36770    1348                                                       36679   -0.03    0.00  1.0000
  -5   1  -2   35944     732                                                       35854   -0.03    0.00  1.0000
  -5   1  -3   34711     762                                                       34803   -0.03    0.00  1.0000
  -5   1  -3   34662     729                                                       34753   -0.03    0.00  1.0000
  -5   1  -4   10372     410                                                       10325   -0.03    0.00  1.0000
  -5   1  -4   10791     447                                                       10743   -0.03    0.00  1.0000
  -5   1  -4   10699     431                                                       10651   -0.03    0.00  1.0000
  -5   1  -5     344      89                                                         359   -0.05    0.00  1.0000
  -5   1  -5     364     101                                                         379   -0.05    0.00  1.0000
  -5   1  -5     271      84                                                         284   -0.05    0.00  1.0000
  -5   1  -6    1265     171                                                        1297   -0.06    0.00  1.0000
  -5   1  -6    1185     158                                                        1217   -0.06    0.00  1.0000
  -5   1  -7    2168     211                                                        2147   -0.03    0.00  1.0000
  -5   1  -7    2122     196                                                        2101   -0.03    0.00  1.0000
  -5   1  -8     352      89                                                         349    0.01    0.00  1.0000
  -5   1  -8     244      70                                                         241    0.01    0.00  1.0000
  -5   1  -9    1964     146                                                        1980    0.03    0.00  1.0000
   5   0  -9    2470     122                                                        2375    0.14    0.00  1.0000
  -5   0   9    2438     137                                                        2343    0.14    0.00  1.0000
   5   0  -8    3082     176                                                        3147    0.08    0.00  1.0000
  -5   0   8    3241     206                                                        3308    0.08    0.00  1.0000
   5   0  -7    3265     198                                                        3214    0.06    0.00  1.0000
  -5   0   7    3162     223                                                        3112    0.06    0.00  1.0000
   5   0  -6    1017     124                                                        1072    0.12    0.00  1.0000
  -5   0   6     986     125                                                        1041    0.12    0.00  1.0000
   5   0  -5    1798     149                                                        1696    0.17    0.00  1.0000
  -5   0   5    1861     164                                                        1757    0.17    0.00  1.0000
  -5   0   4    5420     605                                                        5322    0.09    0.00  1.0000
   5   0  -4    5808     252                                                        5707    0.09    0.00  1.0000
  -5   0   4    5632     268                                                        5532    0.09    0.00  1.0000
  -5   0   4    6049     621                                                        5946    0.09    0.00  1.0000
  -5   0   3       1      51                                                          -6   -0.11    0.00  1.0000
  -5   0   3       1     105                                                          -3   -0.11    0.00  1.0000
  -5   0   2   48680    1575                                                       49717   -0.33    0.00  1.0000
  -5   0   2   52052    1621                                                       53124   -0.33    0.00  1.0000
  -5   0   1   62761    1626                                                       61196   -0.44    0.00  1.0000
  -5   0   1   58786    1555                                                       57272   -0.44    0.00  1.0000
  -5   0   0   17339     860                                                       18151   -0.43    0.00  1.0000
  -5   0   0   17791     860                                                       18614   -0.43    0.00  1.0000
  -5   0  -1    5069     406                                                        4745   -0.32    0.00  1.0000
  -5   0  -1    4985     443                                                        4664   -0.32    0.00  1.0000
  -5   0  -2   19479     882                                                       19116   -0.18    0.00  1.0000
  -5   0  -2   19228     820                                                       18867   -0.18    0.00  1.0000
  -5   0  -3   24868     609                                                       25003   -0.06    0.00  1.0000
  -5   0  -3   26457     602                                                       26597   -0.06    0.00  1.0000
  -5   0  -4   28088     697                                                       28129    0.02    0.00  1.0000
  -5   0  -4   28374     669                                                       28416    0.02    0.00  1.0000
  -5   0  -5   13961     519                                                       13859    0.06    0.00  1.0000
  -5   0  -5   13332     480                                                       13233    0.06    0.00  1.0000
  -5   0  -6     366     106                                                         390    0.08    0.00  1.0000
  -5   0  -6     475     111                                                         502    0.08    0.00  1.0000
  -5   0  -7     526     116                                                         553    0.08    0.00  1.0000
  -5   0  -7     516     109                                                         543    0.08    0.00  1.0000
  -5   0  -8      67      60                                                          62    0.04    0.00  1.0000
  -5   0  -8      15      59                                                          13    0.04    0.00  1.0000
  -5   0  -9     500      91                                                         494   -0.02    0.00  1.0000
  -5   0 -10     606      78                                                         625   -0.05    0.00  1.0000
   5   1  -9     181      42                                                         184   -0.01    0.00  1.0000
   5   1  -8    1159     113                                                        1157    0.00    0.00  1.0000
  -5  -1   8    1175     116                                                        1173    0.00    0.00  1.0000
   5   1  -7    6498     287                                                        6490    0.01    0.00  1.0000
   5   1  -6    3579     223                                                        3552   -0.03    0.00  1.0000
   5   1  -5    8211     338                                                        8351   -0.11    0.00  1.0000
  -5  -1   5    8528     333                                                        8671   -0.11    0.00  1.0000
  -5  -1   4     477     199                                                         444   -0.11    0.00  1.0000
  -5  -1   4     490     245                                                         456   -0.11    0.00  1.0000
   5   1  -4     895     109                                                         848   -0.11    0.00  1.0000
  -5  -1   4     779      97                                                         736   -0.11    0.00  1.0000
  -5  -1   3   11135     890                                                       11067    0.04    0.00  1.0000
   5   1  -3   11833     355                                                       11763    0.04    0.00  1.0000
  -5  -1   3   11270     793                                                       11202    0.04    0.00  1.0000
  -5  -1   3   11995     356                                                       11925    0.04    0.00  1.0000
  -5  -1   3   10515     848                                                       10449    0.04    0.00  1.0000
  -5  -1   2    9772     750                                                        9374    0.28    0.00  1.0000
  -5  -1   2   10504     680                                                       10091    0.28    0.00  1.0000
  -5  -1   1   58151    1769                                                       59742    0.46    0.00  1.0000
  -5  -1   1   61100    1568                                                       62730    0.46    0.00  1.0000
  -5  -1   0   31483    1037                                                       30224    0.50    0.00  1.0000
  -5  -1   0   30171    1179                                                       28938    0.50    0.00  1.0000
  -5  -1  -1   80940    1651                                                       82782    0.45    0.00  1.0000
  -5  -1  -1   80289    1889                                                       82123    0.45    0.00  1.0000
  -5  -1  -2   23653     978                                                       22899    0.34    0.00  1.0000
  -5  -1  -3   20558     950                                                       20994    0.21    0.00  1.0000
  -5  -1  -4     839     121                                                         880    0.10    0.00  1.0000
  -5  -1  -4     745     109                                                         783    0.10    0.00  1.0000
  -5  -1  -5   23357     650                                                       23252    0.05    0.00  1.0000
  -5  -1  -5   23936     620                                                       23830    0.05    0.00  1.0000
  -5  -1  -6    8297     419                                                        8365    0.05    0.00  1.0000
  -5  -1  -6    8608     389                                                        8677    0.05    0.00  1.0000
  -5  -1  -7    7655     409                                                        7592    0.05    0.00  1.0000
  -5  -1  -7    7458     360                                                        7395    0.05    0.00  1.0000
  -5  -1  -8    7954     409                                                        7984    0.02    0.00  1.0000
  -5  -1  -8    7767     354                                                        7797    0.02    0.00  1.0000
  -5  -1  -9    1729     177                                                        1732    0.00    0.00  1.0000
  -5  -1 -10       0      46                                                         -32   -0.02    0.00  1.0000
  -5  -1 -11     189      39                                                         185   -0.02    0.00  1.0000
   5   2  -9     172      36                                                         147   -0.14    0.00  1.0000
   5   2  -8    1279     115                                                        1353   -0.14    0.00  1.0000
  -5  -2   8    1084      99                                                        1152   -0.14    0.00  1.0000
   5   2  -7       1      55                                                         -35   -0.12    0.00  1.0000
   5   2  -6       3      54                                                           5   -0.07    0.00  1.0000
   5   2  -5    5314     282                                                        5316    0.00    0.00  1.0000
   5   2  -4    5436     278                                                        5491    0.05    0.00  1.0000
  -5  -2   4    5882     715                                                        5938    0.05    0.00  1.0000
  -5  -2   3   28604    1518                                                       28637   -0.01    0.00  1.0000
   5   2  -3   27898     582                                                       27930   -0.01    0.00  1.0000
  -5  -2   3   27503    1477                                                       27535   -0.01    0.00  1.0000
  -5  -2   2   11551     886                                                       11240   -0.20    0.00  1.0000
   5   2  -2   11933     352                                                       11617   -0.20    0.00  1.0000
  -5  -2   1     396     151                                                         296   -0.37    0.00  1.0000
  -5  -2   0     210     140                                                         302   -0.40    0.00  1.0000
  -5  -2  -1   70834    1871                                                       69582   -0.33    0.00  1.0000
  -5  -2  -2   27941    1168                                                       28553   -0.25    0.00  1.0000
  -5  -2  -3   27764    1142                                                       27272   -0.21    0.00  1.0000
  -5  -2  -4    2218     357                                                        2334   -0.17    0.00  1.0000
  -5  -2  -5   11000     439                                                       11256   -0.17    0.00  1.0000
  -5  -2  -5   11827     429                                                       12091   -0.17    0.00  1.0000
  -5  -2  -6    1315     156                                                        1203   -0.22    0.00  1.0000
  -5  -2  -6    1524     154                                                        1403   -0.22    0.00  1.0000
  -5  -2  -7    6882     395                                                        7197   -0.26    0.00  1.0000
  -5  -2  -8    6591     373                                                        6347   -0.21    0.00  1.0000
  -5  -2  -9    2738     234                                                        2798   -0.08    0.00  1.0000
  -5  -2 -10    1943     173                                                        1975    0.05    0.00  1.0000
  -5  -2 -11     567      73                                                         525    0.12    0.00  1.0000
   5   3  -8     663      77                                                         619    0.12    0.00  1.0000
  -5  -3   7       1      36                                                           0    0.08    0.00  1.0000
   5   3  -7      36      49                                                          29    0.08    0.00  1.0000
   5   3  -6       2      51                                                           2    0.03    0.00  1.0000
   5   3  -5     372      87                                                         374   -0.01    0.00  1.0000
   5   3  -4      48      58                                                          44   -0.05    0.00  1.0000
  -5  -3   3   13110    1061                                                       13178   -0.04    0.00  1.0000
   5   3  -3   12486     411                                                       12551   -0.04    0.00  1.0000
  -5  -3   3   11878    1037                                                       11943   -0.04    0.00  1.0000
  -5  -3   2   48212    1932                                                       48493    0.09    0.00  1.0000
   5   3  -2   48702     762                                                       48985    0.09    0.00  1.0000
  -5  -3   1   26738     531                                                       26100    0.27    0.00  1.0000
  -5  -3   1   25319    1306                                                       24698    0.27    0.00  1.0000
  -5  -3   0   32940    1449                                                       33830    0.34    0.00  1.0000
  -5  -3  -1    4366     523                                                        4592    0.24    0.00  1.0000
  -5  -3  -2    4238     482                                                        4149    0.10    0.00  1.0000
  -5  -3  -3   51909    1643                                                       52075    0.05    0.00  1.0000
  -5  -3  -4   75559    2011                                                       75211    0.09    0.00  1.0000
  -5  -3  -5    1361     136                                                        1442    0.15    0.00  1.0000
   5   3   5    1318     264                                                        1398    0.15    0.00  1.0000
  -5  -3  -5    1751     352                                                        1843    0.15    0.00  1.0000
  -5  -3  -5    1583     158                                                        1671    0.15    0.00  1.0000
  -5  -3  -6    4046     267                                                        3835    0.23    0.00  1.0000
  -5  -3  -7      51      53                                                          88    0.32    0.00  1.0000
  -5  -3  -8      75      70                                                          40    0.32    0.00  1.0000
  -5  -3  -9     218      79                                                         177    0.21    0.00  1.0000
  -5  -3 -10    5661     297                                                        5701    0.04    0.00  1.0000
  -5  -3 -11    2318     159                                                        2381   -0.09    0.00  1.0000
   5   4  -8     356      46                                                         352    0.02    0.00  1.0000
   5   4  -7     461      76                                                         473    0.04    0.00  1.0000
   5   4  -6    2258     174                                                        2203    0.08    0.00  1.0000
   5   4  -5    4101     249                                                        4190    0.10    0.00  1.0000
   5   4  -4    3135     229                                                        3054    0.10    0.00  1.0000
   5   4  -4    3740     237                                                        3651    0.10    0.00  1.0000
   5   4  -3      92      56                                                          76    0.12    0.00  1.0000
  -5  -4   2   14944    1106                                                       15100    0.09    0.00  1.0000
   5   4  -2   14670     441                                                       14825    0.09    0.00  1.0000
  -5  -4   1   10911     355                                                       10991   -0.05    0.00  1.0000
  -5  -4   1   10819     898                                                       10898   -0.05    0.00  1.0000
  -5  -4   0   44132     685                                                       43533   -0.20    0.00  1.0000
  -5  -4   0   43299    1706                                                       42705   -0.20    0.00  1.0000
  -5  -4   0   43933     713                                                       43335   -0.20    0.00  1.0000
  -5  -4  -1   10602     829                                                       10892   -0.20    0.00  1.0000
  -5  -4  -2   12888     877                                                       12792   -0.06    0.00  1.0000
  -5  -4  -3    1985     156                                                        2012    0.04    0.00  1.0000
  -5  -4  -3    2131     363                                                        2160    0.04    0.00  1.0000
  -5  -4  -3    2009     166                                                        2037    0.04    0.00  1.0000
  -5  -4  -4   42645     743                                                       42571    0.02    0.00  1.0000
  -5  -4  -4   43998    1582                                                       43924    0.02    0.00  1.0000
  -5  -4  -4   42427     767                                                       42353    0.02    0.00  1.0000
  -5  -4  -5    5052     550                                                        4999   -0.05    0.00  1.0000
  -5  -4  -5    4962     270                                                        4908   -0.05    0.00  1.0000
   5   4   6   47122    1635                                                       47514   -0.13    0.00  1.0000
  -5  -4  -6   45362     825                                                       45746   -0.13    0.00  1.0000
  -5  -4  -6   46414     877                                                       46802   -0.13    0.00  1.0000
  -5  -4  -7   34373     688                                                       33875   -0.19    0.00  1.0000
  -5  -4  -7   33621     819                                                       33129   -0.19    0.00  1.0000
  -5  -4  -8   13218     542                                                       13583   -0.22    0.00  1.0000
  -5  -4  -9    2830     231                                                        2694   -0.18    0.00  1.0000
  -5  -4 -10    1406     153                                                        1360   -0.09    0.00  1.0000
  -5  -4 -11       0      33                                                          -9   -0.01    0.00  1.0000
   5   5  -7       0      27                                                          -5   -0.09    0.00  1.0000
   5   5  -6     313      73                                                         346   -0.12    0.00  1.0000
   5   5  -5    1546     143                                                        1465   -0.15    0.00  1.0000
   5   5  -4    2487     212                                                        2580   -0.13    0.00  1.0000
   5   5  -4    2771     212                                                        2868   -0.13    0.00  1.0000
   5   5  -3    4246     267                                                        4119   -0.14    0.00  1.0000
   5   5  -3    4090     250                                                        3966   -0.14    0.00  1.0000
   5   5  -2      69      51                                                          93   -0.19    0.00  1.0000
   5   5  -2     109      64                                                         139   -0.19    0.00  1.0000
  -5  -5   1     102     123                                                          75   -0.20    0.00  1.0000
   5   5  -1      98      42                                                          72   -0.20    0.00  1.0000
  -5  -5   0   11941     364                                                       11771   -0.11    0.00  1.0000
  -5  -5   0   12206     386                                                       12035   -0.11    0.00  1.0000
  -5  -5  -1   11899     359                                                       11919   -0.01    0.00  1.0000
  -5  -5  -1   10704     861                                                       10723   -0.01    0.00  1.0000
  -5  -5  -1   11789     389                                                       11809   -0.01    0.00  1.0000
  -5  -5  -2   38251     653                                                       38186   -0.02    0.00  1.0000
  -5  -5  -2   37728     708                                                       37664   -0.02    0.00  1.0000
  -5  -5  -2   39225    1595                                                       39160   -0.02    0.00  1.0000
  -5  -5  -3   28797     593                                                       28999   -0.08    0.00  1.0000
  -5  -5  -3   26981    1295                                                       27177   -0.08    0.00  1.0000
  -5  -5  -3   28433     634                                                       28633   -0.08    0.00  1.0000
  -5  -5  -4     446      89                                                         468   -0.07    0.00  1.0000
  -5  -5  -4     549     100                                                         573   -0.07    0.00  1.0000
  -5  -5  -4     629     216                                                         655   -0.07    0.00  1.0000
  -5  -5  -5    1910     360                                                        1902    0.01    0.00  1.0000
  -5  -5  -5    2050     183                                                        2042    0.01    0.00  1.0000
   5   5   6    3946     496                                                        3872    0.08    0.00  1.0000
  -5  -5  -6    3516     243                                                        3445    0.08    0.00  1.0000
  -5  -5  -6    3742     496                                                        3670    0.08    0.00  1.0000
  -5  -5  -7      27      47                                                          35    0.10    0.00  1.0000
  -5  -5  -8      60      46                                                          70    0.08    0.00  1.0000
  -5  -5  -8     147      75                                                         162    0.08    0.00  1.0000
  -5  -5  -9    8157     385                                                        8218    0.05    0.00  1.0000
  -5  -5 -10    2246     186                                                        2245    0.00    0.00  1.0000
  -5  -5 -11    5635     245                                                        5628   -0.01    0.00  1.0000
  -5  -5 -12     872      70                                                         885    0.03    0.00  1.0000
   5   6  -6      60      33                                                          67    0.06    0.00  1.0000
   5   6  -5      12      40                                                          19    0.12    0.00  1.0000
   5   6  -4    1009     132                                                         944    0.14    0.00  1.0000
   5   6  -4    1109     120                                                        1041    0.14    0.00  1.0000
   5   6  -3   10064     421                                                       10247    0.13    0.00  1.0000
   5   6  -3   10625     385                                                       10813    0.13    0.00  1.0000
   5   6  -2   10330     417                                                       10086    0.17    0.00  1.0000
   5   6  -2   11212     392                                                       10958    0.17    0.00  1.0000
   5   6  -1   11209     435                                                       11634    0.28    0.00  1.0000
   5   6  -1   11694     403                                                       12128    0.28    0.00  1.0000
   5   6   0     398      77                                                         307    0.34    0.00  1.0000
   5   6   0     470      82                                                         371    0.34    0.00  1.0000
  -5  -6   0     391      69                                                         301    0.34    0.00  1.0000
  -5  -6  -1     271      55                                                         205    0.30    0.00  1.0000
  -5  -6  -1     403     181                                                         321    0.30    0.00  1.0000
  -5  -6  -1     392      74                                                         311    0.30    0.00  1.0000
  -5  -6  -2   23028     508                                                       23554    0.24    0.00  1.0000
  -5  -6  -2   22040     562                                                       22555    0.24    0.00  1.0000
  -5  -6  -2   23603    1279                                                       24136    0.24    0.00  1.0000
  -5  -6  -3   43477     712                                                       42859    0.21    0.00  1.0000
  -5  -6  -3   43847    1676                                                       43226    0.21    0.00  1.0000
  -5  -6  -3   42765     792                                                       42151    0.21    0.00  1.0000
  -5  -6  -4    3730     225                                                        3858    0.14    0.00  1.0000
  -5  -6  -4    3760     489                                                        3889    0.14    0.00  1.0000
  -5  -6  -4    3826     258                                                        3956    0.14    0.00  1.0000
  -5  -6  -5   17838    1060                                                       17807    0.02    0.00  1.0000
  -5  -6  -5   16452     481                                                       16422    0.02    0.00  1.0000
  -5  -6  -5   17328     550                                                       17298    0.02    0.00  1.0000
  -5  -6  -6    3837     272                                                        3744   -0.11    0.00  1.0000
  -5  -6  -7    1254     177                                                        1326   -0.14    0.00  1.0000
  -5  -6  -8     147      70                                                         163   -0.09    0.00  1.0000
  -5  -6  -9   19710     511                                                       19698   -0.01    0.00  1.0000
  -5  -6  -9   19313     541                                                       19301   -0.01    0.00  1.0000
  -5  -6 -10    4059     229                                                        3989    0.08    0.00  1.0000
  -5  -6 -11   15030     371                                                       15217    0.11    0.00  1.0000
  -5  -6 -12    5633     170                                                        5578    0.05    0.00  1.0000
   5   7  -5     118      35                                                         118    0.00    0.00  1.0000
   5   7  -4      24      50                                                          19   -0.09    0.00  1.0000
   5   7  -4      56      38                                                          47   -0.09    0.00  1.0000
   5   7  -3     144      67                                                         127   -0.10    0.00  1.0000
   5   7  -3     152      57                                                         135   -0.10    0.00  1.0000
   5   7  -2       0      57                                                         -16   -0.10    0.00  1.0000
   5   7  -2       0      50                                                          -7   -0.10    0.00  1.0000
   5   7  -1     741     120                                                         673   -0.18    0.00  1.0000
   5   7  -1     803     106                                                         732   -0.18    0.00  1.0000
   5   7   0    1630     180                                                        1820   -0.32    0.00  1.0000
   5   7   0    1777     165                                                        1974   -0.32    0.00  1.0000
   5   7   0    1715     179                                                        1909   -0.32    0.00  1.0000
   5   7   1    6135     305                                                        5694   -0.40    0.00  1.0000
   5   7   1    6639     275                                                        6180   -0.40    0.00  1.0000
  -5  -7  -1    6720     278                                                        6258   -0.40    0.00  1.0000
   5   7   1    6278     294                                                        5832   -0.40    0.00  1.0000
  -5  -7  -2     183      72                                                         268   -0.39    0.00  1.0000
   5   7   2     212      69                                                         302   -0.39    0.00  1.0000
  -5  -7  -3    3495     204                                                        3801   -0.35    0.00  1.0000
  -5  -7  -3    3143     229                                                        3433   -0.35    0.00  1.0000
  -5  -7  -4       4      49                                                           0   -0.28    0.00  1.0000
  -5  -7  -4     156      65                                                         110   -0.28    0.00  1.0000
  -5  -7  -5   11590     391                                                       11815   -0.14    0.00  1.0000
  -5  -7  -5   11757     463                                                       11983   -0.14    0.00  1.0000
  -5  -7  -6    8579     349                                                        8611    0.02    0.00  1.0000
  -5  -7  -6    9621     433                                                        9654    0.02    0.00  1.0000
  -5  -7  -7    8795     357                                                        8631    0.12    0.00  1.0000
  -5  -7  -7    8973     434                                                        8807    0.12    0.00  1.0000
  -5  -7  -8   11325     457                                                       11494    0.11    0.00  1.0000
  -5  -7  -9     148      67                                                         153    0.03    0.00  1.0000
  -5  -7 -10     169      51                                                         155   -0.07    0.00  1.0000
  -5  -7 -11   11177     300                                                       10962   -0.14    0.00  1.0000
   5   8  -3     134      61                                                         144   -0.06    0.00  1.0000
   5   8  -2      47      64                                                          54   -0.07    0.00  1.0000
   5   8  -2      68      34                                                          76   -0.07    0.00  1.0000
   5   8  -1    1482     162                                                        1467   -0.03    0.00  1.0000
   5   8  -1    1295     119                                                        1281   -0.03    0.00  1.0000
   5   8   0    1619     173                                                        1554    0.11    0.00  1.0000
   5   8   0    1552     132                                                        1489    0.11    0.00  1.0000
   5   8   0    1392     149                                                        1332    0.11    0.00  1.0000
   5   8   1    7743     370                                                        8090    0.27    0.00  1.0000
   5   8   1    7177     289                                                        7510    0.27    0.00  1.0000
   5   8   1    7092     332                                                        7424    0.27    0.00  1.0000
   5   8   2    5983     305                                                        5597    0.35    0.00  1.0000
   5   8   2    5410     242                                                        5044    0.35    0.00  1.0000
  -5  -8  -2    6083     268                                                        5694    0.35    0.00  1.0000
   5   8   2    5385     271                                                        5020    0.35    0.00  1.0000
  -5  -8  -3    1312     152                                                        1513    0.37    0.00  1.0000
  -5  -8  -4    2471     189                                                        2215    0.37    0.00  1.0000
  -5  -8  -5     367      84                                                         287    0.31    0.00  1.0000
  -5  -8  -6     322      77                                                         372    0.19    0.00  1.0000
  -5  -8  -6     177      78                                                         214    0.19    0.00  1.0000
  -5  -8  -7    2346     168                                                        2303    0.06    0.00  1.0000
  -5  -8  -7    2376     211                                                        2333    0.06    0.00  1.0000
  -5  -8  -8   14864     420                                                       14888    0.01    0.00  1.0000
  -5  -8  -8   15647     512                                                       15672    0.01    0.00  1.0000
  -5  -8  -9    5467     242                                                        5426    0.04    0.00  1.0000
  -5  -8  -9    5895     285                                                        5852    0.04    0.00  1.0000
  -5  -8 -10   16596     383                                                       16761    0.09    0.00  1.0000
  -5  -8 -10   17486     416                                                       17655    0.09    0.00  1.0000
  -5  -8 -11    2205     113                                                        2118    0.13    0.00  1.0000
  -5  -8 -11    2025     100                                                        1942    0.13    0.00  1.0000
   5   9  -3       2      29                                                          -6    0.20    0.00  1.0000
   5   9  -2     194      67                                                         247    0.25    0.00  1.0000
   5   9  -1     215      65                                                         163    0.27    0.00  1.0000
   5   9   0      34      53                                                          50    0.17    0.00  1.0000
   5   9   1    5174     292                                                        5156   -0.02    0.00  1.0000
   5   9   2    9172     400                                                        9396   -0.16    0.00  1.0000
   5   9   3    3909     248                                                        3703   -0.23    0.00  1.0000
  -5  -9  -3    3757     205                                                        3555   -0.23    0.00  1.0000
  -5  -9  -4    3539     230                                                        3788   -0.29    0.00  1.0000
  -5  -9  -5    1814     158                                                        1615   -0.34    0.00  1.0000
  -5  -9  -6    5504     304                                                        5860   -0.33    0.00  1.0000
  -5  -9  -7     947     122                                                         836   -0.26    0.00  1.0000
  -5  -9  -8    4170     244                                                        3995   -0.19    0.00  1.0000
  -5  -9  -9    3904     222                                                        4047   -0.16    0.00  1.0000
  -5  -9 -10   19048     402                                                       18771   -0.14    0.00  1.0000
   5  10  -1     248      64                                                         318   -0.29    0.00  1.0000
   5  10   0    1660     137                                                        1486   -0.31    0.00  1.0000
   5  10   1    1945     173                                                        2067   -0.19    0.00  1.0000
   5  10   2    3805     235                                                        3761   -0.05    0.00  1.0000
   5  10   3    2998     208                                                        2980    0.02    0.00  1.0000
   5  10   4      37      50                                                          32    0.06    0.00  1.0000
   5  10   4      54      31                                                          48    0.06    0.00  1.0000
  -5 -10  -4       0      42                                                         -28    0.06    0.00  1.0000
  -5 -10  -5     970     110                                                        1034    0.14    0.00  1.0000
  -5 -10  -6    5449     251                                                        5209    0.23    0.00  1.0000
  -5 -10  -7    3577     214                                                        3803    0.26    0.00  1.0000
  -5 -10  -8     869      97                                                         772    0.24    0.00  1.0000
  -5 -10  -9    1609     129                                                        1725    0.20    0.00  1.0000
  -5 -10 -10    1841     113                                                        1938    0.16    0.00  1.0000
   5  10  10    1977     106                                                        2077    0.16    0.00  1.0000
   5  11   1      52      31                                                          35    0.17    0.00  1.0000
   5  11   2     134      48                                                         118    0.10    0.00  1.0000
   5  11   3     714      95                                                         741    0.07    0.00  1.0000
   5  11   4     804      98                                                         767    0.09    0.00  1.0000
   5  11   5      51      38                                                          42    0.09    0.00  1.0000
   5  11   5      71      35                                                          61    0.09    0.00  1.0000
   5  11   6    1129     109                                                        1122    0.02    0.00  1.0000
  -5 -11  -6     805      76                                                         798    0.02    0.00  1.0000
   5  11   6    1072      94                                                        1065    0.02    0.00  1.0000
  -5 -11  -7    3864     166                                                        3803   -0.07    0.00  1.0000
   5  11   7    4045     176                                                        3983   -0.07    0.00  1.0000
  -5 -11  -8    5188     188                                                        5304   -0.11    0.00  1.0000
   5  11   8    6074     206                                                        6199   -0.11    0.00  1.0000
  -5 -11  -9    7773     200                                                        7617   -0.12    0.00  1.0000
   5  11   9    8870     212                                                        8704   -0.12    0.00  1.0000
  -6   8   3       2      32                                                         -93   -0.22    0.00  1.0000
  -6   8   2     139      29                                                         107   -0.20    0.00  1.0000
  -6   7   6     264      46                                                         281   -0.07    0.00  1.0000
  -6   7   5    3854     168                                                        3855    0.00    0.00  1.0000
  -6   7   4    2367     136                                                        2258    0.16    0.00  1.0000
  -6   7   3     995     103                                                        1149    0.33    0.00  1.0000
  -6   7   2      14      32                                                           1    0.37    0.00  1.0000
  -6   7   1    3330     163                                                        3202    0.16    0.00  1.0000
  -6   7   0     548      64                                                         481   -0.21    0.00  1.0000
  -6   7  -1    1191      99                                                        1425   -0.45    0.00  1.0000
  -6   6   7    5343     186                                                        5391   -0.05    0.00  1.0000
   6  -6  -7    4791     161                                                        4837   -0.05    0.00  1.0000
  -6   6   6    1410     112                                                        1444    0.06    0.00  1.0000
  -6   6   5    2487     162                                                        2565    0.11    0.00  1.0000
  -6   6   4    3688     202                                                        3665    0.03    0.00  1.0000
  -6   6   4    3336     156                                                        3314    0.03    0.00  1.0000
  -6   6   3    6225     262                                                        6042   -0.16    0.00  1.0000
  -6   6   2   11802     372                                                       12321   -0.33    0.00  1.0000
  -6   6   1      91      42                                                          55   -0.29    0.00  1.0000
  -6   6   0     482      79                                                         477    0.02    0.00  1.0000
  -6   6  -1     186      49                                                         116    0.40    0.00  1.0000
  -6   6  -2     501      83                                                         700    0.57    0.00  1.0000
  -6   5   8     165      38                                                         200    0.18    0.00  1.0000
  -6   5   7    1806     114                                                        1683    0.21    0.00  1.0000
  -6   5   6    4221     194                                                        4329    0.12    0.00  1.0000
  -6   5   6    4582     207                                                        4695    0.12    0.00  1.0000
  -6   5   5     374      75                                                         385   -0.04    0.00  1.0000
  -6   5   4      37      43                                                          25   -0.15    0.00  1.0000
  -6   5   3    1163     126                                                        1106   -0.12    0.00  1.0000
  -6   5   3    1251     119                                                        1192   -0.12    0.00  1.0000
  -6   5   2   18916     492                                                       18825    0.05    0.00  1.0000
  -6   5   2   17532     415                                                       17445    0.05    0.00  1.0000
  -6   5   1     606     101                                                         682    0.21    0.00  1.0000
  -6   5   1     689      89                                                         770    0.21    0.00  1.0000
  -6   5   0    4355     230                                                        4174    0.19    0.00  1.0000
  -6   5  -1    1108     114                                                        1088   -0.04    0.00  1.0000
  -6   5  -1    1097     137                                                        1078   -0.04    0.00  1.0000
  -6   5  -2       5      50                                                          -7   -0.30    0.00  1.0000
  -6   5  -2       2      46                                                          14   -0.30    0.00  1.0000
  -6   5  -3     309      64                                                         225   -0.36    0.00  1.0000
  -6   5  -3      88      31                                                          47   -0.36    0.00  1.0000
  -6   5  -4    4213     176                                                        4044   -0.18    0.00  1.0000
  -6   5  -4    3045     146                                                        2901   -0.18    0.00  1.0000
  -6   4   8     932      88                                                         932    0.00    0.00  1.0000
  -6   4   7     498      79                                                         532   -0.10    0.00  1.0000
  -6   4   6   11772     367                                                       11508   -0.17    0.00  1.0000
  -6   4   6   13132     386                                                       12853   -0.17    0.00  1.0000
  -6   4   5   12586     389                                                       12790   -0.13    0.00  1.0000
  -6   4   5   13436     422                                                       13647   -0.13    0.00  1.0000
  -6   4   4   12103     397                                                       12127    0.02    0.00  1.0000
  -6   4   3   10192     357                                                        9979    0.15    0.00  1.0000
  -6   4   2    6343     290                                                        6169    0.15    0.00  1.0000
  -6   4   2    6163     272                                                        5992    0.15    0.00  1.0000
  -6   4   1      89      46                                                          91    0.01    0.00  1.0000
  -6   4   1     171      60                                                         173    0.01    0.00  1.0000
  -6   4   0    6715     302                                                        6916   -0.17    0.00  1.0000
  -6   4   0    7269     350                                                        7477   -0.17    0.00  1.0000
  -6   4   0    6745     277                                                        6947   -0.17    0.00  1.0000
  -6   4  -1    2275     167                                                        2126   -0.22    0.00  1.0000
  -6   4  -1    1984     179                                                        1845   -0.22    0.00  1.0000
  -6   4  -1    2177     146                                                        2031   -0.22    0.00  1.0000
  -6   4  -2       1      54                                                         -22   -0.10    0.00  1.0000
  -6   4  -2     126      68                                                         110   -0.10    0.00  1.0000
  -6   4  -3    4192     219                                                        4244    0.06    0.00  1.0000
  -6   4  -3    4671     266                                                        4726    0.06    0.00  1.0000
  -6   4  -4    1337     136                                                        1375    0.07    0.00  1.0000
  -6   4  -4    1167     132                                                        1202    0.07    0.00  1.0000
  -6   4  -5     106      46                                                         100   -0.04    0.00  1.0000
  -6   4  -5       0      36                                                         -29   -0.04    0.00  1.0000
  -6   4  -6     216      35                                                         194   -0.11    0.00  1.0000
  -6   3   9     647      59                                                         611   -0.10    0.00  1.0000
  -6   3   8    7666     267                                                        7897   -0.18    0.00  1.0000
  -6   3   7    3574     203                                                        3408   -0.20    0.00  1.0000
  -6   3   6     515      83                                                         480   -0.11    0.00  1.0000
  -6   3   6     555     101                                                         519   -0.11    0.00  1.0000
  -6   3   5    5785     286                                                        5778    0.01    0.00  1.0000
  -6   3   5    6195     300                                                        6187    0.01    0.00  1.0000
  -6   3   4   14928     444                                                       15000    0.04    0.00  1.0000
  -6   3   4   15797     472                                                       15870    0.04    0.00  1.0000
  -6   3   3   46156     796                                                       46252   -0.03    0.00  1.0000
  -6   3   2     435      85                                                         399   -0.12    0.00  1.0000
  -6   3   1    4534     246                                                        4661   -0.13    0.00  1.0000
  -6   3   1    4670     281                                                        4799   -0.13    0.00  1.0000
  -6   3   1    4900     262                                                        5033   -0.13    0.00  1.0000
  -6   3   0     552      85                                                         559   -0.02    0.00  1.0000
  -6   3   0     630     115                                                         637   -0.02    0.00  1.0000
  -6   3   0     546      91                                                         553   -0.02    0.00  1.0000
  -6   3  -1    3518     213                                                        3630    0.13    0.00  1.0000
  -6   3  -1    3384     246                                                        3494    0.13    0.00  1.0000
  -6   3  -2     852     104                                                         773    0.19    0.00  1.0000
  -6   3  -2     861     128                                                         781    0.19    0.00  1.0000
  -6   3  -2    1035     124                                                         947    0.19    0.00  1.0000
  -6   3  -3   37721     669                                                       38085    0.13    0.00  1.0000
  -6   3  -3   36902     805                                                       37262    0.13    0.00  1.0000
  -6   3  -4     771     118                                                         755    0.04    0.00  1.0000
  -6   3  -4     743     123                                                         728    0.04    0.00  1.0000
  -6   3  -5    1111     133                                                        1130    0.04    0.00  1.0000
  -6   3  -5     971     126                                                         989    0.04    0.00  1.0000
  -6   3  -6      10      35                                                           6    0.10    0.00  1.0000
  -6   3  -6       1      50                                                         -53    0.10    0.00  1.0000
  -6   3  -7       1      22                                                         -24    0.10    0.00  1.0000
  -6   2   9       0      26                                                          -6    0.04    0.00  1.0000
  -6   2   8    3102     171                                                        2965    0.17    0.00  1.0000
  -6   2   7    4206     242                                                        4525    0.34    0.00  1.0000
  -6   2   6    3707     226                                                        3353    0.42    0.00  1.0000
  -6   2   6    3843     221                                                        3483    0.42    0.00  1.0000
  -6   2   5    1192     152                                                        1370    0.35    0.00  1.0000
  -6   2   5    1376     159                                                        1567    0.35    0.00  1.0000
  -6   2   4     210      70                                                         169    0.20    0.00  1.0000
  -6   2   4     229      71                                                         187    0.20    0.00  1.0000
  -6   2   3   21412     527                                                       21179    0.11    0.00  1.0000
  -6   2   3   22711     560                                                       22471    0.11    0.00  1.0000
  -6   2   2     789     115                                                         832    0.11    0.00  1.0000
  -6   2   1   14964     467                                                       14710    0.15    0.00  1.0000
  -6   2   1   14456     438                                                       14206    0.15    0.00  1.0000
  -6   2   0    6451     273                                                        6643    0.17    0.00  1.0000
  -6   2   0    6709     329                                                        6904    0.17    0.00  1.0000
  -6   2  -1     190      67                                                         166    0.13    0.00  1.0000
  -6   2  -2   11344     453                                                       11421    0.05    0.00  1.0000
  -6   2  -2   12074     425                                                       12153    0.05    0.00  1.0000
  -6   2  -3   20797     610                                                       20807    0.00    0.00  1.0000
  -6   2  -3   20887     609                                                       20897    0.00    0.00  1.0000
  -6   2  -4       7      74                                                           6    0.02    0.00  1.0000
  -6   2  -4      92      71                                                          89    0.02    0.00  1.0000
  -6   2  -5    3024     228                                                        3056    0.04    0.00  1.0000
  -6   2  -5    2947     234                                                        2980    0.04    0.00  1.0000
  -6   2  -6    1567     152                                                        1563    0.01    0.00  1.0000
  -6   2  -6    1596     159                                                        1592    0.01    0.00  1.0000
  -6   2  -7      58      43                                                          55   -0.03    0.00  1.0000
  -6   2  -8     623      62                                                         623    0.00    0.00  1.0000
  -6   1   8     647      90                                                         689   -0.11    0.00  1.0000
  -6   1   7    8626     324                                                        8289   -0.26    0.00  1.0000
  -6   1   6   27512     646                                                       28544   -0.43    0.00  1.0000
  -6   1   6   27914     605                                                       28953   -0.43    0.00  1.0000
  -6   1   5   27650     616                                                       26433   -0.52    0.00  1.0000
  -6   1   4   26244     621                                                       27329   -0.46    0.00  1.0000
  -6   1   3    1754     174                                                        1964   -0.34    0.00  1.0000
  -6   1   2     203      71                                                         157   -0.24    0.00  1.0000
  -6   1   1   15761     460                                                       16120   -0.20    0.00  1.0000
  -6   1   1   16442     470                                                       16809   -0.20    0.00  1.0000
  -6   1   0   19033     509                                                       18612   -0.21    0.00  1.0000
  -6   1   0   20334    1033                                                       19899   -0.21    0.00  1.0000
  -6   1  -1    2038     187                                                        2209   -0.26    0.00  1.0000
  -6   1  -1    2129     366                                                        2304   -0.26    0.00  1.0000
  -6   1  -2   61654     995                                                       60661   -0.28    0.00  1.0000
  -6   1  -2   61685     937                                                       60692   -0.28    0.00  1.0000
  -6   1  -3    3481     242                                                        3278   -0.24    0.00  1.0000
  -6   1  -3    3288     234                                                        3091   -0.24    0.00  1.0000
  -6   1  -4    1782     179                                                        1670   -0.19    0.00  1.0000
  -6   1  -4    1717     180                                                        1607   -0.19    0.00  1.0000
  -6   1  -5     266      83                                                         231   -0.15    0.00  1.0000
  -6   1  -5     272      86                                                         237   -0.15    0.00  1.0000
  -6   1  -6    1071     154                                                        1125   -0.11    0.00  1.0000
  -6   1  -6    1029     140                                                        1082   -0.11    0.00  1.0000
  -6   1  -7       0      61                                                         -50   -0.05    0.00  1.0000
  -6   1  -7      71      57                                                          65   -0.05    0.00  1.0000
  -6   1  -8    5466     234                                                        5484   -0.02    0.00  1.0000
  -6   0   8    1464     116                                                        1521    0.10    0.00  1.0000
   6   0  -7    1269     102                                                        1207    0.12    0.00  1.0000
  -6   0   7    1243     127                                                        1182    0.12    0.00  1.0000
  -6   0   6      92      54                                                          64    0.22    0.00  1.0000
  -6   0   6      93      51                                                          65    0.22    0.00  1.0000
   6   0  -6      22      55                                                          10    0.22    0.00  1.0000
   6   0  -5    3275     196                                                        3577    0.36    0.00  1.0000
  -6   0   5    3561     233                                                        3875    0.36    0.00  1.0000
   6   0  -4   26660     528                                                       25644    0.44    0.00  1.0000
  -6   0   4   27668     600                                                       26633    0.44    0.00  1.0000
  -6   0   3    4639     266                                                        5065    0.43    0.00  1.0000
  -6   0   2    6831     291                                                        6394    0.37    0.00  1.0000
  -6   0   1     445     178                                                         548    0.32    0.00  1.0000
  -6   0   1     535      99                                                         648    0.32    0.00  1.0000
  -6   0   1     534      96                                                         647    0.32    0.00  1.0000
  -6   0   0    1021     122                                                        1157    0.29    0.00  1.0000
  -6   0   0     984     121                                                        1118    0.29    0.00  1.0000
  -6   0  -1    2472     170                                                        2683    0.29    0.00  1.0000
  -6   0  -1    2353     185                                                        2559    0.29    0.00  1.0000
  -6   0  -2   96861    1022                                                       98291    0.32    0.00  1.0000
  -6   0  -2   94705    1192                                                       96119    0.32    0.00  1.0000
  -6   0  -3    2420     160                                                        2200    0.32    0.00  1.0000
  -6   0  -4   11859     488                                                       12274    0.26    0.00  1.0000
  -6   0  -4   12213     477                                                       12635    0.26    0.00  1.0000
  -6   0  -5    1873     195                                                        1755    0.19    0.00  1.0000
  -6   0  -5    1790     183                                                        1675    0.19    0.00  1.0000
  -6   0  -6    1010     145                                                         947    0.14    0.00  1.0000
  -6   0  -6    1175     144                                                        1106    0.14    0.00  1.0000
  -6   0  -7     331      88                                                         311    0.08    0.00  1.0000
  -6   0  -8    6774     315                                                        6773    0.00    0.00  1.0000
  -6   0  -9    1540     115                                                        1525   -0.03    0.00  1.0000
   6   1  -8    2934     118                                                        2885   -0.06    0.00  1.0000
  -6  -1   8    2966     141                                                        2918   -0.06    0.00  1.0000
   6   1  -7    6507     233                                                        6505    0.00    0.00  1.0000
  -6  -1   7    6379     266                                                        6377    0.00    0.00  1.0000
   6   1  -6    2750     178                                                        2775    0.03    0.00  1.0000
  -6  -1   5     543      94                                                         557   -0.04    0.00  1.0000
   6   1  -5     492      88                                                         506   -0.04    0.00  1.0000
   6   1  -4    1569     152                                                        1668   -0.17    0.00  1.0000
  -6  -1   4    1741     158                                                        1845   -0.17    0.00  1.0000
  -6  -1   3      50      56                                                          81   -0.27    0.00  1.0000
   6   1  -3       5      43                                                          17   -0.27    0.00  1.0000
   6   1  -2    5240     251                                                        5578   -0.32    0.00  1.0000
  -6  -1   2    5168     261                                                        5504   -0.32    0.00  1.0000
  -6  -1   1   23927     529                                                       23124   -0.36    0.00  1.0000
  -6  -1   1   23777     526                                                       22976   -0.36    0.00  1.0000
  -6  -1   0   11153     370                                                       11753   -0.39    0.00  1.0000
  -6  -1  -1   42026     687                                                       40905   -0.38    0.00  1.0000
  -6  -1  -2   41473     690                                                       40415   -0.36    0.00  1.0000
  -6  -1  -2   39524     697                                                       38492   -0.36    0.00  1.0000
  -6  -1  -3     548     102                                                         667   -0.34    0.00  1.0000
  -6  -1  -3     625     116                                                         752   -0.34    0.00  1.0000
  -6  -1  -4    8246     329                                                        7886   -0.28    0.00  1.0000
  -6  -1  -4    8338     378                                                        7976   -0.28    0.00  1.0000
  -6  -1  -5   11954     414                                                       12269   -0.20    0.00  1.0000
  -6  -1  -5   11894     486                                                       12208   -0.20    0.00  1.0000
  -6  -1  -6     939     116                                                         879   -0.14    0.00  1.0000
  -6  -1  -6     886     137                                                         828   -0.14    0.00  1.0000
  -6  -1  -7   17071     450                                                       17237   -0.09    0.00  1.0000
  -6  -1  -7   18765     610                                                       18939   -0.09    0.00  1.0000
  -6  -1  -8       8      54                                                           8    0.00    0.00  1.0000
  -6  -1  -9     143      57                                                         159    0.09    0.00  1.0000
  -6  -1 -10    1422      94                                                        1366    0.10    0.00  1.0000
   6   2  -7    1380     112                                                        1436   -0.10    0.00  1.0000
  -6  -2   7    1172     109                                                        1223   -0.10    0.00  1.0000
   6   2  -6    4371     220                                                        4173   -0.21    0.00  1.0000
   6   2  -5    5842     284                                                        6100   -0.23    0.00  1.0000
   6   2  -4     258      78                                                         292   -0.14    0.00  1.0000
   6   2  -3   11368     388                                                       11331   -0.02    0.00  1.0000
  -6  -2   3   11685     363                                                       11648   -0.02    0.00  1.0000
   6   2  -2   32808     631                                                       32639    0.07    0.00  1.0000
  -6  -2   2   32314     598                                                       32146    0.07    0.00  1.0000
  -6  -2   1   31603     641                                                       32008    0.16    0.00  1.0000
  -6  -2   1   30724    1429                                                       31123    0.16    0.00  1.0000
  -6  -2   1   31420     594                                                       31823    0.16    0.00  1.0000
  -6  -2   0    5991     265                                                        5686    0.28    0.00  1.0000
  -6  -2   0    5424     556                                                        5134    0.28    0.00  1.0000
  -6  -2  -1   95402    2320                                                       97103    0.38    0.00  1.0000
  -6  -2  -1   96461    1095                                                       98171    0.38    0.00  1.0000
  -6  -2  -2    2080     154                                                        1810    0.43    0.00  1.0000
  -6  -2  -2    2056     307                                                        1788    0.43    0.00  1.0000
  -6  -2  -2    2152     162                                                        1878    0.43    0.00  1.0000
  -6  -2  -3   15413     470                                                       16163    0.42    0.00  1.0000
  -6  -2  -3   14572     445                                                       15301    0.42    0.00  1.0000
  -6  -2  -3   13777     877                                                       14486    0.42    0.00  1.0000
  -6  -2  -4     280     109                                                         198    0.37    0.00  1.0000
  -6  -2  -4     235      57                                                         161    0.37    0.00  1.0000
  -6  -2  -4     115      40                                                          65    0.37    0.00  1.0000
  -6  -2  -4     230      53                                                         157    0.37    0.00  1.0000
  -6  -2  -5    8538     356                                                        8141    0.30    0.00  1.0000
  -6  -2  -5    8176     379                                                        7788    0.30    0.00  1.0000
  -6  -2  -6     183      74                                                         234    0.25    0.00  1.0000
  -6  -2  -6     330     102                                                         398    0.25    0.00  1.0000
  -6  -2  -7   37664     752                                                       37091    0.21    0.00  1.0000
  -6  -2  -7   36656     856                                                       36091    0.21    0.00  1.0000
  -6  -2  -8    6372     290                                                        6516    0.12    0.00  1.0000
  -6  -2  -8    6481     352                                                        6625    0.12    0.00  1.0000
  -6  -2  -9    1841     129                                                        1854   -0.02    0.00  1.0000
  -6  -2  -9    1861     168                                                        1874   -0.02    0.00  1.0000
  -6  -2 -10      30      31                                                          20   -0.14    0.00  1.0000
  -6  -3   7      58      27                                                          44    0.13    0.00  1.0000
   6   3  -7     129      42                                                         109    0.13    0.00  1.0000
   6   3  -6    1428     132                                                        1564    0.24    0.00  1.0000
   6   3  -5    3979     218                                                        3676    0.34    0.00  1.0000
   6   3  -4    4596     263                                                        4928    0.34    0.00  1.0000
   6   3  -3   13380     424                                                       12958    0.26    0.00  1.0000
   6   3  -2   35960     702                                                       36493    0.20    0.00  1.0000
  -6  -3   1   27626     599                                                       27238    0.16    0.00  1.0000
  -6  -3   1   26247    1378                                                       25868    0.16    0.00  1.0000
   6   3  -1   27982     591                                                       27591    0.16    0.00  1.0000
  -6  -3   0   10178     361                                                       10308    0.09    0.00  1.0000
  -6  -3   0    9335     310                                                        9459    0.09    0.00  1.0000
  -6  -3   0    9271     821                                                        9395    0.09    0.00  1.0000
  -6  -3  -1   63350     893                                                       63156   -0.05    0.00  1.0000
  -6  -3  -1   63444     949                                                       63250   -0.05    0.00  1.0000
  -6  -3  -1   61632    1992                                                       61441   -0.05    0.00  1.0000
  -6  -3  -2    6947     309                                                        7195   -0.21    0.00  1.0000
  -6  -3  -2    7078     659                                                        7328   -0.21    0.00  1.0000
  -6  -3  -2    7182     326                                                        7434   -0.21    0.00  1.0000
  -6  -3  -3   11078     390                                                       10623   -0.30    0.00  1.0000
  -6  -3  -3   11579     807                                                       11113   -0.30    0.00  1.0000
  -6  -3  -3   10740     390                                                       10292   -0.30    0.00  1.0000
  -6  -3  -4    8339     721                                                        8799   -0.35    0.00  1.0000
  -6  -3  -4    7806     357                                                        8250   -0.35    0.00  1.0000
  -6  -3  -4    7732     344                                                        8174   -0.35    0.00  1.0000
  -6  -3  -5       7      60                                                         -56   -0.36    0.00  1.0000
  -6  -3  -5      25      42                                                          57   -0.36    0.00  1.0000
  -6  -3  -5      24      35                                                          55   -0.36    0.00  1.0000
  -6  -3  -6    6845     362                                                        7285   -0.37    0.00  1.0000
  -6  -3  -6    7046     373                                                        7493   -0.37    0.00  1.0000
  -6  -3  -7   18167     588                                                       18912   -0.38    0.00  1.0000
  -6  -3  -7   17851     610                                                       18589   -0.38    0.00  1.0000
  -6  -3  -8    6897     332                                                        6481   -0.35    0.00  1.0000
  -6  -3  -8    7120     362                                                        6698   -0.35    0.00  1.0000
  -6  -3  -9    4907     248                                                        5131   -0.22    0.00  1.0000
  -6  -3  -9    5269     291                                                        5500   -0.22    0.00  1.0000
  -6  -3 -10    6129     208                                                        6113   -0.01    0.00  1.0000
  -6  -3 -10    6555     260                                                        6538   -0.01    0.00  1.0000
   6   4  -7     663      60                                                         622   -0.11    0.00  1.0000
   6   4  -6     366      69                                                         418   -0.18    0.00  1.0000
   6   4  -5     106      57                                                         154   -0.29    0.00  1.0000
   6   4  -4    1878     157                                                        1659   -0.36    0.00  1.0000
   6   4  -3    3384     231                                                        3675   -0.34    0.00  1.0000
   6   4  -2    4272     240                                                        4001   -0.29    0.00  1.0000
   6   4  -1    3433     227                                                        3693   -0.30    0.00  1.0000
  -6  -4   0   20268     503                                                       19569   -0.34    0.00  1.0000
  -6  -4  -1    1263     124                                                        1102   -0.33    0.00  1.0000
  -6  -4  -1    1310     138                                                        1145   -0.33    0.00  1.0000
  -6  -4  -1    1535     316                                                        1356   -0.33    0.00  1.0000
  -6  -4  -2      73      55                                                         103   -0.22    0.00  1.0000
  -6  -4  -2     119      59                                                         157   -0.22    0.00  1.0000
  -6  -4  -3   13244     430                                                       13096   -0.09    0.00  1.0000
  -6  -4  -3   13283     907                                                       13134   -0.09    0.00  1.0000
  -6  -4  -3   12658     443                                                       12513   -0.09    0.00  1.0000
  -6  -4  -4   25650     629                                                       25605    0.02    0.00  1.0000
  -6  -4  -4   26808     651                                                       26761    0.02    0.00  1.0000
  -6  -4  -4   26891    1284                                                       26844    0.02    0.00  1.0000
  -6  -4  -5    5062     296                                                        5172    0.11    0.00  1.0000
  -6  -4  -5    4969     283                                                        5079    0.11    0.00  1.0000
  -6  -4  -6   43451     868                                                       42850    0.20    0.00  1.0000
  -6  -4  -6   42902     782                                                       42306    0.20    0.00  1.0000
  -6  -4  -7    2679     243                                                        2918    0.31    0.00  1.0000
  -6  -4  -7    2421     181                                                        2648    0.31    0.00  1.0000
  -6  -4  -7    2787     243                                                        3030    0.31    0.00  1.0000
  -6  -4  -8     420      94                                                         308    0.41    0.00  1.0000
  -6  -4  -8     289      79                                                         197    0.41    0.00  1.0000
  -6  -4  -9    1414     137                                                        1203    0.41    0.00  1.0000
  -6  -4  -9    1438     139                                                        1225    0.41    0.00  1.0000
  -6  -4 -10   11734     334                                                       12143    0.26    0.00  1.0000
  -6  -4 -10   12013     362                                                       12426    0.26    0.00  1.0000
   6   5  -6     795      75                                                         741    0.13    0.00  1.0000
   6   5  -5     327      73                                                         383    0.21    0.00  1.0000
   6   5  -4      79      47                                                          46    0.29    0.00  1.0000
   6   5  -3     228      81                                                         303    0.32    0.00  1.0000
   6   5  -2      38      53                                                          66    0.28    0.00  1.0000
   6   5  -1    2592     187                                                        2411    0.25    0.00  1.0000
  -6  -5   0   25049     574                                                       25745    0.30    0.00  1.0000
  -6  -5  -1     463      77                                                         351    0.39    0.00  1.0000
  -6  -5  -1     676     102                                                         539    0.39    0.00  1.0000
  -6  -5  -2     197      71                                                         290    0.42    0.00  1.0000
  -6  -5  -2     212      80                                                         307    0.42    0.00  1.0000
  -6  -5  -3       7      44                                                          -1    0.37    0.00  1.0000
  -6  -5  -3      62      47                                                          27    0.37    0.00  1.0000
  -6  -5  -4     595      95                                                         492    0.31    0.00  1.0000
  -6  -5  -4     509     100                                                         415    0.31    0.00  1.0000
  -6  -5  -5     977     141                                                        1086    0.24    0.00  1.0000
  -6  -5  -5    1066     150                                                        1181    0.24    0.00  1.0000
  -6  -5  -6   70439    1095                                                       69874    0.15    0.00  1.0000
  -6  -5  -6   68854    1082                                                       68295    0.15    0.00  1.0000
  -6  -5  -7   30821     748                                                       30859    0.02    0.00  1.0000
  -6  -5  -7   31008     687                                                       31047    0.02    0.00  1.0000
  -6  -5  -8    7208     364                                                        7388   -0.15    0.00  1.0000
  -6  -5  -8    7697     299                                                        7884   -0.15    0.00  1.0000
  -6  -5  -8    6596     326                                                        6770   -0.15    0.00  1.0000
  -6  -5  -9    1289     134                                                        1150   -0.28    0.00  1.0000
  -6  -5  -9    1299     127                                                        1159   -0.28    0.00  1.0000
  -6  -5 -10    2772     165                                                        2551   -0.30    0.00  1.0000
  -6  -5 -10    2669     152                                                        2453   -0.30    0.00  1.0000
  -6  -5 -11    2018     112                                                        2147   -0.20    0.00  1.0000
   6   6  -5     567      64                                                         520   -0.14    0.00  1.0000
   6   6  -4    1146     117                                                        1243   -0.20    0.00  1.0000
   6   6  -3    2530     172                                                        2360   -0.24    0.00  1.0000
   6   6  -2    2810     202                                                        2989   -0.23    0.00  1.0000
   6   6  -1     840     114                                                         762   -0.19    0.00  1.0000
   6   6   0   10806     381                                                       10515   -0.20    0.00  1.0000
  -6  -6  -1   15085     436                                                       15546   -0.26    0.00  1.0000
  -6  -6  -1   14325     464                                                       14774   -0.26    0.00  1.0000
  -6  -6  -2   30978     614                                                       30182   -0.32    0.00  1.0000
  -6  -6  -2   29954     669                                                       29171   -0.32    0.00  1.0000
  -6  -6  -3   25252     581                                                       25997   -0.32    0.00  1.0000
  -6  -6  -3   24846     646                                                       25585   -0.32    0.00  1.0000
  -6  -6  -4    8550     339                                                        8149   -0.31    0.00  1.0000
  -6  -6  -4    9001     388                                                        8589   -0.31    0.00  1.0000
  -6  -6  -5   10477     408                                                       10919   -0.30    0.00  1.0000
  -6  -6  -5   10877     455                                                       11327   -0.30    0.00  1.0000
  -6  -6  -6    1064     148                                                        1199   -0.28    0.00  1.0000
  -6  -6  -6    1104     161                                                        1242   -0.28    0.00  1.0000
  -6  -6  -7     259      84                                                         211   -0.22    0.00  1.0000
  -6  -6  -7     388      94                                                         329   -0.22    0.00  1.0000
  -6  -6  -8    2635     209                                                        2712   -0.10    0.00  1.0000
  -6  -6  -8    2577     192                                                        2653   -0.10    0.00  1.0000
  -6  -6  -9   13723     425                                                       13758    0.02    0.00  1.0000
  -6  -6  -9   14178     358                                                       14213    0.02    0.00  1.0000
  -6  -6 -10    1999     142                                                        1931    0.11    0.00  1.0000
  -6  -6 -11      53      29                                                          41    0.12    0.00  1.0000
   6   7  -4       0      31                                                          -1    0.09    0.00  1.0000
   6   7  -3     208      52                                                         234    0.12    0.00  1.0000
   6   7  -2    1404     126                                                        1326    0.15    0.00  1.0000
   6   7  -1    3904     227                                                        4043    0.15    0.00  1.0000
   6   7   0       1      53                                                         -41    0.17    0.00  1.0000
   6   7   1       2      53                                                         -12    0.20    0.00  1.0000
  -6  -7  -2     464      82                                                         533    0.22    0.00  1.0000
  -6  -7  -2     343      87                                                         402    0.22    0.00  1.0000
  -6  -7  -3     341      68                                                         294    0.18    0.00  1.0000
  -6  -7  -3     322      81                                                         277    0.18    0.00  1.0000
  -6  -7  -4    3574     214                                                        3691    0.14    0.00  1.0000
  -6  -7  -4    3595     252                                                        3713    0.14    0.00  1.0000
  -6  -7  -5   29896     622                                                       29576    0.13    0.00  1.0000
  -6  -7  -5   30357     729                                                       30034    0.13    0.00  1.0000
  -6  -7  -6    8827     352                                                        9043    0.16    0.00  1.0000
  -6  -7  -6    9960     440                                                       10189    0.16    0.00  1.0000
  -6  -7  -7     336      75                                                         296    0.16    0.00  1.0000
  -6  -7  -7     503     110                                                         453    0.16    0.00  1.0000
  -6  -7  -8    4351     239                                                        4260    0.10    0.00  1.0000
  -6  -7  -8    4315     249                                                        4224    0.10    0.00  1.0000
  -6  -7  -9   14860     406                                                       14896    0.02    0.00  1.0000
  -6  -7  -9   16285     406                                                       16323    0.02    0.00  1.0000
  -6  -7 -10    6837     239                                                        6862   -0.02    0.00  1.0000
  -6  -7 -10    6269     183                                                        6294   -0.02    0.00  1.0000
  -6  -7 -11    1014      71                                                        1004   -0.02    0.00  1.0000
   6   8  -2     245      52                                                         260   -0.06    0.00  1.0000
   6   8  -2     330      56                                                         347   -0.06    0.00  1.0000
   6   8  -1    3513     192                                                        3420   -0.11    0.00  1.0000
   6   8  -1    3968     187                                                        3870   -0.11    0.00  1.0000
   6   8   0    2257     157                                                        2364   -0.15    0.00  1.0000
   6   8   1    2312     158                                                        2184   -0.19    0.00  1.0000
   6   8   2     893     108                                                         974   -0.18    0.00  1.0000
  -6  -8  -2    1039     122                                                        1126   -0.18    0.00  1.0000
  -6  -8  -3     795     106                                                         749   -0.12    0.00  1.0000
  -6  -8  -4     118      44                                                         116   -0.02    0.00  1.0000
  -6  -8  -4     105      58                                                         102   -0.02    0.00  1.0000
  -6  -8  -5   12872     360                                                       12829    0.03    0.00  1.0000
  -6  -8  -5   13555     465                                                       13510    0.03    0.00  1.0000
  -6  -8  -6   10833     339                                                       10805   -0.02    0.00  1.0000
  -6  -8  -6   11880     445                                                       11850   -0.02    0.00  1.0000
  -6  -8  -7    9895     326                                                        9997   -0.07    0.00  1.0000
  -6  -8  -7   10141     409                                                       10244   -0.07    0.00  1.0000
  -6  -8  -8    3663     190                                                        3627   -0.04    0.00  1.0000
  -6  -8  -8    4013     235                                                        3976   -0.04    0.00  1.0000
  -6  -8  -9      40      35                                                          44    0.05    0.00  1.0000
  -6  -8  -9      34      36                                                          38    0.05    0.00  1.0000
  -6  -8 -10    2596     122                                                        2522    0.10    0.00  1.0000
  -6  -8 -10    2685     123                                                        2609    0.10    0.00  1.0000
   6   9  -1     513      64                                                         541    0.09    0.00  1.0000
   6   9   0     818      88                                                         757    0.15    0.00  1.0000
   6   9   1    1379     127                                                        1482    0.19    0.00  1.0000
   6   9   2    1603     131                                                        1502    0.18    0.00  1.0000
   6   9   2    1527     111                                                        1429    0.18    0.00  1.0000
   6   9   3    3465     170                                                        3549    0.10    0.00  1.0000
  -6  -9  -3    3142     182                                                        3222    0.10    0.00  1.0000
   6   9   4    4253     192                                                        4282   -0.03    0.00  1.0000
  -6  -9  -4    4396     230                                                        4426   -0.03    0.00  1.0000
  -6  -9  -5     150      59                                                         129   -0.12    0.00  1.0000
  -6  -9  -6      18      50                                                          12   -0.10    0.00  1.0000
  -6  -9  -7    3278     207                                                        3277    0.00    0.00  1.0000
  -6  -9  -8    7182     284                                                        7238    0.05    0.00  1.0000
  -6  -9  -9    6820     239                                                        6843   -0.02    0.00  1.0000
  -6  -9 -10    1488      83                                                        1425   -0.11    0.00  1.0000
   6  10   1      20      27                                                          33   -0.18    0.00  1.0000
   6  10   2       2      37                                                         -29   -0.19    0.00  1.0000
   6  10   3     286      55                                                         253   -0.14    0.00  1.0000
  -6 -10  -4    3597     161                                                        3616   -0.02    0.00  1.0000
  -6 -10  -5    2670     155                                                        2756    0.11    0.00  1.0000
  -6 -10  -6     797      88                                                         728    0.17    0.00  1.0000
  -6 -10  -7    1228     105                                                        1169    0.12    0.00  1.0000
  -6 -10  -8    3545     167                                                        3565    0.02    0.00  1.0000
  -6 -10  -9    5336     173                                                        5334    0.00    0.00  1.0000
   6  11   7    3210     118                                                        3099   -0.14    0.00  1.0000
  -7   6   3    1283      82                                                        1232   -0.10    0.00  1.0000
  -7   6   1      68      27                                                          79   -0.09    0.00  1.0000
  -7   5   5    2361     114                                                        2325   -0.05    0.00  1.0000
  -7   5   4    2604     135                                                        2624   -0.03    0.00  1.0000
  -7   5   4    2604     128                                                        2623   -0.03    0.00  1.0000
  -7   5   3    5720     210                                                        5768    0.04    0.00  1.0000
  -7   5   3    5612     195                                                        5660    0.04    0.00  1.0000
  -7   5   2    5467     205                                                        5371    0.09    0.00  1.0000
  -7   5   2    5133     179                                                        5040    0.09    0.00  1.0000
  -7   5   1    4404     187                                                        4520    0.12    0.00  1.0000
  -7   5   0    1702     109                                                        1609    0.16    0.00  1.0000
  -7   5  -1     127      34                                                         101    0.16    0.00  1.0000
  -7   4   6    5483     162                                                        5291   -0.18    0.00  1.0000
  -7   4   5    6081     209                                                        6168   -0.08    0.00  1.0000
  -7   4   5    6131     224                                                        6219   -0.08    0.00  1.0000
  -7   4   4    1159     103                                                        1163    0.01    0.00  1.0000
  -7   4   4    1158     111                                                        1161    0.01    0.00  1.0000
  -7   4   3    1047     102                                                        1046    0.00    0.00  1.0000
  -7   4   3    1036     107                                                        1035    0.00    0.00  1.0000
  -7   4   2    1931     138                                                        1971   -0.06    0.00  1.0000
  -7   4   2    1926     141                                                        1967   -0.06    0.00  1.0000
  -7   4   1    5884     230                                                        5751   -0.12    0.00  1.0000
  -7   4   1    5762     230                                                        5631   -0.12    0.00  1.0000
  -7   4   0    8143     270                                                        8376   -0.18    0.00  1.0000
  -7   4   0    8698     274                                                        8938   -0.18    0.00  1.0000
  -7   4  -1    1172      96                                                        1063   -0.23    0.00  1.0000
  -7   4  -1    1404      99                                                        1285   -0.23    0.00  1.0000
  -7   4  -2     205      43                                                         164   -0.21    0.00  1.0000
  -7   4  -2      76      48                                                          52   -0.21    0.00  1.0000
  -7   4  -3    1193     114                                                        1254   -0.12    0.00  1.0000
  -7   4  -4     154      43                                                         150   -0.02    0.00  1.0000
  -7   3   6    2274     131                                                        2391    0.17    0.00  1.0000
  -7   3   5   10174     284                                                       10014    0.11    0.00  1.0000
  -7   3   5   11567     339                                                       11395    0.11    0.00  1.0000
  -7   3   4   15970     385                                                       15932   -0.02    0.00  1.0000
  -7   3   4   16914     434                                                       16876   -0.02    0.00  1.0000
  -7   3   3    7272     267                                                        7377   -0.09    0.00  1.0000
  -7   3   3    7401     298                                                        7508   -0.09    0.00  1.0000
  -7   3   2    4001     199                                                        3973   -0.03    0.00  1.0000
  -7   3   2    4208     227                                                        4178   -0.03    0.00  1.0000
  -7   3   1    1651     131                                                        1693    0.07    0.00  1.0000
  -7   3   1    2058     164                                                        2104    0.07    0.00  1.0000
  -7   3   0   10418     336                                                       10192    0.16    0.00  1.0000
  -7   3  -1    3172     226                                                        3347    0.21    0.00  1.0000
  -7   3  -1    3272     198                                                        3451    0.21    0.00  1.0000
  -7   3  -2     159      66                                                         119    0.23    0.00  1.0000
  -7   3  -2      28      39                                                          13    0.23    0.00  1.0000
  -7   3  -3     280      72                                                         237    0.19    0.00  1.0000
  -7   3  -3     263      46                                                         221    0.19    0.00  1.0000
  -7   3  -4     560      86                                                         532    0.08    0.00  1.0000
  -7   3  -5     588      75                                                         588    0.00    0.00  1.0000
  -7   2   7     371      53                                                         363   -0.03    0.00  1.0000
  -7   2   6     432      70                                                         456   -0.08    0.00  1.0000
  -7   2   6     556      76                                                         583   -0.08    0.00  1.0000
  -7   2   5    1338     125                                                        1367   -0.05    0.00  1.0000
  -7   2   5    1309     129                                                        1337   -0.05    0.00  1.0000
  -7   2   4    6489     264                                                        6582    0.08    0.00  1.0000
  -7   2   4    7533     306                                                        7634    0.08    0.00  1.0000
  -7   2   3    2032     163                                                        1890    0.22    0.00  1.0000
  -7   2   2   11026     384                                                       11384    0.24    0.00  1.0000
  -7   2   1    2119     171                                                        2050    0.11    0.00  1.0000
  -7   2   0     275      84                                                         288   -0.05    0.00  1.0000
  -7   2   0     319      78                                                         332   -0.05    0.00  1.0000
  -7   2  -1    4951     269                                                        4808   -0.14    0.00  1.0000
  -7   2  -1    5070     252                                                        4925   -0.14    0.00  1.0000
  -7   2  -2   13941     466                                                       14223   -0.17    0.00  1.0000
  -7   2  -3    3959     243                                                        3835   -0.14    0.00  1.0000
  -7   2  -4    4565     256                                                        4639   -0.08    0.00  1.0000
  -7   2  -5    3180     195                                                        3166   -0.02    0.00  1.0000
  -7   2  -6    1109     102                                                        1109    0.00    0.00  1.0000
  -7   1   7    3007     148                                                        3031    0.03    0.00  1.0000
  -7   1   6   10777     323                                                       10713    0.04    0.00  1.0000
  -7   1   5    5964     265                                                        6016    0.05    0.00  1.0000
  -7   1   5    6019     261                                                        6072    0.05    0.00  1.0000
  -7   1   4     331      74                                                         323   -0.03    0.00  1.0000
  -7   1   4     283      75                                                         275   -0.03    0.00  1.0000
  -7   1   3     339      77                                                         392   -0.19    0.00  1.0000
  -7   1   3     419      93                                                         478   -0.19    0.00  1.0000
  -7   1   2   33353     665                                                       32539   -0.31    0.00  1.0000
  -7   1   1   28590     627                                                       29222   -0.26    0.00  1.0000
  -7   1   0    8505     336                                                        8412   -0.07    0.00  1.0000
  -7   1   0    9483     357                                                        9385   -0.07    0.00  1.0000
  -7   1  -1     307      75                                                         284    0.09    0.00  1.0000
  -7   1  -2    2709     206                                                        2611    0.13    0.00  1.0000
  -7   1  -3    3212     225                                                        3154    0.07    0.00  1.0000
  -7   1  -4     203      72                                                         201   -0.01    0.00  1.0000
  -7   1  -5    1295     143                                                        1263   -0.06    0.00  1.0000
  -7   1  -6    4811     241                                                        4864   -0.05    0.00  1.0000
  -7   1  -7    1077      99                                                        1081    0.01    0.00  1.0000
  -7   0   7     426      58                                                         408   -0.06    0.00  1.0000
  -7   0   6    6345     254                                                        6399   -0.05    0.00  1.0000
  -7   0   5   13888     409                                                       13794   -0.06    0.00  1.0000
  -7   0   5   13209     362                                                       13117   -0.06    0.00  1.0000
  -7   0   4    2914     193                                                        2967   -0.07    0.00  1.0000
  -7   0   3   13418     414                                                       13405   -0.01    0.00  1.0000
  -7   0   2    2932     204                                                        3030    0.12    0.00  1.0000
  -7   0   1    9238     350                                                        8965    0.20    0.00  1.0000
  -7   0   0    9853     376                                                       10008    0.11    0.00  1.0000
  -7   0  -1   13981     388                                                       14105   -0.07    0.00  1.0000
  -7   0  -1   13165     419                                                       13284   -0.07    0.00  1.0000
  -7   0  -2     109      48                                                         136   -0.17    0.00  1.0000
  -7   0  -2     174      72                                                         208   -0.17    0.00  1.0000
  -7   0  -3   10674     409                                                       10847   -0.12    0.00  1.0000
  -7   0  -4    3124     228                                                        3133    0.01    0.00  1.0000
  -7   0  -5     300      72                                                         274    0.11    0.00  1.0000
  -7   0  -6    2468     188                                                        2375    0.13    0.00  1.0000
  -7   0  -7    2741     183                                                        2799    0.08    0.00  1.0000
  -7   0  -8    3522     159                                                        3529   -0.01    0.00  1.0000
  -7  -1   7    1337      90                                                        1283    0.10    0.00  1.0000
  -7  -1   6      25      40                                                          33    0.10    0.00  1.0000
   7   1  -5    4650     192                                                        4715    0.07    0.00  1.0000
  -7  -1   5    4618     192                                                        4683    0.07    0.00  1.0000
   7   1  -4    1386     117                                                        1343    0.08    0.00  1.0000
  -7  -1   4    1574     133                                                        1527    0.08    0.00  1.0000
   7   1  -3   27663     538                                                       27975    0.13    0.00  1.0000
  -7  -1   3   29129     585                                                       29449    0.13    0.00  1.0000
   7   1  -2    4989     230                                                        4877    0.11    0.00  1.0000
  -7  -1   2    5066     252                                                        4953    0.11    0.00  1.0000
  -7  -1   1     802     111                                                         804    0.01    0.00  1.0000
   7   1  -1     669      94                                                         671    0.01    0.00  1.0000
  -7  -1   0     527      90                                                         506   -0.06    0.00  1.0000
  -7  -1   0     469      90                                                         449   -0.06    0.00  1.0000
   7   1   0     485      75                                                         465   -0.06    0.00  1.0000
  -7  -1  -1   26864     575                                                       26883   -0.01    0.00  1.0000
  -7  -1  -2      66      49                                                          55    0.10    0.00  1.0000
  -7  -1  -2     266      65                                                         243    0.10    0.00  1.0000
  -7  -1  -3   14391     412                                                       14185    0.12    0.00  1.0000
  -7  -1  -3   14047     443                                                       13843    0.12    0.00  1.0000
  -7  -1  -4    9338     334                                                        9409    0.05    0.00  1.0000
  -7  -1  -4    9680     388                                                        9752    0.05    0.00  1.0000
  -7  -1  -5    7716     289                                                        7746   -0.02    0.00  1.0000
  -7  -1  -5    8216     363                                                        8247   -0.02    0.00  1.0000
  -7  -1  -6     117      46                                                         108   -0.05    0.00  1.0000
  -7  -1  -6       0      53                                                         -24   -0.05    0.00  1.0000
  -7  -1  -7    1501     147                                                        1477   -0.04    0.00  1.0000
  -7  -1  -8    2928     168                                                        2935   -0.01    0.00  1.0000
  -7  -1  -9    1698      96                                                        1716    0.03    0.00  1.0000
   7   2  -6    3002     130                                                        2902   -0.13    0.00  1.0000
  -7  -2   6    3239     163                                                        3136   -0.13    0.00  1.0000
   7   2  -5      31      37                                                          24   -0.10    0.00  1.0000
   7   2  -4     925     104                                                         895   -0.07    0.00  1.0000
   7   2  -3   15649     420                                                       15453   -0.11    0.00  1.0000
  -7  -2   3   15907     398                                                       15709   -0.11    0.00  1.0000
   7   2  -2   16344     442                                                       16697   -0.19    0.00  1.0000
  -7  -2   2   16596     432                                                       16951   -0.19    0.00  1.0000
   7   2  -1   12991     385                                                       12698   -0.18    0.00  1.0000
  -7  -2   1   12960     386                                                       12666   -0.18    0.00  1.0000
  -7  -2   0   12934     417                                                       13024   -0.05    0.00  1.0000
  -7  -2   0   12161     391                                                       12247   -0.05    0.00  1.0000
  -7  -2  -1    3701     223                                                        3647    0.06    0.00  1.0000
  -7  -2  -2   33140     661                                                       32935    0.08    0.00  1.0000
  -7  -2  -3    1041     127                                                        1062    0.04    0.00  1.0000
  -7  -2  -4    1242     139                                                        1251    0.02    0.00  1.0000
  -7  -2  -4    1386     144                                                        1396    0.02    0.00  1.0000
  -7  -2  -5   15498     458                                                       15527   -0.02    0.00  1.0000
  -7  -2  -5   16155     491                                                       16184   -0.02    0.00  1.0000
  -7  -2  -6   16109     445                                                       15973   -0.08    0.00  1.0000
  -7  -2  -7    6247     252                                                        6373   -0.11    0.00  1.0000
  -7  -2  -8    1413      96                                                        1363   -0.09    0.00  1.0000
  -7  -2  -9     273      49                                                         259   -0.06    0.00  1.0000
   7   3  -6    2549     116                                                        2565    0.02    0.00  1.0000
  -7  -3   6    2214     120                                                        2229    0.02    0.00  1.0000
   7   3  -5    1015      92                                                         987    0.06    0.00  1.0000
   7   3  -4    8901     306                                                        8968    0.05    0.00  1.0000
   7   3  -3     348      78                                                         364    0.06    0.00  1.0000
   7   3  -2    2955     191                                                        2840    0.15    0.00  1.0000
   7   3  -1    3116     206                                                        3313    0.24    0.00  1.0000
  -7  -3   1    3193     185                                                        3393    0.24    0.00  1.0000
  -7  -3   0   21109     535                                                       20681    0.21    0.00  1.0000
   7   3   0   20456     500                                                       20035    0.21    0.00  1.0000
  -7  -3   0   20082     462                                                       19664    0.21    0.00  1.0000
  -7  -3  -1    4449     247                                                        4394    0.06    0.00  1.0000
  -7  -3  -1    3909     212                                                        3858    0.06    0.00  1.0000
  -7  -3  -2   23629     574                                                       23790   -0.07    0.00  1.0000
  -7  -3  -3    3555     227                                                        3454   -0.12    0.00  1.0000
  -7  -3  -4    1426     154                                                        1485   -0.11    0.00  1.0000
  -7  -3  -5    1301     148                                                        1325   -0.05    0.00  1.0000
  -7  -3  -6   17921     513                                                       18047    0.07    0.00  1.0000
  -7  -3  -7   12194     401                                                       11941    0.16    0.00  1.0000
  -7  -3  -7   12545     442                                                       12289    0.16    0.00  1.0000
  -7  -3  -8    8142     287                                                        8338    0.15    0.00  1.0000
  -7  -3  -8    8439     331                                                        8638    0.15    0.00  1.0000
  -7  -3  -9     722      65                                                         699    0.06    0.00  1.0000
   7   4  -5     231      48                                                         219    0.06    0.00  1.0000
   7   4  -4    7020     265                                                        7022    0.00    0.00  1.0000
   7   4  -3    3854     215                                                        3881   -0.03    0.00  1.0000
   7   4  -2    2775     187                                                        2705   -0.09    0.00  1.0000
   7   4  -1    3050     205                                                        3207   -0.20    0.00  1.0000
   7   4   0    9303     358                                                        9652   -0.25    0.00  1.0000
  -7  -4  -1   10678     388                                                       10969   -0.19    0.00  1.0000
  -7  -4  -2   12511     424                                                       12668   -0.10    0.00  1.0000
  -7  -4  -3   17770     507                                                       17683   -0.05    0.00  1.0000
  -7  -4  -3   18099     535                                                       18012   -0.05    0.00  1.0000
  -7  -4  -4   21321     565                                                       21381   -0.03    0.00  1.0000
  -7  -4  -4   21378     571                                                       21438   -0.03    0.00  1.0000
  -7  -4  -5    9922     396                                                        9900   -0.02    0.00  1.0000
  -7  -4  -5    9908     372                                                        9885   -0.02    0.00  1.0000
  -7  -4  -6    3029     224                                                        3002   -0.03    0.00  1.0000
  -7  -4  -6    3082     191                                                        3055   -0.03    0.00  1.0000
  -7  -4  -7     992     141                                                        1031   -0.09    0.00  1.0000
  -7  -4  -8    4989     251                                                        4900   -0.09    0.00  1.0000
  -7  -4  -8    4633     224                                                        4547   -0.09    0.00  1.0000
  -7  -4  -9    4213     181                                                        4206    0.01    0.00  1.0000
   7   5  -5     649      61                                                         623   -0.07    0.00  1.0000
   7   5  -4    1132     100                                                        1127   -0.01    0.00  1.0000
   7   5  -3    2886     175                                                        2843    0.06    0.00  1.0000
   7   5  -2    2506     181                                                        2575    0.09    0.00  1.0000
   7   5  -1    6928     296                                                        6772    0.13    0.00  1.0000
   7   5   0    3267     206                                                        3138    0.16    0.00  1.0000
  -7  -5  -1   18910     492                                                       18620    0.15    0.00  1.0000
  -7  -5  -2      29      44                                                          39    0.13    0.00  1.0000
  -7  -5  -3    2287     186                                                        2398    0.16    0.00  1.0000
  -7  -5  -3    2307     203                                                        2418    0.16    0.00  1.0000
  -7  -5  -4   11499     402                                                       11159    0.22    0.00  1.0000
  -7  -5  -4   12366     442                                                       12013    0.22    0.00  1.0000
  -7  -5  -5   57120     934                                                       57874    0.22    0.00  1.0000
  -7  -5  -5   56664     942                                                       57415    0.22    0.00  1.0000
  -7  -5  -6   23485     593                                                       23183    0.14    0.00  1.0000
  -7  -5  -6   23380     563                                                       23078    0.14    0.00  1.0000
  -7  -5  -7   22749     587                                                       22892    0.07    0.00  1.0000
  -7  -5  -7   21634     482                                                       21772    0.07    0.00  1.0000
  -7  -5  -8      83      55                                                          79    0.03    0.00  1.0000
  -7  -5  -9    2975     165                                                        3008   -0.04    0.00  1.0000
  -7  -5 -10    4802     147                                                        4665   -0.14    0.00  1.0000
   7   6  -4      51      32                                                          55   -0.04    0.00  1.0000
   7   6  -3     205      54                                                         226   -0.10    0.00  1.0000
   7   6  -2     211      57                                                         184   -0.13    0.00  1.0000
   7   6  -1    5292     253                                                        5410   -0.11    0.00  1.0000
   7   6   0    2010     165                                                        2054   -0.07    0.00  1.0000
   7   6   1   13378     412                                                       13400   -0.01    0.00  1.0000
  -7  -6  -2    8753     327                                                        8769    0.01    0.00  1.0000
  -7  -6  -3    6826     296                                                        6891   -0.05    0.00  1.0000
  -7  -6  -3    7221     336                                                        7288   -0.05    0.00  1.0000
  -7  -6  -4    2522     182                                                        2375   -0.21    0.00  1.0000
  -7  -6  -4    2887     215                                                        2729   -0.21    0.00  1.0000
  -7  -6  -5   15789     455                                                       15230   -0.31    0.00  1.0000
  -7  -6  -5   16114     502                                                       15548   -0.31    0.00  1.0000
  -7  -6  -6    2561     196                                                        2757   -0.26    0.00  1.0000
  -7  -6  -6    2656     218                                                        2855   -0.26    0.00  1.0000
  -7  -6  -7    5802     275                                                        5667   -0.12    0.00  1.0000
  -7  -6  -7    6115     276                                                        5977   -0.12    0.00  1.0000
  -7  -6  -8    1456     132                                                        1468   -0.02    0.00  1.0000
  -7  -6  -8    1458     114                                                        1470   -0.02    0.00  1.0000
  -7  -6  -9     394      64                                                         401    0.02    0.00  1.0000
  -7  -6 -10     162      33                                                         175    0.07    0.00  1.0000
   7   7  -3    1415      88                                                        1455    0.07    0.00  1.0000
   7   7  -2    2130     129                                                        2063    0.10    0.00  1.0000
   7   7  -1     412      68                                                         388    0.08    0.00  1.0000
   7   7   0    3795     201                                                        3774    0.02    0.00  1.0000
   7   7   1    3135     195                                                        3177   -0.05    0.00  1.0000
   7   7   2    9084     325                                                        8937   -0.11    0.00  1.0000
  -7  -7  -3   13530     379                                                       13675   -0.09    0.00  1.0000
  -7  -7  -3   13842     437                                                       13989   -0.09    0.00  1.0000
  -7  -7  -4   21873     489                                                       21971    0.05    0.00  1.0000
  -7  -7  -4   22482     570                                                       22581    0.05    0.00  1.0000
  -7  -7  -5      34      39                                                          54    0.21    0.00  1.0000
  -7  -7  -5       4      53                                                          12    0.21    0.00  1.0000
  -7  -7  -6     334      74                                                         408    0.27    0.00  1.0000
  -7  -7  -6     412     100                                                         493    0.27    0.00  1.0000
  -7  -7  -7    5633     250                                                        5816    0.17    0.00  1.0000
  -7  -7  -7    5757     283                                                        5942    0.17    0.00  1.0000
  -7  -7  -8   12769     340                                                       12708    0.04    0.00  1.0000
  -7  -7  -8   14033     351                                                       13969    0.04    0.00  1.0000
  -7  -7  -9    7380     224                                                        7353   -0.02    0.00  1.0000
  -7  -7  -9    7221     181                                                        7195   -0.02    0.00  1.0000
   7   8  -1     693      69                                                         698   -0.01    0.00  1.0000
   7   8   0    3255     159                                                        3250    0.01    0.00  1.0000
   7   8   1     464      69                                                         481    0.05    0.00  1.0000
   7   8   2       1      40                                                         -10    0.10    0.00  1.0000
   7   8   3     832      90                                                         779    0.13    0.00  1.0000
  -7  -8  -4   16835     364                                                       16994    0.09    0.00  1.0000
  -7  -8  -4   18120     466                                                       18285    0.09    0.00  1.0000
  -7  -8  -5    4128     185                                                        4156   -0.03    0.00  1.0000
  -7  -8  -5    4503     240                                                        4533   -0.03    0.00  1.0000
  -7  -8  -6    9598     275                                                        9411   -0.13    0.00  1.0000
  -7  -8  -6    9904     353                                                        9714   -0.13    0.00  1.0000
  -7  -8  -7     765      82                                                         819   -0.13    0.00  1.0000
  -7  -8  -7     675      96                                                         726   -0.13    0.00  1.0000
  -7  -8  -8    1967     114                                                        2002   -0.05    0.00  1.0000
  -7  -8  -8    1981     130                                                        2016   -0.05    0.00  1.0000
  -7  -8  -9    2986     116                                                        2996    0.01    0.00  1.0000
  -7  -8  -9    3338     123                                                        3349    0.01    0.00  1.0000
   7   9   2    1999     109                                                        2028   -0.05    0.00  1.0000
   7   9   3    1866     110                                                        1810   -0.09    0.00  1.0000
   7   9   4    2823     136                                                        2731   -0.12    0.00  1.0000
   7   9   5     962      82                                                        1008   -0.10    0.00  1.0000
  -7  -9  -5    1145     107                                                        1195   -0.10    0.00  1.0000
  -7  -9  -6    6819     248                                                        6775   -0.04    0.00  1.0000
  -7  -9  -7    5341     208                                                        5322    0.02    0.00  1.0000
  -7  -9  -8    1100      86                                                        1112    0.03    0.00  1.0000
  -7 -10  -7    2987     117                                                        2928    0.07    0.00  1.0000
  -8   3   4     600      60                                                         576   -0.07    0.00  1.0000
  -8   3   3      88      36                                                          82   -0.04    0.00  1.0000
  -8   3   2     257      54                                                         263   -0.02    0.00  1.0000
  -8   3   1    6420     215                                                        6368   -0.05    0.00  1.0000
  -8   3   0    1008      88                                                        1043   -0.08    0.00  1.0000
  -8   3  -1      85      35                                                          74   -0.08    0.00  1.0000
  -8   3  -2     314      42                                                         331   -0.07    0.00  1.0000
  -8   2   4    7250     226                                                        7353    0.08    0.00  1.0000
  -8   2   3    3309     166                                                        3219    0.11    0.00  1.0000
  -8   2   2    3528     182                                                        3630    0.12    0.00  1.0000
  -8   2   1    2444     159                                                        2530    0.12    0.00  1.0000
  -8   2   0     921      97                                                         869    0.12    0.00  1.0000
  -8   2  -1    2503     152                                                        2588    0.12    0.00  1.0000
  -8   2  -2   10789     289                                                       10636    0.10    0.00  1.0000
  -8   2  -3    4842     206                                                        4941    0.10    0.00  1.0000
  -8   2  -3    5157     181                                                        5258    0.10    0.00  1.0000
  -8   2  -4    1751     113                                                        1688    0.10    0.00  1.0000
  -8   1   4    1596     112                                                        1631    0.06    0.00  1.0000
  -8   1   3    1361     115                                                        1361    0.00    0.00  1.0000
  -8   1   2   10996     329                                                       10880   -0.08    0.00  1.0000
  -8   1   1     398      80                                                         436   -0.13    0.00  1.0000
  -8   1   0    1237     118                                                        1174   -0.13    0.00  1.0000
  -8   1  -1     519      89                                                         546   -0.08    0.00  1.0000
  -8   1  -2    3469     190                                                        3498   -0.03    0.00  1.0000
  -8   1  -2    3533     193                                                        3562   -0.03    0.00  1.0000
  -8   1  -3    2875     171                                                        2864   -0.01    0.00  1.0000
  -8   1  -3    2814     161                                                        2803   -0.01    0.00  1.0000
  -8   1  -4    5996     234                                                        6036   -0.04    0.00  1.0000
  -8   1  -4    6523     221                                                        6565   -0.04    0.00  1.0000
  -8   1  -5     872      82                                                         844   -0.07    0.00  1.0000
  -8   1  -5     967      73                                                         936   -0.07    0.00  1.0000
  -8   0   5    3368     134                                                        3258   -0.13    0.00  1.0000
  -8   0   4     504      68                                                         559   -0.17    0.00  1.0000
  -8   0   4     481      68                                                         535   -0.17    0.00  1.0000
  -8   0   3      43      32                                                          58   -0.15    0.00  1.0000
  -8   0   3       0      38                                                           2   -0.15    0.00  1.0000
  -8   0   2   14006     372                                                       13893   -0.07    0.00  1.0000
  -8   0   1    5961     255                                                        5919    0.04    0.00  1.0000
  -8   0   0    7903     302                                                        8013    0.09    0.00  1.0000
  -8   0  -1   10594     348                                                       10532    0.04    0.00  1.0000
  -8   0  -2     222      56                                                         211   -0.05    0.00  1.0000
  -8   0  -2     249      67                                                         237   -0.05    0.00  1.0000
  -8   0  -3     293      67                                                         324   -0.12    0.00  1.0000
  -8   0  -4    2556     165                                                        2640   -0.12    0.00  1.0000
  -8   0  -5     451      70                                                         441   -0.03    0.00  1.0000
  -8   0  -6    1243      93                                                        1209    0.07    0.00  1.0000
  -8  -1   5    3041     135                                                        3130    0.11    0.00  1.0000
  -8  -1   4    5880     213                                                        5766    0.10    0.00  1.0000
  -8  -1   4    5071     160                                                        4966    0.10    0.00  1.0000
  -8  -1   3    6020     238                                                        6135    0.10    0.00  1.0000
  -8  -1   3    5943     221                                                        6057    0.10    0.00  1.0000
  -8  -1   2     789      93                                                         826    0.09    0.00  1.0000
  -8  -1   1     196      58                                                         189    0.04    0.00  1.0000
  -8  -1   0    1235     123                                                        1223   -0.03    0.00  1.0000
  -8  -1  -1   15565     427                                                       15633   -0.04    0.00  1.0000
  -8  -1  -2    8523     322                                                        8551    0.02    0.00  1.0000
  -8  -1  -3   12957     327                                                       12783    0.11    0.00  1.0000
  -8  -1  -4      68      39                                                          88    0.15    0.00  1.0000
  -8  -1  -4      43      41                                                          59    0.15    0.00  1.0000
  -8  -1  -5     152      59                                                         175    0.12    0.00  1.0000
  -8  -1  -6    1011      96                                                        1006    0.01    0.00  1.0000
  -8  -1  -7    4694     157                                                        4579   -0.12    0.00  1.0000
  -8  -2   5      24      23                                                          30   -0.08    0.00  1.0000
  -8  -2   4      78      39                                                          78    0.00    0.00  1.0000
   8   2  -3    2501     129                                                        2546    0.06    0.00  1.0000
   8   2  -2    1459     110                                                        1431    0.05    0.00  1.0000
  -8  -2   2    1296     103                                                        1269    0.05    0.00  1.0000
   8   2  -1    5409     215                                                        5404    0.00    0.00  1.0000
  -8  -2   1    5242     220                                                        5237    0.00    0.00  1.0000
   8   2   0    2648     154                                                        2670   -0.03    0.00  1.0000
  -8  -2   0    2907     177                                                        2929   -0.03    0.00  1.0000
   8   2   1    3507     179                                                        3509    0.00    0.00  1.0000
  -8  -2  -1    3750     207                                                        3752    0.00    0.00  1.0000
  -8  -2  -2    3914     211                                                        3947    0.04    0.00  1.0000
  -8  -2  -2    4109     221                                                        4142    0.04    0.00  1.0000
  -8  -2  -3   15163     398                                                       15071    0.05    0.00  1.0000
  -8  -2  -4    3665     191                                                        3693    0.03    0.00  1.0000
  -8  -2  -5    1985     131                                                        1995   -0.02    0.00  1.0000
  -8  -2  -6    3196     138                                                        3158   -0.05    0.00  1.0000
  -8  -2  -6    3129     166                                                        3091   -0.05    0.00  1.0000
  -8  -2  -7     449      58                                                         446   -0.01    0.00  1.0000
   8   3  -4    1783      93                                                        1792   -0.02    0.00  1.0000
  -8  -3   4    1922     119                                                        1932   -0.02    0.00  1.0000
   8   3  -3   15487     321                                                       15252   -0.13    0.00  1.0000
   8   3  -2   14519     351                                                       14836   -0.18    0.00  1.0000
   8   3  -1   10555     310                                                       10405   -0.10    0.00  1.0000
   8   3   0   10515     319                                                       10477    0.03    0.00  1.0000
  -8  -3   0    9813     288                                                        9776    0.03    0.00  1.0000
   8   3   1    4944     225                                                        5028    0.08    0.00  1.0000
  -8  -3  -1    5272     228                                                        5359    0.08    0.00  1.0000
  -8  -3  -2    5856     265                                                        5822    0.03    0.00  1.0000
  -8  -3  -2    5491     240                                                        5457    0.03    0.00  1.0000
  -8  -3  -3     652      97                                                         684   -0.09    0.00  1.0000
  -8  -3  -4    2368     162                                                        2235   -0.19    0.00  1.0000
  -8  -3  -5    2739     177                                                        2891   -0.20    0.00  1.0000
  -8  -3  -6   16091     375                                                       15932   -0.09    0.00  1.0000
  -8  -3  -7    2855     132                                                        2811    0.06    0.00  1.0000
  -8  -4   4    2836     122                                                        2826   -0.01    0.00  1.0000
   8   4  -3    3172     142                                                        3119    0.07    0.00  1.0000
   8   4  -2    4364     194                                                        4523    0.17    0.00  1.0000
   8   4  -1     482      74                                                         432    0.16    0.00  1.0000
   8   4   0    3233     184                                                        3200    0.04    0.00  1.0000
   8   4   1    9003     302                                                        8889   -0.08    0.00  1.0000
  -8  -4  -2    8115     313                                                        8263   -0.11    0.00  1.0000
  -8  -4  -2    7861     255                                                        8007   -0.11    0.00  1.0000
  -8  -4  -3     649      97                                                         636   -0.04    0.00  1.0000
  -8  -4  -3     550      74                                                         538   -0.04    0.00  1.0000
  -8  -4  -4      36      46                                                          28    0.10    0.00  1.0000
  -8  -4  -5     151      59                                                         190    0.21    0.00  1.0000
  -8  -4  -6   14094     392                                                       14428    0.19    0.00  1.0000
  -8  -4  -7    5205     211                                                        5156    0.05    0.00  1.0000
  -8  -4  -8    4149     138                                                        4046   -0.11    0.00  1.0000
   8   5  -3    1164      80                                                        1147    0.04    0.00  1.0000
   8   5  -2     870      84                                                         850   -0.05    0.00  1.0000
   8   5  -1     463      75                                                         499   -0.11    0.00  1.0000
   8   5   0     807      94                                                         777   -0.07    0.00  1.0000
   8   5   1     346      67                                                         353    0.02    0.00  1.0000
   8   5   2    5300     235                                                        5208    0.09    0.00  1.0000
  -8  -5  -2    5752     248                                                        5656    0.09    0.00  1.0000
  -8  -5  -3    9308     324                                                        9433    0.09    0.00  1.0000
  -8  -5  -4    5884     255                                                        5832    0.05    0.00  1.0000
  -8  -5  -5   11253     352                                                       11221   -0.02    0.00  1.0000
  -8  -5  -6      24      41                                                          30   -0.08    0.00  1.0000
  -8  -5  -7     191      49                                                         176   -0.08    0.00  1.0000
  -8  -5  -8    1146      83                                                        1148    0.00    0.00  1.0000
   8   6  -2     986      75                                                         957   -0.07    0.00  1.0000
   8   6  -1     767      80                                                         767    0.00    0.00  1.0000
   8   6   0    2234     140                                                        2248    0.02    0.00  1.0000
   8   6   1      31      37                                                          29   -0.02    0.00  1.0000
   8   6   2     557      81                                                         576   -0.05    0.00  1.0000
  -8  -6  -3     815      95                                                         798   -0.04    0.00  1.0000
  -8  -6  -4    1977     143                                                        1996   -0.03    0.00  1.0000
  -8  -6  -5   27355     512                                                       27235   -0.05    0.00  1.0000
  -8  -6  -6   15831     381                                                       15940   -0.06    0.00  1.0000
  -8  -6  -7    6767     229                                                        6735   -0.03    0.00  1.0000
  -8  -6  -8     173      38                                                         172    0.01    0.00  1.0000
   8   7  -1       0      24                                                         -28    0.08    0.00  1.0000
   8   7   0    5443     190                                                        5488    0.04    0.00  1.0000
   8   7   1    7185     230                                                        7120    0.05    0.00  1.0000
   8   7   2    9046     269                                                        9141    0.07    0.00  1.0000
   8   7   3    4485     194                                                        4468    0.02    0.00  1.0000
  -8  -7  -4    1356     104                                                        1323   -0.06    0.00  1.0000
   8   7   4    1268     103                                                        1236   -0.06    0.00  1.0000
  -8  -7  -5    2203     130                                                        2157   -0.07    0.00  1.0000
  -8  -7  -6     756      77                                                         753    0.01    0.00  1.0000
  -8  -7  -7     844      74                                                         871    0.06    0.00  1.0000
   8   8   1     119      32                                                         125   -0.04    0.00  1.0000
   8   8   2     628      61                                                         609   -0.05    0.00  1.0000
   8   8   3    2308     118                                                        2324   -0.02    0.00  1.0000
   8   8   4    6026     192                                                        6118    0.08    0.00  1.0000
   8   8   5    2060     109                                                        1951    0.17    0.00  1.0000
   8   8   6      20      24                                                          30    0.14    0.00  1.0000
  -8  -8  -6      59      25                                                          75    0.14    0.00  1.0000
  -9   1   1      49      25                                                          41   -0.08    0.00  1.0000
  -9   1   0    1372      84                                                        1316   -0.11    0.00  1.0000
  -9   1  -1    5691     164                                                        5618   -0.07    0.00  1.0000
  -9   0   1    2101     107                                                        2071    0.05    0.00  1.0000
  -9   0   0    9751     243                                                        9934    0.13    0.00  1.0000
  -9   0  -1     494      60                                                         458    0.12    0.00  1.0000
  -9   0  -2     960      81                                                         954    0.01    0.00  1.0000
  -9   0  -3     921      71                                                         887   -0.08    0.00  1.0000
  -9  -1   1     124      32                                                         115    0.06    0.00  1.0000
  -9  -1   0   11172     257                                                       11056   -0.08    0.00  1.0000
  -9  -1  -1   10046     258                                                       10252   -0.14    0.00  1.0000
  -9  -1  -2    3144     146                                                        3090   -0.07    0.00  1.0000
  -9  -1  -3     793      74                                                         765    0.07    0.00  1.0000
  -9  -1  -4    1943     102                                                        1849    0.15    0.00  1.0000
  -9  -2   0    3212     128                                                        3189   -0.03    0.00  1.0000
  -9  -2  -1   13670     283                                                       13521    0.09    0.00  1.0000
  -9  -2  -2   15569     317                                                       15698    0.07    0.00  1.0000
  -9  -2  -3   10812     265                                                       10890   -0.05    0.00  1.0000
  -9  -2  -4     952      79                                                         889   -0.14    0.00  1.0000
  -9  -2  -5    5363     164                                                        5218   -0.14    0.00  1.0000
  -9  -3  -2     969      73                                                         927   -0.10    0.00  1.0000
  -9  -3  -3    6744     194                                                        6710    0.03    0.00  1.0000
  -9  -3  -4    9738     236                                                        9970    0.16    0.00  1.0000
  -9  -3  -5      40      26                                                          26    0.16    0.00  1.0000
   9   4   0    7465     181                                                        7548   -0.07    0.00  1.0000
   9   4   1    7002     190                                                        7147    0.12    0.00  1.0000
   9   4   2     177      35                                                         125    0.30    0.00  1.0000
   9   4   3    1678      91                                                        1538    0.24    0.00  1.0000
   9   4   4    9812     214                                                        9832    0.01    0.00  1.0000
   9   5   1    9917     217                                                        9759   -0.11    0.00  1.0000
   9   5   2    7682     208                                                        8274   -0.46    0.00  1.0000
   9   5   3    4134     138                                                        3552   -0.65    0.00  1.0000
   9   5   4    2310     104                                                        1980   -0.50    0.00  1.0000
   9   6   2    5195     148                                                        4902    0.29    0.00  1.0000
   9   6   3    9608     221                                                       10575    0.67    0.00  1.0000
   9   6   4    3148     109                                                        2550    0.78    0.00  1.0000
   0   0   0      31       0                                                           0    0.78    0.00  1.0000

;
_shelx_hkl_checksum              48997
loop_
_space_group_symop_operation_xyz
'x, y, z'
'-x, -y, -z'
loop_
_atom_site_label
_atom_site_type_symbol
_atom_site_fract_x
_atom_site_fract_y
_atom_site_fract_z
_atom_site_U_iso_or_equiv
_atom_site_adp_type
_atom_site_occupancy
_atom_site_site_symmetry_order
_atom_site_calc_flag
_atom_site_refinement_flags_posn
_atom_site_refinement_flags_adp
Cu1 Cu 0.12860(3) 0.84097(4) 0.57788(3) 0.04406(13) Uani 1 1 d . .
F2 F -0.78221(14) 0.98802(17) 0.87590(14) 0.0532(3) Uani 1 1 d . .
F1 F -0.15322(15) 0.92862(19) 0.91995(15) 0.0648(4) Uani 1 1 d . .
N2 N -0.6744(2) 0.8728(2) 0.6499(2) 0.0493(5) Uani 1 1 d . .
N1 N -0.1148(2) 0.8881(3) 0.6458(2) 0.0578(6) Uani 1 1 d . .
N3 N 0.1494(2) 0.7266(2) 0.4617(2) 0.0443(4) Uani 1 1 d . .
C8 C 0.0867(4) 0.7127(4) 0.2529(3) 0.0663(7) Uani 1 1 d . .
H8 H 0.0409 0.7615 0.1640 0.080 Uiso 1 1 calc R U
C3 C -0.4271(2) 0.9131(2) 0.7658(2) 0.0416(5) Uani 1 1 d . .
C6 C -0.6370(2) 0.9920(2) 0.9356(2) 0.0379(4) Uani 1 1 d . .
C1 C -0.2553(3) 0.8989(3) 0.7019(2) 0.0464(5) Uani 1 1 d . .
C5 C -0.3285(2) 0.9642(2) 0.9561(2) 0.0408(4) Uani 1 1 d . .
C4 C -0.4636(2) 0.9546(2) 0.8842(2) 0.0363(4) Uani 1 1 d . .
C11 C 0.2214(3) 0.5830(3) 0.5093(3) 0.0485(5) Uani 1 1 d . .
C2 C -0.5645(2) 0.8909(2) 0.7037(2) 0.0397(4) Uani 1 1 d . .
C10 C 0.2244(3) 0.5014(3) 0.4279(3) 0.0608(7) Uani 1 1 d . .
C9 C 0.1546(4) 0.5722(4) 0.2979(3) 0.0702(8) Uani 1 1 d . .
H9 H 0.1552 0.5208 0.2410 0.084 Uiso 1 1 calc R U
C7 C 0.0844(3) 0.7868(3) 0.3397(3) 0.0536(6) Uani 1 1 d . .
H7 H 0.0330 0.8855 0.3079 0.064 Uiso 1 1 calc R U
C15 C 0.3000(4) 0.3536(3) 0.4837(4) 0.0781(10) Uani 1 1 d . .
H15 H 0.3009 0.2966 0.4320 0.094 Uiso 1 1 calc R U
C12 C 0.2940(3) 0.5156(3) 0.6395(3) 0.0588(6) Uani 1 1 d . .
H12 H 0.2918 0.5690 0.6948 0.071 Uiso 1 1 calc R U
C14 C 0.3704(4) 0.2924(4) 0.6082(5) 0.0840(10) Uani 1 1 d . .
H14 H 0.4219 0.1937 0.6424 0.101 Uiso 1 1 calc R U
C13 C 0.3683(4) 0.3727(3) 0.6872(4) 0.0771(9) Uani 1 1 d . .
H13 H 0.4186 0.3284 0.7747 0.092 Uiso 1 1 calc R U
loop_
_atom_site_aniso_label
_atom_site_aniso_U_11
_atom_site_aniso_U_22
_atom_site_aniso_U_33
_atom_site_aniso_U_23
_atom_site_aniso_U_13
_atom_site_aniso_U_12
Cu1 0.02080(16) 0.0825(2) 0.0549(2) -0.05298(18) 0.00196(12) -0.01207(13)
F2 0.0169(5) 0.1137(10) 0.0607(7) -0.0673(8) -0.0027(5) -0.0092(5)
F1 0.0148(5) 0.1455(13) 0.0732(9) -0.0868(10) 0.0013(5) -0.0069(6)
N2 0.0229(8) 0.0951(14) 0.0593(11) -0.0606(11) 0.0033(7) -0.0123(8)
N1 0.0228(8) 0.1224(17) 0.0688(12) -0.0788(13) 0.0055(8) -0.0172(9)
N3 0.0228(7) 0.0758(11) 0.0587(10) -0.0507(9) 0.0024(7) -0.0122(7)
C8 0.0511(14) 0.112(2) 0.0699(16) -0.0689(16) -0.0039(12) -0.0157(14)
C3 0.0185(8) 0.0803(13) 0.0475(10) -0.0473(10) 0.0010(7) -0.0090(8)
C6 0.0174(8) 0.0711(12) 0.0432(10) -0.0391(9) -0.0035(7) -0.0096(7)
C1 0.0257(10) 0.0888(15) 0.0529(11) -0.0560(12) -0.0014(8) -0.0114(9)
C5 0.0152(8) 0.0778(13) 0.0482(11) -0.0451(10) 0.0022(7) -0.0075(8)
C4 0.0209(8) 0.0637(11) 0.0401(9) -0.0365(9) 0.0002(7) -0.0081(7)
C11 0.0257(9) 0.0684(13) 0.0717(14) -0.0471(12) 0.0139(9) -0.0201(9)
C2 0.0229(8) 0.0711(12) 0.0438(10) -0.0430(10) 0.0023(7) -0.0075(8)
C10 0.0381(11) 0.0821(16) 0.093(2) -0.0651(15) 0.0248(12) -0.0300(11)
C9 0.0552(14) 0.108(2) 0.093(2) -0.0850(19) 0.0191(13) -0.0293(14)
C7 0.0334(10) 0.0879(16) 0.0663(14) -0.0580(13) -0.0055(9) -0.0072(10)
C15 0.0584(16) 0.0765(18) 0.127(3) -0.070(2) 0.0374(18) -0.0347(14)
C12 0.0402(11) 0.0723(15) 0.0741(16) -0.0354(13) 0.0066(11) -0.0221(10)
C14 0.0598(17) 0.0685(17) 0.126(3) -0.0420(19) 0.0276(19) -0.0263(14)
C13 0.0548(16) 0.0773(18) 0.092(2) -0.0193(16) 0.0054(14) -0.0282(13)
loop_
_atom_type_symbol
_atom_type_description
_atom_type_scat_dispersion_real
_atom_type_scat_dispersion_imag
_atom_type_scat_source
C C 0.0181 0.0091 'International Tables Vol C Tables 4.2.6.8 and 6.1.1.4'
H H 0.0000 0.0000 'International Tables Vol C Tables 4.2.6.8 and 6.1.1.4'
N N 0.0311 0.0180 'International Tables Vol C Tables 4.2.6.8 and 6.1.1.4'
F F 0.0727 0.0534 'International Tables Vol C Tables 4.2.6.8 and 6.1.1.4'
Cu Cu -1.9646 0.5888 'International Tables Vol C Tables 4.2.6.8 and 6.1.1.4'
O O 0.0492 0.0322 'International Tables Vol C Tables 4.2.6.8 and 6.1.1.4'
loop_
_geom_angle_atom_site_label_1
_geom_angle_atom_site_label_2
_geom_angle_atom_site_label_3
_geom_angle
_geom_angle_site_symmetry_1
_geom_angle_site_symmetry_3
N2 Cu1 N1 119.49(7) 1_655 .
N2 Cu1 N3 125.45(7) 1_655 .
N1 Cu1 N3 113.96(7) . .
C2 N2 Cu1 174.05(17) . 1_455
C1 N1 Cu1 170.5(2) . .
C7 N3 C11 118.53(18) . .
C7 N3 Cu1 119.54(16) . .
C11 N3 Cu1 121.82(15) . .
C9 C8 C7 119.0(3) . .
C1 C3 C2 114.66(17) . .
C1 C3 C4 122.88(16) . .
C2 C3 C4 122.41(16) . .
F2 C6 C5 116.91(16) . 2_477
F2 C6 C4 119.30(16) . .
C5 C6 C4 123.78(17) 2_477 .
N1 C1 C3 178.2(2) . .
F1 C5 C6 116.85(16) . 2_477
F1 C5 C4 119.57(16) . .
C6 C5 C4 123.58(17) 2_477 .
C6 C4 C5 112.63(16) . .
C6 C4 C3 123.72(16) . .
C5 C4 C3 123.63(16) . .
N3 C11 C12 119.9(2) . .
N3 C11 C10 120.9(2) . .
C12 C11 C10 119.3(2) . .
N2 C2 C3 178.3(2) . .
C9 C10 C15 124.3(3) . .
C9 C10 C11 117.8(3) . .
C15 C10 C11 117.8(3) . .
C8 C9 C10 120.3(2) . .
N3 C7 C8 123.4(3) . .
C14 C15 C10 121.5(3) . .
C13 C12 C11 120.3(3) . .
C15 C14 C13 120.5(3) . .
C12 C13 C14 120.6(3) . .
loop_
_geom_bond_atom_site_label_1
_geom_bond_atom_site_label_2
_geom_bond_distance
_geom_bond_site_symmetry_2
Cu1 N2 1.8999(16) 1_655
Cu1 N1 1.9241(17) .
Cu1 N3 1.9955(16) .
F2 C6 1.353(2) .
F1 C5 1.347(2) .
N2 C2 1.151(3) .
N2 Cu1 1.9000(16) 1_455
N1 C1 1.155(3) .
N3 C7 1.308(3) .
N3 C11 1.377(3) .
C8 C9 1.343(5) .
C8 C7 1.411(3) .
C3 C1 1.392(3) .
C3 C2 1.402(3) .
C3 C4 1.462(3) .
C6 C5 1.374(3) 2_477
C6 C4 1.391(3) .
C5 C6 1.374(3) 2_477
C5 C4 1.394(3) .
C11 C12 1.406(4) .
C11 C10 1.425(3) .
C10 C9 1.397(5) .
C10 C15 1.421(5) .
C15 C14 1.348(6) .
C12 C13 1.375(4) .
C14 C13 1.393(5) .
loop_
_geom_torsion_atom_site_label_1
_geom_torsion_atom_site_label_2
_geom_torsion_atom_site_label_3
_geom_torsion_atom_site_label_4
_geom_torsion
C1 C3 C4 C5 -9.3(4)
C2 C3 C4 C6 -7.9(4)
loop_
_platon_squeeze_void_nr
_platon_squeeze_void_average_x
_platon_squeeze_void_average_y
_platon_squeeze_void_average_z
_platon_squeeze_void_volume
_platon_squeeze_void_count_electrons
_platon_squeeze_void_content
1 -0.087 0.500 0.000 150 39 ' '
