#------------------------------------------------------------------------------
#$Date: 2015-06-04 06:32:09 +0300 (Thu, 04 Jun 2015) $
#$Revision: 137844 $
#$URL: svn://www.crystallography.net/cod/cif/4/51/31/4513164.cif $
#------------------------------------------------------------------------------
#
# This file is available in the Crystallography Open Database (COD),
# http://www.crystallography.net/
#
# All data on this site have been placed in the public domain by the
# contributors.
#
data_4513164
loop_
_publ_author_name
'Abrahams, Brendan F.'
'Elliott, Robert W.'
'Hudson, Timothy A.'
'Robson, Richard'
'Sutton, Ashley L.'
_publ_section_title
;
 New CuI2(TCNQ--II) and CuI2(F4TCNQ--II) Coordination Polymers
;
_journal_issue                   5
_journal_name_full               'Crystal Growth &amp; Design'
_journal_page_first              2437
_journal_paper_doi               10.1021/acs.cgd.5b00220
_journal_volume                  15
_journal_year                    2015
_chemical_formula_sum            'C34 H24 Cu2 F4 N8 O2'
_chemical_formula_weight         779.69
_chemical_name_common            '[Cu2(F4TCNQ)(2,2'-bpy)2].2MeOH'
_space_group_crystal_system      triclinic
_space_group_IT_number           2
_space_group_name_Hall           '-P 1'
_space_group_name_H-M_alt        'P -1'
_symmetry_space_group_name_Hall  '-P 1'
_symmetry_space_group_name_H-M   'P -1'
_atom_sites_solution_hydrogens   geom
_audit_creation_method           SHELXL-2014/7
_cell_angle_alpha                75.849(8)
_cell_angle_beta                 80.341(7)
_cell_angle_gamma                77.374(9)
_cell_formula_units_Z            1
_cell_length_a                   7.3260(7)
_cell_length_b                   9.4851(11)
_cell_length_c                   12.2439(11)
_cell_measurement_reflns_used    2252
_cell_measurement_temperature    130(2)
_cell_measurement_theta_max      75.6467
_cell_measurement_theta_min      3.7475
_cell_volume                     799.13(14)
_computing_cell_refinement
;
CrysAlisPro, Agilent Technologies,
Version 1.171.36.20 (release 27-06-2012 CrysAlis171 .NET)
(compiled Jul 11 2012,15:38:31)
;
_computing_data_collection
;
CrysAlisPro, Agilent Technologies,
Version 1.171.36.20 (release 27-06-2012 CrysAlis171 .NET)
(compiled Jul 11 2012,15:38:31)
;
_computing_data_reduction
;
CrysAlisPro, Agilent Technologies,
Version 1.171.36.20 (release 27-06-2012 CrysAlis171 .NET)
(compiled Jul 11 2012,15:38:31)
;
_computing_structure_refinement  'SHELXL-2014/7 (Sheldrick, 2014)'
_computing_structure_solution    'SHELXS-97 (Sheldrick, 1997)'
_diffrn_ambient_temperature      130(2)
_diffrn_detector_area_resol_mean 10.2273
_diffrn_measured_fraction_theta_full 0.999
_diffrn_measured_fraction_theta_max 0.999
_diffrn_measurement_device_type  'SuperNova, Dual, Cu at zero, Atlas'
_diffrn_measurement_method       '\w scans'
_diffrn_radiation_monochromator  mirror
_diffrn_radiation_source         'SuperNova (Cu) X-ray Source'
_diffrn_radiation_type           CuK\a
_diffrn_radiation_wavelength     1.54184
_diffrn_reflns_av_unetI/netI     0.0256
_diffrn_reflns_laue_measured_fraction_full 0.999
_diffrn_reflns_laue_measured_fraction_max 0.999
_diffrn_reflns_limit_h_max       8
_diffrn_reflns_limit_h_min       -8
_diffrn_reflns_limit_k_max       11
_diffrn_reflns_limit_k_min       -11
_diffrn_reflns_limit_l_max       14
_diffrn_reflns_limit_l_min       -14
_diffrn_reflns_number            5210
_diffrn_reflns_point_group_measured_fraction_full 0.999
_diffrn_reflns_point_group_measured_fraction_max 0.999
_diffrn_reflns_theta_full        67.478
_diffrn_reflns_theta_max         67.478
_diffrn_reflns_theta_min         3.751
_exptl_absorpt_coefficient_mu    2.252
_exptl_absorpt_correction_T_max  0.950
_exptl_absorpt_correction_T_min  0.716
_exptl_absorpt_correction_type   gaussian
_exptl_absorpt_process_details
;
CrysAlisPro, Agilent Technologies,
Version 1.171.36.20 (release 27-06-2012 CrysAlis171 .NET)
(compiled Jul 11 2012,15:38:31)
Numerical absorption correction based on gaussian integration over
            a multifaceted crystal model
;
_exptl_crystal_colour            'Dark orange'
_exptl_crystal_density_diffrn    1.620
_exptl_crystal_description       'Flat rectangular rod'
_exptl_crystal_F_000             394
_exptl_crystal_size_max          0.2929
_exptl_crystal_size_mid          0.0590
_exptl_crystal_size_min          0.0244
_refine_diff_density_max         0.712
_refine_diff_density_min         -0.359
_refine_diff_density_rms         0.072
_refine_ls_extinction_method     none
_refine_ls_goodness_of_fit_ref   1.044
_refine_ls_hydrogen_treatment    constr
_refine_ls_matrix_type           full
_refine_ls_number_parameters     225
_refine_ls_number_reflns         5210
_refine_ls_number_restraints     0
_refine_ls_restrained_S_all      1.044
_refine_ls_R_factor_all          0.0540
_refine_ls_R_factor_gt           0.0461
_refine_ls_shift/su_max          0.038
_refine_ls_shift/su_mean         0.001
_refine_ls_structure_factor_coef Fsqd
_refine_ls_weighting_details
'w=1/[\s^2^(Fo^2^)+(0.0861P)^2^+0.2442P] where P=(Fo^2^+2Fc^2^)/3'
_refine_ls_weighting_scheme      calc
_refine_ls_wR_factor_gt          0.1245
_refine_ls_wR_factor_ref         0.1291
_reflns_Friedel_coverage         0.000
_reflns_number_gt                4435
_reflns_number_total             5210
_reflns_threshold_expression     'I > 2\s(I)'
_cod_data_source_file            cg5b00220_si_002.cif
_cod_data_source_block           Cu2F4TCNQbipy
_cod_original_cell_volume        799.13(15)
_cod_database_code               4513164
_shelx_shelxl_version_number     2014/7
_shelx_space_group_comment
;
The symmetry employed for this shelxl refinement is uniquely defined
by the following loop, which should always be used as a source of
symmetry information in preference to the above space-group names.
They are only intended as comments.
;
_shelx_res_file
;

    shelx.res created by SHELXL-2014/7


TITL rweC105d in P-1
CELL  1.54184   7.3260   9.4851  12.2439   75.849   80.341   77.374
ZERR     1.00   0.0007   0.0011   0.0011    0.008    0.007    0.009
LATT   1
SFAC  C    H    N    O    F    CU
UNIT  34 24 8 2 4 2
MERG   2
OMIT     0.00 135.00
eqiv $1   x-1, y, z
eqiv $2   x+1, y, z
eqiv $3   -x+1, -y+1, -z+2
conf c1 c3 c4 c5
conf c2 c3 c4 c6_$3
FMAP   2
PLAN   20
ACTA
BOND
LIST   4
L.S.   4
TEMP  -143.00
WGHT    0.086100    0.244200
FVAR       8.83504
part 1
O100  4    1.176803    0.034433    0.988209    10.50000    0.16833
C100  1    1.000000    0.000000    1.000000    10.25000    0.12951
part 2
O101  4    1.548791   -0.042044    0.949500    10.50000    0.18901
C101  1    1.316583    0.040730    0.006056    10.50000    0.13779
C102  1    1.023883    0.019891    0.079327    10.25000    0.12020
part 0
MOLE    1
CU1   6    1.169236    0.218542    0.644045    11.00000    0.02352    0.04463 =
         0.03194   -0.02393   -0.00305   -0.00348
F1    5    0.858822    0.369119    0.945957    11.00000    0.01843    0.06070 =
         0.03861   -0.03051   -0.00471    0.00163
F2    5    0.784302    0.512495    1.109662    11.00000    0.02035    0.06802 =
         0.04058   -0.03458   -0.00759   -0.00242
N1    3    0.915158    0.254090    0.722683    11.00000    0.02447    0.05044 =
         0.03136   -0.02557   -0.00226   -0.00439
N3    3    1.156540    0.242181    0.471979    11.00000    0.02254    0.04033 =
         0.02979   -0.01668   -0.00257   -0.00548
C11   1    1.188820    0.112762    0.437728    11.00000    0.02256    0.04342 =
         0.03184   -0.02098    0.00215   -0.00993
N2    3    0.341408    0.297391    0.705003    11.00000    0.02569    0.05522 =
         0.03847   -0.03113   -0.00314   -0.00385
C5    1    0.677766    0.434459    0.969945    11.00000    0.01709    0.04348 =
         0.02642   -0.01724   -0.00042   -0.00171
N4    3    1.272189    0.002198    0.624922    11.00000    0.02287    0.03984 =
         0.03263   -0.01519    0.00040   -0.00613
C1    1    0.767464    0.297368    0.765136    11.00000    0.03006    0.04001 =
         0.02644   -0.01824   -0.00484   -0.00795
C6    1    0.638781    0.509892    1.055837    11.00000    0.02013    0.04378 =
         0.02808   -0.01762   -0.00544   -0.00536
C2    1    0.445671    0.321868    0.756261    11.00000    0.02541    0.03939 =
         0.02876   -0.02008    0.00096   -0.00209
C4    1    0.541938    0.421248    0.907129    11.00000    0.02267    0.03602 =
         0.02402   -0.01399   -0.00197   -0.00501
C12   1    1.259944   -0.020436    0.522273    11.00000    0.02085    0.04222 =
         0.03478   -0.01924    0.00297   -0.00891
C3    1    0.583827    0.347757    0.811803    11.00000    0.02275    0.03997 =
         0.02664   -0.01764   -0.00250   -0.00436
C9    1    1.097861    0.237921    0.254579    11.00000    0.04182    0.06249 =
         0.03321   -0.01807   -0.00806   -0.01630
AFIX  43
H9    2    1.076218    0.236260    0.180583    11.00000   -1.20000
AFIX   0
C13   1    1.315352   -0.161311    0.497743    11.00000    0.03599    0.04147 =
         0.04428   -0.02304    0.00369   -0.00831
AFIX  43
H13   2    1.303086   -0.175930    0.425469    11.00000   -1.20000
AFIX   0
C7    1    1.100155    0.366638    0.397901    11.00000    0.03059    0.04164 =
         0.03681   -0.01669   -0.00410   -0.00411
AFIX  43
H7    2    1.080713    0.457662    0.421405    11.00000   -1.20000
AFIX   0
C16   1    1.345590   -0.112342    0.702569    11.00000    0.03247    0.04755 =
         0.03878   -0.01154   -0.00057   -0.00757
AFIX  43
H16   2    1.357122   -0.096042    0.774436    11.00000   -1.20000
AFIX   0
C15   1    1.405620   -0.253875    0.682803    11.00000    0.03147    0.04004 =
         0.05258   -0.00466    0.00226   -0.00288
AFIX  43
H15   2    1.458245   -0.332766    0.739664    11.00000   -1.20000
AFIX   0
C8    1    1.068207    0.371113    0.288604    11.00000    0.03419    0.05114 =
         0.03631   -0.01099   -0.00825   -0.00874
AFIX  43
H8    2    1.027350    0.462383    0.238639    11.00000   -1.20000
AFIX   0
C14   1    1.387390   -0.277766    0.579002    11.00000    0.03940    0.03838 =
         0.06009   -0.02131    0.00585   -0.00499
AFIX  43
H14   2    1.424496   -0.374249    0.563924    11.00000   -1.20000
AFIX   0
C10   1    1.158843    0.108423    0.328955    11.00000    0.03650    0.04932 =
         0.03722   -0.02414   -0.00187   -0.01213
AFIX  43
H10   2    1.180502    0.016485    0.306572    11.00000   -1.20000
AFIX   0
HKLF    5

REM  rweC105d in P-1
REM R1 =  0.0461 for    4435 Fo > 4sig(Fo)  and  0.0540 for all    5210 data
REM    225 parameters refined using      0 restraints

END

WGHT      0.0832      0.2711

REM Highest difference peak  0.712,  deepest hole -0.359,  1-sigma level  0.072
Q1    1   1.1854  0.1264  0.7011  11.00000  0.05    0.71
Q2    1   1.1621  0.3173  0.5869  11.00000  0.05    0.58
Q3    1   1.0909  0.0098  0.9855  11.00000  0.05    0.53
Q4    1   1.5804 -0.0273  0.9916  11.00000  0.05    0.50
Q5    1   1.2257  0.0325  1.0023  11.00000  0.05    0.40
Q6    1   1.0937  0.0227  0.0885  11.00000  0.05    0.39
Q7    1   1.3949 -0.0552  0.9593  11.00000  0.05    0.37
Q8    1   1.3057  0.2255  0.6214  11.00000  0.05    0.34
Q9    1   1.2418  0.0382  0.4759  11.00000  0.05    0.34
Q10   1   1.0256  0.2160  0.6688  11.00000  0.05    0.33
Q11   1   1.1781  0.2335  0.5324  11.00000  0.05    0.32
Q12   1   0.7761  0.6076  1.0582  11.00000  0.05    0.31
Q13   1   0.8615  0.4569  0.8867  11.00000  0.05    0.28
Q14   1   0.6162  0.4273  0.9395  11.00000  0.05    0.28
Q15   1   1.2015  0.1278  0.9524  11.00000  0.05    0.26
Q16   1   1.2563  0.0389  0.0905  11.00000  0.05    0.26
Q17   1   0.4815  0.4457  0.9220  11.00000  0.05    0.26
Q18   1   0.5601  0.3809  0.8539  11.00000  0.05    0.26
Q19   1   1.5624 -0.0403  0.9162  11.00000  0.05    0.26
Q20   1   0.6319  0.3861  0.7812  11.00000  0.05    0.26
;
_shelx_res_checksum              89168
_shelx_hkl_file
;
   0   0  -1 106532. 897.095  -2
   0   0   1 106532. 897.095   1
   0   0  -2 549.414 307.377  -2
   0   0   2 549.414 307.377   1
   0   0  -3 539191. 1473.22  -2
   0   0   3 539191. 1473.22   1
   0   0  -4 3392.98 224.398  -2
   0   0   4 3392.98 224.398   1
   0   0  -5 48212.1 1513.77  -2
   0   0   5 48212.1 1513.77   1
   0   0  -6-41.0976 495.213  -2
   0   0   6-41.0976 495.213   1
   0   0  -7 63123.9 2116.61  -2
   0   0   7 63123.9 2116.61   1
   0   0  -8 8063.88 1062.45  -2
   0   0   8 8063.88 1062.45   1
   0   0  -9 1238.55 302.522  -2
   0   0   9 1238.55 302.522   1
   0   0 -10 9980.85 360.269  -2
   0   0  10 9980.85 360.269   1
   0   0 -11 9045.42 354.905  -2
   0   0  11 9045.42 354.905   1
   0   0 -12 1876.68 364.860  -2
   0   0  12 1876.68 364.860   1
   0   0 -13 4834.72 377.363  -2
   0   0  13 4834.72 377.363   1
   0   0 -14 1014.74 250.000  -2
   0   0  14 1014.74 250.000   1
   0   1 -14 1308.08 231.955  -2
   0  -1  14 1308.08 231.955   1
   0   1 -13 11796.4 442.266  -2
   0  -1  13 11796.4 442.266   1
   0   1 -12 9612.57 474.228  -2
   0  -1  12 9612.57 474.228   1
   0   1 -11 11024.6 374.065  -2
   0  -1  11 11024.6 374.065   1
   0   1 -10 1489.70 273.145  -2
   0  -1  10 1489.70 273.145   1
   0   1  -9 18960.1 353.899  -2
   0  -1   9 18960.1 353.899   1
   0   1  -8 38788.4 1978.13  -2
   0  -1   8 38788.4 1978.13   1
   0   1  -7 800.351 675.732  -2
   0  -1   7 800.351 675.732   1
   0   1  -6 6000.35 793.513  -2
   0  -1   6 6000.35 793.513   1
   0   1  -5 80442.3 1996.60  -2
   0  -1   5 80442.3 1996.60   1
   0   1  -4 66462.9 1636.28  -2
   0  -1   4 66462.9 1636.28   1
   0   1  -3 29944.5 990.999  -2
   0  -1   3 29944.5 990.999   1
   0   1  -2 2080.08 451.371  -2
   0  -1   2 2080.08 451.371   1
   0   1  -1 841356. 3395.74  -2
   0  -1   1 841356. 3395.74   1
   0   1   0 7.40528 201.506  -2
   0  -1   0 7.40528 201.506   1
   0   1   1 39968.1 362.423  -2
   0  -1  -1 39968.1 362.423   1
   0   1   2 44432.9 346.495  -2
   0  -1  -2 44432.9 346.495   1
   0   1   3 11470.0 140.720  -2
   0  -1  -3 11470.0 140.720   1
   0  -1  -4 173036. 967.459  -2
   0   1   4 173036. 967.459   1
   0  -1  -5 27040.8 466.229  -2
   0   1   5 27040.8 466.229   1
   0  -1  -6 544936. 2177.94  -2
   0   1   6 544936. 2177.94   1
   0  -1  -7 5280.33 806.122  -2
   0   1   7 5280.33 806.122   1
   0  -1  -8 5819.01 890.021  -2
   0   1   8 5819.01 890.021   1
   0  -1  -9 63006.7 2482.06  -2
   0   1   9 63006.7 2482.06   1
   0  -1 -10 14347.0 314.139  -2
   0   1  10 14347.0 314.139   1
   0   1  11 332.077 228.261  -2
   0  -1 -11 332.077 228.261   1
   0  -1 -12 28046.0 683.805  -2
   0   1  12 28046.0 683.805   1
   0  -1 -13 4534.31 240.293  -2
   0   1  13 4534.31 240.293   1
   0  -1 -14 3540.65 278.286  -2
   0   1  14 3540.65 278.286   1
   0   2 -14 788.112 170.385  -2
   0  -2  14 788.112 170.385   1
   0   2 -13 3854.12 304.662  -2
   0  -2  13 3854.12 304.662   1
   0   2 -12 1501.47 218.710  -2
   0  -2  12 1501.47 218.710   1
   0   2 -11 3887.87 291.207  -2
   0  -2  11 3887.87 291.207   1
   0   2 -10 29208.0 454.167  -2
   0  -2  10 29208.0 454.167   1
   0   2  -9 3746.03 290.137  -2
   0  -2   9 3746.03 290.137   1
   0   2  -8 3643.99 258.482  -2
   0  -2   8 3643.99 258.482   1
   0   2  -7 38427.2 1874.70  -2
   0  -2   7 38427.2 1874.70   1
   0   2  -6 17157.5 1231.69  -2
   0  -2   6 17157.5 1231.69   1
   0   2  -5 67346.8 2051.46  -2
   0  -2   5 67346.8 2051.46   1
   0   2  -4 8688.05 808.733  -2
   0  -2   4 8688.05 808.733   1
   0   2  -3 39285.0 1309.61  -2
   0  -2   3 39285.0 1309.61   1
   0   2  -2 946705. 5312.39  -2
   0  -2   2 946705. 5312.39   1
   0   2  -1 999999. 4793.06  -2
   0  -2   1 999999. 4793.06   1
   0   2   0 155129. 1824.83  -2
   0  -2   0 155129. 1824.83   1
   0   2   1 254127. 2255.63  -2
   0  -2  -1 254127. 2255.63   1
   0  -2  -2 99966.8 1493.09  -2
   0   2   2 99966.8 1493.09   1
   0  -2  -3 36042.7 1067.02  -2
   0   2   3 36042.7 1067.02   1
   0  -2  -4 57648.9 582.420  -2
   0   2   4 57648.9 582.420   1
   0  -2  -5 133875. 974.203  -2
   0   2   5 133875. 974.203   1
   0  -2  -6 13468.2 388.973  -2
   0   2   6 13468.2 388.973   1
   0  -2  -7 1593.18 241.376  -2
   0   2   7 1593.18 241.376   1
   0  -2  -8 9064.11 394.908  -2
   0   2   8 9064.11 394.908   1
   0  -2  -9 5558.24 1001.55  -2
   0   2   9 5558.24 1001.55   1
   0  -2 -10 17497.5 410.793  -2
   0   2  10 17497.5 410.793   1
   0  -2 -11 8348.13 460.103  -2
   0   2  11 8348.13 460.103   1
   0  -2 -12 68.4078 316.659  -2
   0   2  12 68.4078 316.659   1
   0  -2 -13 480.035 167.555  -2
   0   2  13 480.035 167.555   1
   0  -2 -14 11862.9 339.786  -2
   0   2  14 11862.9 339.786   1
   0   3 -13 618.910 213.692  -2
   0  -3  13 618.910 213.692   1
   0   3 -12 2152.64 200.765  -2
   0  -3  12 2152.64 200.765   1
   0   3 -11 2642.99 258.050  -2
   0  -3  11 2642.99 258.050   1
   0   3 -10 465.319 209.138  -2
   0  -3  10 465.319 209.138   1
   0   3  -9-272.833 254.410  -2
   0  -3   9-272.833 254.410   1
   0   3  -8 6368.01 317.022  -2
   0  -3   8 6368.01 317.022   1
   0   3  -7 3450.18 356.480  -2
   0  -3   7 3450.18 356.480   1
   0   3  -6 2222.54 811.978  -2
   0  -3   6 2222.54 811.978   1
   0   3  -5 7555.56 922.095  -2
   0  -3   5 7555.56 922.095   1
   0   3  -4 94581.0 2371.85  -2
   0  -3   4 94581.0 2371.85   1
   0   3  -3 19523.8 1105.73  -2
   0  -3   3 19523.8 1105.73   1
   0   3  -2 348223. 3821.63  -2
   0  -3   2 348223. 3821.63   1
   0   3  -1 176404. 2551.22  -2
   0  -3   1 176404. 2551.22   1
   0   3   0 20452.1 931.328  -2
   0  -3   0 20452.1 931.328   1
   0   3   1 91158.1 1744.49  -2
   0  -3  -1 91158.1 1744.49   1
   0   3   2 211594. 2675.34  -2
   0  -3  -2 211594. 2675.34   1
   0  -3  -3 36841.3 1214.28  -2
   0   3   3 36841.3 1214.28   1
   0  -3  -4 30997.7 1231.54  -2
   0   3   4 30997.7 1231.54   1
   0  -3  -5 269703. 1427.37  -2
   0   3   5 269703. 1427.37   1
   0  -3  -6 42453.6 638.594  -2
   0   3   6 42453.6 638.594   1
   0  -3  -7 27867.7 574.705  -2
   0   3   7 27867.7 574.705   1
   0  -3  -8 461.130 217.646  -2
   0   3   8 461.130 217.646   1
   0   3   9 69511.6 739.614  -2
   0  -3  -9 69511.6 739.614   1
   0  -3 -10 18087.8 1539.53  -2
   0   3  10 18087.8 1539.53   1
   0   3  12 14010.1 598.138  -2
   0  -3 -12 14010.1 598.138   1
   0   3  13 64619.6 957.565  -2
   0  -3 -13 64619.6 957.565   1
   0  -3 -14 5074.34 199.815  -2
   0   3  14 5074.34 199.815   1
   0   4 -12 1636.28 154.902  -2
   0  -4  12 1636.28 154.902   1
   0   4 -11 3182.22 229.224  -2
   0  -4  11 3182.22 229.224   1
   0   4 -10 6469.64 260.081  -2
   0  -4  10 6469.64 260.081   1
   0   4  -9 7282.20 343.573  -2
   0  -4   9 7282.20 343.573   1
   0   4  -8 5889.02 324.199  -2
   0  -4   8 5889.02 324.199   1
   0   4  -7 4758.30 288.856  -2
   0  -4   7 4758.30 288.856   1
   0   4  -6 18990.5 578.836  -2
   0  -4   6 18990.5 578.836   1
   0   4  -5 23984.5 1542.13  -2
   0  -4   5 23984.5 1542.13   1
   0   4  -4 519.964 602.658  -2
   0  -4   4 519.964 602.658   1
   0   4  -3 192407. 3522.82  -2
   0  -4   3 192407. 3522.82   1
   0   4  -2 32969.8 1442.16  -2
   0  -4   2 32969.8 1442.16   1
   0   4  -1 1996.02 597.068  -2
   0  -4   1 1996.02 597.068   1
   0   4   0 149964. 2633.20  -2
   0  -4   0 149964. 2633.20   1
   0   4   1 74119.8 1886.24  -2
   0  -4  -1 74119.8 1886.24   1
   0   4   2 27473.3 1198.65  -2
   0  -4  -2 27473.3 1198.65   1
   0  -4  -3 67676.0 1823.09  -2
   0   4   3 67676.0 1823.09   1
   0  -4  -4 129941. 2613.56  -2
   0   4   4 129941. 2613.56   1
   0  -4  -5 20505.3 1181.01  -2
   0   4   5 20505.3 1181.01   1
   0  -4  -6 1575.61 229.465  -2
   0   4   6 1575.61 229.465   1
   0  -4  -7 48699.1 746.668  -2
   0   4   7 48699.1 746.668   1
   0  -4  -8 199038. 1551.01  -2
   0   4   8 199038. 1551.01   1
   0   4   9 674.526 337.592  -2
   0  -4  -9 674.526 337.592   1
   0   4  10 10081.7 598.648  -2
   0  -4 -10 10081.7 598.648   1
   0   4  11 38286.3 957.785  -2
   0  -4 -11 38286.3 957.785   1
   0   4  12 32258.1 841.171  -2
   0  -4 -12 32258.1 841.171   1
   0   4  13 309.522 271.566  -2
   0  -4 -13 309.522 271.566   1
   0   4  14 3856.09 195.731  -2
   0  -4 -14 3856.09 195.731   1
   0   5 -11 3827.76 177.518  -2
   0  -5  11 3827.76 177.518   1
   0   5 -10 608.137 165.202  -2
   0  -5  10 608.137 165.202   1
   0   5  -9 1932.55 245.605  -2
   0  -5   9 1932.55 245.605   1
   0   5  -8 6606.41 320.956  -2
   0  -5   8 6606.41 320.956   1
   0   5  -7 6542.27 318.392  -2
   0  -5   7 6542.27 318.392   1
   0   5  -6 7858.87 462.953  -2
   0  -5   6 7858.87 462.953   1
   0   5  -5 35375.3 716.442  -2
   0  -5   5 35375.3 716.442   1
   0   5  -4 68344.3 2451.67  -2
   0  -5   4 68344.3 2451.67   1
   0   5  -3 8346.67 1003.56  -2
   0  -5   3 8346.67 1003.56   1
   0   5  -2 71343.1 2330.69  -2
   0  -5   2 71343.1 2330.69   1
   0   5  -1 41989.7 1712.80  -2
   0  -5   1 41989.7 1712.80   1
   0   5   0 17280.0 1157.36  -2
   0  -5   0 17280.0 1157.36   1
   0   5   1 1140.26 563.962  -2
   0  -5  -1 1140.26 563.962   1
   0   5   2 589.387 527.081  -2
   0  -5  -2 589.387 527.081   1
   0  -5  -3 76679.2 2114.65  -2
   0   5   3 76679.2 2114.65   1
   0  -5  -4 197.894 557.957  -2
   0   5   4 197.894 557.957   1
   0  -5  -5 9838.19 994.165  -2
   0   5   5 9838.19 994.165   1
   0  -5  -6 72620.4 893.029  -2
   0   5   6 72620.4 893.029   1
   0  -5  -7 186708. 3907.27  -2
   0   5   7 186708. 3907.27   1
   0  -5  -8 33275.7 805.436  -2
   0   5   8 33275.7 805.436   1
   0   5   9 1957.23 377.969  -2
   0  -5  -9 1957.23 377.969   1
   0   5  10 17936.6 735.733  -2
   0  -5 -10 17936.6 735.733   1
   0   5  11 34537.2 927.543  -2
   0  -5 -11 34537.2 927.543   1
   0   5  12 16780.4 648.718  -2
   0  -5 -12 16780.4 648.718   1
   0   5  13 22066.7 590.346  -2
   0  -5 -13 22066.7 590.346   1
   0  -5 -14 17383.2 289.712  -2
   0   5  14 17383.2 289.712   1
   0   6 -10 467.018 225.801  -2
   0  -6  10 467.018 225.801   1
   0   6  -9 2901.25 364.519  -2
   0  -6   9 2901.25 364.519   1
   0   6  -8 6405.66 468.477  -2
   0  -6   8 6405.66 468.477   1
   0   6  -7 4605.62 462.586  -2
   0  -6   7 4605.62 462.586   1
   0   6  -6 11979.1 598.585  -2
   0  -6   6 11979.1 598.585   1
   0   6  -5 35196.8 718.125  -2
   0  -6   5 35196.8 718.125   1
   0   6  -4 426.126 273.658  -2
   0  -6   4 426.126 273.658   1
   0   6  -3 45603.4 791.334  -2
   0  -6   3 45603.4 791.334   1
   0   6  -2 53025.9 2254.64  -2
   0  -6   2 53025.9 2254.64   1
   0   6  -1-112.338 670.735  -2
   0  -6   1-112.338 670.735   1
   0   6   0 1573.03 685.665  -2
   0  -6   0 1573.03 685.665   1
   0   6   1 38027.0 1820.63  -2
   0  -6  -1 38027.0 1820.63   1
   0   6   2 24955.4 1492.12  -2
   0  -6  -2 24955.4 1492.12   1
   0  -6  -3 448.053 565.582  -2
   0   6   3 448.053 565.582   1
   0  -6  -4 8309.01 983.496  -2
   0   6   4 8309.01 983.496   1
   0  -6  -5 48141.6 2088.00  -2
   0   6   5 48141.6 2088.00   1
   0   6   6 28051.5 726.516  -2
   0  -6  -6 28051.5 726.516   1
   0  -6  -7 4648.56 402.163  -2
   0   6   7 4648.56 402.163   1
   0  -6  -8 8817.26 510.374  -2
   0   6   8 8817.26 510.374   1
   0   6   9 994.155 385.634  -2
   0  -6  -9 994.155 385.634   1
   0   6  10 4928.45 497.606  -2
   0  -6 -10 4928.45 497.606   1
   0   6  11 63057.4 1184.41  -2
   0  -6 -11 63057.4 1184.41   1
   0   6  12 19546.0 630.952  -2
   0  -6 -12 19546.0 630.952   1
   0   6  13 11226.6 418.943  -2
   0  -6 -13 11226.6 418.943   1
   0  -6 -14 5283.25 172.769  -2
   0   6  14 5283.25 172.769   1
   0   7  -9 614.162 167.934  -2
   0  -7   9 614.162 167.934   1
   0   7  -8 355.088 291.023  -2
   0  -7   8 355.088 291.023   1
   0   7  -7 3601.66 401.876  -2
   0  -7   7 3601.66 401.876   1
   0   7  -6-37.7280 349.198  -2
   0  -7   6-37.7280 349.198   1
   0   7  -5 2714.47 269.813  -2
   0  -7   5 2714.47 269.813   1
   0   7  -4 16065.6 583.269  -2
   0  -7   4 16065.6 583.269   1
   0   7  -3 3073.93 363.536  -2
   0  -7   3 3073.93 363.536   1
   0   7  -2 7665.33 312.403  -2
   0  -7   2 7665.33 312.403   1
   0   7  -1 6893.70 299.191  -2
   0  -7   1 6893.70 299.191   1
   0   7   0 15883.6 574.260  -2
   0  -7   0 15883.6 574.260   1
   0   7   1 18187.6 600.988  -2
   0  -7  -1 18187.6 600.988   1
   0   7   2-74.5481 202.594  -2
   0  -7  -2-74.5481 202.594   1
   0   7   3 29339.7 542.265  -2
   0  -7  -3 29339.7 542.265   1
   0  -7  -4 29528.0 547.929  -2
   0   7   4 29528.0 547.929   1
   0   7   5 413.897 322.353  -2
   0  -7  -5 413.897 322.353   1
   0  -7  -6 29970.7 795.462  -2
   0   7   6 29970.7 795.462   1
   0   7   7 43566.0 1050.73  -2
   0  -7  -7 43566.0 1050.73   1
   0   7   8 2185.70 421.022  -2
   0  -7  -8 2185.70 421.022   1
   0   7   9 1770.43 423.581  -2
   0  -7  -9 1770.43 423.581   1
   0   7  10 64152.0 1202.03  -2
   0  -7 -10 64152.0 1202.03   1
   0   7  11 9677.33 533.093  -2
   0  -7 -11 9677.33 533.093   1
   0   7  12-37.1583 275.215  -2
   0  -7 -12-37.1583 275.215   1
   0   7  13 28164.8 340.380  -2
   0  -7 -13 28164.8 340.380   1
   0   8  -8 3032.27 224.553  -2
   0  -8   8 3032.27 224.553   1
   0   8  -7 1186.84 266.213  -2
   0  -8   7 1186.84 266.213   1
   0   8  -6 5568.92 385.022  -2
   0  -8   6 5568.92 385.022   1
   0   8  -5 11532.0 333.373  -2
   0  -8   5 11532.0 333.373   1
   0   8  -4 183.826 308.968  -2
   0  -8   4 183.826 308.968   1
   0   8  -3 12627.2 542.127  -2
   0  -8   3 12627.2 542.127   1
   0   8  -2 2192.87 319.726  -2
   0  -8   2 2192.87 319.726   1
   0   8  -1 182.112 208.713  -2
   0  -8   1 182.112 208.713   1
   0   8   0 23596.4 806.478  -2
   0  -8   0 23596.4 806.478   1
   0   8   1 19552.4 747.551  -2
   0  -8  -1 19552.4 747.551   1
   0   8   2 12845.7 637.866  -2
   0  -8  -2 12845.7 637.866   1
   0   8   3 3987.22 307.610  -2
   0  -8  -3 3987.22 307.610   1
   0   8   4 4492.95 320.536  -2
   0  -8  -4 4492.95 320.536   1
   0   8   5 8224.73 381.392  -2
   0  -8  -5 8224.73 381.392   1
   0   8   6 25764.1 584.904  -2
   0  -8  -6 25764.1 584.904   1
   0   8   7 17.5202 254.669  -2
   0  -8  -7 17.5202 254.669   1
   0   8   8 4905.53 337.916  -2
   0  -8  -8 4905.53 337.916   1
   0   8   9 35415.2 633.802  -2
   0  -8  -9 35415.2 633.802   1
   0   8  10 3440.26 269.791  -2
   0  -8 -10 3440.26 269.791   1
   0   8  11 6228.84 269.939  -2
   0  -8 -11 6228.84 269.939   1
   0   8  12 30948.9 389.406  -2
   0  -8 -12 30948.9 389.406   1
   0   9  -6 891.413 204.202  -2
   0  -9   6 891.413 204.202   1
   0   9  -5 1813.09 169.259  -2
   0  -9   5 1813.09 169.259   1
   0   9  -4 1905.28 210.942  -2
   0  -9   4 1905.28 210.942   1
   0   9  -3 5699.18 274.356  -2
   0  -9   3 5699.18 274.356   1
   0   9  -2 9332.83 490.537  -2
   0  -9   2 9332.83 490.537   1
   0   9  -1-13.8796 343.082  -2
   0  -9   1-13.8796 343.082   1
   0   9   0 14572.1 426.315  -2
   0  -9   0 14572.1 426.315   1
   0   9   1 23791.5 511.196  -2
   0  -9  -1 23791.5 511.196   1
   0   9   2 33.4110 307.490  -2
   0  -9  -2 33.4110 307.490   1
   0   9   3 15689.0 415.416  -2
   0  -9  -3 15689.0 415.416   1
   0   9   4 8073.77 326.708  -2
   0  -9  -4 8073.77 326.708   1
   0   9   5 1847.08 281.611  -2
   0  -9  -5 1847.08 281.611   1
   0   9   6 18847.8 498.268  -2
   0  -9  -6 18847.8 498.268   1
   0   9   7 10960.4 396.632  -2
   0  -9  -7 10960.4 396.632   1
   0   9   8 14973.9 424.436  -2
   0  -9  -8 14973.9 424.436   1
   0   9   9 262.779 210.112  -2
   0  -9  -9 262.779 210.112   1
   0   9  10 17290.0 363.779  -2
   0  -9 -10 17290.0 363.779   1
   0   9  11 11494.3 256.555  -2
   0  -9 -11 11494.3 256.555   1
   0  10  -4 3162.83 198.259  -2
   0 -10   4 3162.83 198.259   1
   0  10  -3 133.836 141.488  -2
   0 -10   3 133.836 141.488   1
   0  10  -2 2353.58 187.382  -2
   0 -10   2 2353.58 187.382   1
   0  10  -1 4644.27 225.110  -2
   0 -10   1 4644.27 225.110   1
   0  10   0 1388.13 327.838  -2
   0 -10   0 1388.13 327.838   1
   0  10   1 2145.89 254.330  -2
   0 -10  -1 2145.89 254.330   1
   0  10   2 12601.6 360.909  -2
   0 -10  -2 12601.6 360.909   1
   0  10   3 7650.00 297.686  -2
   0 -10  -3 7650.00 297.686   1
   0  10   4 2454.54 225.363  -2
   0 -10  -4 2454.54 225.363   1
   0  10   5 9455.11 486.655  -2
   0 -10  -5 9455.11 486.655   1
   0  10   6 6926.07 434.822  -2
   0 -10  -6 6926.07 434.822   1
   0  10   7 6785.86 404.882  -2
   0 -10  -7 6785.86 404.882   1
   0  10   8 360.873 233.810  -2
   0 -10  -8 360.873 233.810   1
   0  10   9 13338.4 392.721  -2
   0 -10  -9 13338.4 392.721   1
   0  10  10 1641.12 176.596  -2
   0 -10 -10 1641.12 176.596   1
   0  11  -1 324.504 177.201  -2
   0 -11   1 324.504 177.201   1
   0  11   0 655.838 208.775  -2
   0 -11   0 655.838 208.775   1
   0  11   1 86.4715 218.277  -2
   0 -11  -1 86.4715 218.277   1
   0  11   2-97.7489 212.987  -2
   0 -11  -2-97.7489 212.987   1
   0  11   3 672.138 193.097  -2
   0 -11  -3 672.138 193.097   1
   0  11   4 3328.36 300.627  -2
   0 -11  -4 3328.36 300.627   1
   0  11   5 322.192 223.941  -2
   0 -11  -5 322.192 223.941   1
   0  11   6 536.680 210.289  -2
   0 -11  -6 536.680 210.289   1
   0  11   7 2184.10 210.376  -2
   0 -11  -7 2184.10 210.376   1
   1 -11  -2 257.915 131.346   1
   1 -11  -1 2191.13 155.836   1
   1 -11   0 806.473 133.863   1
   1 -10  -8 70.1076 138.952   1
   1 -10  -7 4527.40 243.900   1
   1 -10  -6 3676.28 257.730   1
   1 -10  -5 175.076 196.791   1
   1 -10  -4 3360.86 177.106   1
   1 -10  -3 46.4620 145.799   1
   1 -10  -2 700.821 163.639   1
   1 -10  -1 4635.10 294.530   1
   1 -10   0 1567.28 246.292   1
   1 -10   1-63.2096 211.087   1
   1 -10   2 22.0573 121.904   1
   1 -10   3 1334.04 119.960   1
   1  -9 -10 1391.85 121.233   1
   1  -9  -9 1696.90 158.152   1
   1  -9  -8 6723.39 230.771   1
   1  -9  -7-26.8088 170.166   1
   1  -9  -6 7611.23 276.907   1
   1  -9  -5 11954.2 447.517   1
   1  -9  -4 405.683 271.866   1
   1  -9  -3 224.534 272.727   1
   1  -9  -2 13060.9 488.709   1
   1  -9  -1 2617.62 186.488   1
   1  -9   0 379.238 159.574   1
   1  -9   1 206.872 187.894   1
   1  -9   2 1569.55 171.522   1
   1  -9   3 14.9604 238.692   1
   1  -9   4 398.681 148.217   1
   1  -9   5 272.900 114.919   1
   1  -9   6 392.709 140.245   1
   1  -8 -12 2500.42 164.859   1
   1  -8 -11 2430.95 118.915   1
   1  -8 -10 5175.47 204.346   1
   1  -8  -9 12564.1 303.603   1
   1  -8  -8-52.8786 189.709   1
   1  -8  -7 19514.1 401.007   1
   1  -8  -6 13517.8 358.881   1
   1  -8  -5 3800.42 256.524   1
   1  -8  -4 647.031 206.882   1
   1  -8  -3 5209.04 221.915   1
   1  -8  -2 287.554 163.221   1
   1  -8  -1 4997.97 229.782   1
   1  -8   0 2979.05 216.840   1
   1  -8   1 6475.45 255.454   1
   1  -8   2-73.8378 209.758   1
   1  -8   3-20.8797 213.706   1
   1  -8   4 9164.85 373.263   1
   1  -8   5 1357.56 174.367   1
   1  -8   6 164.761 212.577   1
   1  -8   7 797.779 200.503   1
   1  -8   8 462.223 138.679   1
  -1   7  13 666.860 165.645   1
  -1   7  12 4653.31 190.410   1
   1  -7 -11 4710.21 195.404   1
   1  -7 -10 6808.25 251.130   1
   1  -7  -9 6195.47 262.009   1
   1  -7  -8 34345.5 503.107   1
   1  -7  -7 3588.39 249.970   1
   1  -7  -6 0.48556 193.966   1
   1  -7  -5 8499.93 285.344   1
  -1   7   4 5935.55 193.529   1
   1  -7  -3 1048.86 138.816   1
   1  -7  -2 3075.98 162.413   1
   1  -7  -1 18758.7 332.404   1
   1  -7   0 16149.1 321.678   1
   1  -7   1 8514.95 258.865   1
   1  -7   2 400.197 177.219   1
   1  -7   3 2849.51 291.293   1
   1  -7   4-4.60413 234.834   1
   1  -7   5 1784.01 254.466   1
   1  -7   6 1210.75 289.237   1
   1  -7   7 1678.84 277.616   1
   1  -7   8 136.294 207.772   1
   1  -7   9 1527.51 123.223   1
   1  -6 -13 3514.89 159.882   1
   1  -6 -12 2239.34 146.802   1
   1  -6 -11 3663.92 317.699   1
   1  -6 -10 185.960 280.579   1
   1  -6  -9 10037.9 478.538   1
   1  -6  -8 470.141 312.152   1
   1  -6  -7 5.63285 155.095   1
  -1   6   6 33772.4 626.461   1
   1  -6  -5 2562.50 280.829   1
  -1   6   4 2875.15 583.522   1
  -1   6   3 19912.4 1052.87   1
   1  -6  -1 718.519 512.389   1
   1  -6   0 914.741 507.520   1
   1  -6   1 1193.72 566.574   1
   1  -6   2 2125.51 175.616   1
   1  -6   3 8511.93 329.694   1
   1  -6   4 13807.1 408.996   1
   1  -6   5 7926.00 390.471   1
   1  -6   7 1299.91 301.731   1
   1  -6   8 2832.27 303.272   1
   1  -6   9 120.690 224.613   1
   1  -6  10 41.7281 112.319   1
  -1   5  14 1545.66 190.143   1
   1  -5 -13 408.257 144.030   1
   1  -5 -12 2163.90 260.423   1
   1  -5 -11 14659.0 488.663   1
   1  -5 -10 5720.53 400.743   1
  -1   5   9 36653.3 496.414   1
   1  -5  -8 39987.2 482.563   1
  -1   5   7 38913.0 459.675   1
  -1   5   6 1429.91 201.080   1
  -1   5   5 7348.33 684.574   1
  -1   5   4-181.766 386.277   1
  -1   5   3 4565.90 545.788   1
   1  -5  -2 7636.09 612.051   1
   1  -5  -1-14.1515 377.145   1
   1  -5   0 58740.1 1485.96   1
   1  -5   1 8892.02 744.200   1
   1  -5   2 9836.46 768.976   1
   1  -5   3 16461.9 987.751   1
   1  -5   4 3593.15 641.182   1
   1  -5   5 1658.86 245.255   1
   1  -5   6 10967.6 257.019   1
   1  -5   7 5708.53 362.175   1
   1  -5   8 2088.88 210.523   1
   1  -5   9 2092.13 202.616   1
   1  -5  10 2127.92 141.645   1
   1  -5  11 96.4177 100.599   1
  -1   4  14 2.00056 194.545   1
   1  -4 -13 4248.95 195.944   1
   1  -4 -11 6797.66 381.814   1
  -1   4  10 8955.23 283.387   1
  -1   4   9 10708.8 286.036   1
  -1   4   8 30036.0 415.687   1
  -1   4   7 3519.80 243.095   1
  -1   4   6 22168.3 427.060   1
  -1   4   5 32676.5 1123.96   1
  -1   4   4 1821.94 419.494   1
  -1   4   3 98863.1 1668.26   1
   1  -4  -2 49845.4 1189.01   1
   1  -4  -1 48625.5 1168.96   1
   1  -4   0 2270.83 425.912   1
   1  -4   1 94005.4 1663.87   1
   1  -4   2 40562.0 1209.30   1
   1  -4   3 7709.65 680.904   1
   1  -4   4 32141.7 1216.88   1
   1  -4   5 32524.2 1323.72   1
   1  -4   6 12504.3 257.514   1
   1  -4   7 2864.06 197.224   1
   1  -4   8 863.949 270.692   1
   1  -4   9 1626.09 214.537   1
   1  -4  10 142.756 138.382   1
   1  -4  11-30.7660 116.375   1
   1  -4  12 1331.92 193.535   1
  -1   3  14 2386.35 213.291   1
  -1   3  13 922.665 283.681   1
   1  -3 -12-30.4447 163.680   1
  -1   3  11 18816.4 346.127   1
  -1   3  10 14501.7 274.215   1
  -1   3   9 58.3646 165.578   1
  -1   3   8 19894.3 449.804   1
  -1   3   7 32657.0 523.259   1
  -1   3   6 9443.29 290.249   1
  -1   3   5 539.963 344.173   1
  -1   3   4 30293.7 300.771   1
  -1   3   3 10255.1 568.243   1
   1  -3  -1 11668.8 579.286   1
   1  -3   0 62426.6 1147.77   1
   1  -3   1 28026.2 824.065   1
   1  -3   2 21381.8 790.242   1
   1  -3   3 2830.23 451.331   1
   1  -3   4 369.175 406.100   1
   1  -3   5 1662.66 517.689   1
   1  -3   6 21682.8 1137.04   1
   1  -3   7 19140.1 305.374   1
   1  -3   8 3434.70 304.805   1
   1  -3   9 1893.69 216.818   1
   1  -3  10 4832.54 199.342   1
   1  -3  11 2756.35 158.401   1
   1  -3  12 549.406 236.303   1
   1  -3  13 1418.28 185.112   1
  -1   2  13 1909.84 188.816   1
  -1   2  12 17709.2 349.494   1
  -1   2  11 6306.90 260.916   1
   1  -2 -10 1350.76 205.571   1
  -1   2   9 12505.1 284.823   1
  -1   2   8 15629.2 411.068   1
  -1   2   7 1909.54 203.783   1
  -1   2   6 20951.8 384.920   1
  -1   2   5 18399.6 334.550   1
  -1   2   4 15700.2 657.801   1
  -1   2   3 1144.39 111.544   1
  -1   2   2 69098.8 987.721   1
   1  -2  -1 120919. 1235.89   1
   1  -2   0 884.681 295.545   1
   1  -2   1 15486.4 547.308   1
   1  -2   2 113250. 1410.93   1
   1  -2   3 4975.19 480.963   1
   1  -2   4 33097.7 989.516   1
   1  -2   5 98542.0 1815.47   1
   1  -2   6 10534.5 740.799   1
   1  -2   7 442.804 469.426   1
   1  -2   8 2565.26 184.566   1
   1  -2   9 3653.54 304.066   1
   1  -2  10 350.117 153.119   1
   1  -2  11 240.111 306.655   1
   1  -2  12 3654.51 330.443   1
   1  -2  13 301.592 210.342   1
   1  -2  14 725.299 147.298   1
  -1   1  13 6267.66 326.041   1
  -1   1  12 2528.12 221.349   1
  -1   1  11 3359.72 244.082   1
  -1   1  10 2977.91 350.413   1
  -1   1   9 5799.52 228.457   1
  -1   1   8 304.105 201.953   1
  -1   1   7 21665.9 429.723   1
  -1   1   6 4004.85 219.852   1
  -1   1   5 8371.53 256.808   1
  -1   1   4 10366.1 249.877   1
  -1   1   3 120565. 1305.02   1
  -1   1   2 6024.32 343.147   1
  -1   1   1 65954.3 680.891   1
   1  -1   0 80306.6 712.324   1
   1  -1   1 13344.9 381.552   1
   1  -1   2 1960.55 301.896   1
   1  -1   3 9362.94 519.735   1
   1  -1   4 122564. 1181.28   1
   1  -1   5 17151.3 558.295   1
   1  -1   6 33605.1 1175.76   1
   1  -1   7 12445.1 841.241   1
   1  -1   8 13520.9 923.041   1
   1  -1   9 10548.7 367.610   1
   1  -1  10 23159.3 395.808   1
   1  -1  11 30378.6 626.343   1
   1  -1  12 505.607 299.198   1
   1  -1  13 216.633 237.249   1
   1  -1  14 1077.96 196.145   1
  -1   0  14 483.935 186.281   1
  -1   0  13 709.954 249.913   1
  -1   0  12 5160.68 365.328   1
  -1   0  11 1270.39 314.136   1
  -1   0  10 677.711 169.827   1
  -1   0   9 6510.62 256.026   1
  -1   0   8 34525.6 1380.42   1
  -1   0   7 616.052 186.347   1
  -1   0   6 218.947 172.650   1
  -1   0   5 110236. 752.878   1
  -1   0   4 59564.1 493.046   1
  -1   0   3 42.9450 131.555   1
  -1   0   2 55984.5 272.227   1
  -1   0   1 138598. 542.085   1
   1   0   1 50.4451 126.592   1
   1   0   2 100481. 932.568   1
   1   0   3 93417.6 1134.81   1
   1   0   4 9479.54 520.385   1
   1   0   5 125371. 1772.21   1
   1   0   6 5176.52 534.801   1
   1   0   7 9618.69 727.861   1
   1   0   8 2180.86 469.629   1
   1   0  10 17435.6 323.069   1
   1   0  11 3061.02 225.445   1
  -1   0 -12 918.061 183.788   1
   1   0  13 7484.77 338.241   1
  -1   0 -14 963.522 124.097   1
  -1  -1  14 973.239 165.198   1
  -1  -1  13 2402.14 261.372   1
  -1  -1  12 142.691 282.810   1
  -1  -1  11 4087.46 244.836   1
  -1  -1  10 10805.2 313.588   1
  -1  -1   9 9623.52 279.098   1
  -1  -1   8 7100.81 764.156   1
  -1  -1   7-146.836 522.443   1
  -1  -1   6 74547.5 1695.57   1
  -1  -1   5 11937.5 302.771   1
  -1  -1   4 2329.42 185.298   1
  -1  -1   3 88131.1 543.693   1
  -1  -1   2 132176. 514.039   1
  -1  -1   1 63229.5 473.751   1
  -1  -1   0 16698.2 332.649   1
   1   1   1 180381. 684.373   1
   1   1   2 54543.0 707.894   1
   1   1   3 18456.1 542.102   1
   1   1   4 151321. 1633.11   1
   1   1   5 11342.1 188.218   1
   1   1   6 16529.2 788.700   1
   1   1   7 18713.8 901.145   1
   1   1   8 10057.5 826.395   1
   1   1   9 8900.26 896.968   1
  -1  -1 -10 57.4174 179.514   1
   1   1  11 7427.70 270.683   1
  -1  -1 -12 3579.41 224.420   1
   1   1  13 2953.47 290.198   1
  -1  -1 -14 1550.59 151.428   1
  -1  -2  13 147.428 208.974   1
  -1  -2  12 2275.28 288.914   1
  -1  -2  11 19084.2 360.851   1
  -1  -2  10 30884.2 460.325   1
  -1  -2   9-20.4453 161.427   1
  -1  -2   8 1980.99 199.795   1
  -1  -2   7 46005.8 1560.89   1
  -1  -2   6 2804.05 561.613   1
  -1  -2   5 53736.0 1432.86   1
  -1  -2   4 28494.9 975.080   1
  -1  -2   3 19784.0 758.029   1
  -1  -2   2 106246. 1394.46   1
  -1  -2   1 68873.5 643.589   1
  -1  -2   0 131604. 1235.71   1
  -1  -2  -1 3410.78 335.016   1
   1   2   2 30435.4 401.702   1
  -1  -2  -3 105008. 737.359   1
  -1  -2  -4 46.2421 139.230   1
  -1  -2  -5 8909.97 163.486   1
   1   2   6 30186.5 365.058   1
   1   2   7 6545.67 610.733   1
   1   2   8-221.327 460.302   1
   1   2   9 2435.83 552.707   1
   1   2  10 21571.8 346.392   1
   1   2  11 231.737 195.055   1
   1   2  12 1537.48 199.263   1
   1   2  13 13210.0 386.704   1
   1   2  14 831.890 137.961   1
  -1  -3  13 729.930 113.918   1
  -1  -3  12 296.149 225.521   1
  -1  -3  11 101.661 180.090   1
  -1  -3  10 385.811 193.209   1
  -1  -3   9 3810.95 199.945   1
  -1  -3   8 959.086 194.212   1
  -1  -3   7 13468.1 284.059   1
  -1  -3   6 23935.7 1214.78   1
  -1  -3   5 35750.6 1295.24   1
  -1  -3   4 30869.6 1087.78   1
  -1  -3   3 51445.1 1259.36   1
  -1  -3   2 8066.64 587.696   1
  -1  -3   1 105800. 1485.73   1
  -1  -3   0 7125.42 287.776   1
  -1  -3  -1 80391.2 758.719   1
  -1  -3  -2 52621.4 610.602   1
   1   3   3 362.954 171.260   1
   1   3   4 52272.7 606.011   1
  -1  -3  -5 15959.1 203.592   1
   1   3   6 1345.51 137.181   1
   1   3   7 10112.2 250.812   1
   1   3   8 16492.9 961.358   1
  -1  -3  -9 19383.7 445.232   1
  -1  -3 -10 3937.10 306.405   1
  -1  -3 -11 4348.46 358.149   1
  -1  -3 -12 30028.4 646.233   1
  -1  -3 -13 1432.91 277.951   1
  -1  -3 -14 3188.19 255.114   1
  -1  -3 -15 1351.61 134.660   1
  -1  -4  12 46.3963 170.738   1
  -1  -4  11 4095.76 191.832   1
  -1  -4  10 2656.31 214.307   1
  -1  -4   9 854.961 206.920   1
  -1  -4   8 10901.8 303.718   1
  -1  -4   7 14139.8 301.373   1
  -1  -4   6-117.995 222.122   1
  -1  -4   5-22.2671 511.213   1
  -1  -4   4 21242.3 1039.70   1
  -1  -4   3 81398.3 1761.16   1
  -1  -4   2 11470.4 738.915   1
  -1  -4   1 57520.0 1328.81   1
  -1  -4   0 26774.4 905.135   1
  -1  -4  -1 771.816 387.731   1
  -1  -4  -2 55038.4 1191.83   1
   1   4   3 119920. 1748.15   1
   1   4   4 260.625 377.149   1
   1   4   5 74.9058 377.831   1
   1   4   6 31840.5 1154.12   1
   1   4   7 31770.0 1238.91   1
   1   4   8 18768.7 1023.25   1
  -1  -4  -9 7232.62 342.281   1
  -1  -4 -10 10967.9 452.883   1
  -1  -4 -11 23469.3 608.526   1
  -1  -4 -12 1556.94 314.467   1
  -1  -4 -13 9338.10 403.032   1
  -1  -4 -14 496.356 206.479   1
  -1  -4 -15 345.258 118.773   1
  -1  -5  11-28.3716 113.687   1
  -1  -5  10 286.885 157.400   1
  -1  -5   9 4153.92 179.688   1
  -1  -5   8 1581.54 195.159   1
  -1  -5   7 2295.68 313.606   1
  -1  -5   6 12121.7 403.291   1
  -1  -5   5 26995.0 509.311   1
  -1  -5   4 3839.96 677.873   1
  -1  -5   3 6444.19 715.360   1
  -1  -5   2 38617.9 1341.53   1
  -1  -5   1 35435.0 1214.18   1
  -1  -5   0 439.958 438.160   1
  -1  -5  -1 16055.0 818.887   1
  -1  -5  -2 221202. 2690.01   1
   1   5   3 5247.31 396.416   1
   1   5   4 560.623 382.605   1
   1   5   5 57516.0 1513.93   1
   1   5   6 10427.6 825.507   1
   1   5   7 10103.8 821.807   1
   1   5   8 36208.6 450.567   1
   1   5   9 9745.33 404.132   1
  -1  -5 -10 2108.81 337.276   1
  -1  -5 -11 13697.2 523.417   1
  -1  -5 -12 8430.08 433.833   1
  -1  -5 -13 961.176 280.433   1
  -1  -5 -14 27.6553 195.557   1
  -1  -6  10 1551.60 123.414   1
  -1  -6   9 1510.94 175.429   1
  -1  -6   8 949.608 277.000   1
  -1  -6   7 2025.37 299.133   1
  -1  -6   6 2823.22 323.701   1
  -1  -6   5 5455.37 247.609   1
  -1  -6   4 1150.32 261.096   1
  -1  -6   3 22326.4 465.831   1
  -1  -6   2 4213.15 690.703   1
  -1  -6   1 7026.61 755.986   1
  -1  -6   0 28709.8 1217.74   1
  -1  -6  -1 36828.3 1329.27   1
  -1  -6  -2 21188.3 1046.51   1
   1   6   3 107.958 412.246   1
   1   6   4 11130.1 841.829   1
   1   6   5 1925.15 506.921   1
   1   6   6 8050.96 771.779   1
  -1  -6  -7 25621.0 554.166   1
  -1  -6  -8 59092.8 817.867   1
  -1  -6  -9 13283.1 511.702   1
  -1  -6 -10 13941.7 537.738   1
  -1  -6 -11 9689.43 466.984   1
  -1  -6 -12 184.377 271.298   1
  -1  -6 -13 1620.12 257.185   1
  -1  -6 -14 4442.27 234.940   1
  -1  -7   9 1011.64 187.964   1
  -1  -7   8 912.385 226.145   1
  -1  -7   7-34.8079 249.060   1
  -1  -7   6 3621.37 310.621   1
  -1  -7   5 251.076 179.268   1
  -1  -7   4 11063.2 303.969   1
  -1  -7   3 7394.03 406.953   1
  -1  -7   2-51.3486 169.474   1
  -1  -7   1 2837.03 197.962   1
  -1  -7   0 8035.09 241.560   1
  -1  -7  -1 18307.5 321.963   1
  -1  -7  -2 3541.35 642.979   1
  -1  -7  -3 21630.2 470.910   1
  -1  -7  -4 532.723 233.283   1
  -1  -7  -5 19804.6 477.864   1
   1   7   6 2622.87 291.287   1
   1   7   7 120.903 264.722   1
  -1  -7  -8 5773.43 409.070   1
  -1  -7  -9 6073.99 416.189   1
  -1  -7 -10 1338.85 323.424   1
  -1  -7 -11 1984.12 307.633   1
  -1  -7 -12 4434.02 321.894   1
  -1  -7 -13 3870.53 262.866   1
  -1  -7 -14 962.617 147.235   1
  -1  -8   8 229.862 156.498   1
  -1  -8   7 1013.14 183.367   1
  -1  -8   6 244.810 205.798   1
  -1  -8   5 550.005 170.729   1
  -1  -8   4 215.636 172.272   1
  -1  -8   3 952.467 193.146   1
  -1  -8   2 397.220 301.038   1
  -1  -8   1 4511.65 250.500   1
  -1  -8   0 37901.0 503.833   1
  -1  -8  -1 8869.02 290.490   1
  -1  -8  -2 3300.56 182.605   1
   1   8   3 1803.84 139.920   1
  -1  -8  -4 6976.80 180.368   1
  -1  -8  -5-35.9691 141.625   1
  -1  -8  -6 7.85634 191.672   1
  -1  -8  -7 14329.5 360.151   1
  -1  -8  -8 16471.7 544.164   1
  -1  -8  -9 26.3532 272.635   1
  -1  -8 -10 1449.49 300.797   1
  -1  -8 -11 6318.17 358.660   1
  -1  -8 -12-13.1642 138.201   1
  -1  -8 -13 96.7197 101.307   1
  -1  -9   6 73.4250 130.333   1
  -1  -9   5 400.840 121.255   1
  -1  -9   4 3809.28 184.766   1
  -1  -9   3 702.746 165.246   1
  -1  -9   2 1886.03 314.416   1
  -1  -9   1 8440.07 419.310   1
  -1  -9   0 856.358 200.045   1
  -1  -9  -1 200.403 203.565   1
  -1  -9  -2 2137.15 224.654   1
  -1  -9  -3 2027.85 217.975   1
  -1  -9  -4 1137.77 155.215   1
  -1  -9  -5 6230.66 266.471   1
  -1  -9  -6 16178.3 364.573   1
  -1  -9  -7 5238.66 258.382   1
  -1  -9  -8 3627.08 233.841   1
  -1  -9  -9 3575.65 225.473   1
  -1  -9 -10 10578.4 262.327   1
  -1  -9 -11 70.2315 134.647   1
  -1  -9 -12 645.987 105.877   1
  -1 -10   4 242.839 146.522   1
  -1 -10   3 1087.58 216.193   1
  -1 -10   2 1383.10 250.101   1
  -1 -10   1 62.0833 250.551   1
  -1 -10   0 1941.58 290.207   1
  -1 -10  -1 5447.07 249.250   1
  -1 -10  -2 1772.40 201.859   1
  -1 -10  -3 53.1575 167.877   1
  -1 -10  -4 2120.58 187.371   1
  -1 -10  -5 4673.38 339.901   1
  -1 -10  -6 2055.19 288.269   1
  -1 -10  -7 1884.62 267.287   1
  -1 -10  -8 798.415 160.324   1
  -1 -10  -9 3609.19 171.460   1
  -1 -10 -10 15.9640 107.448   1
  -1 -11   2 228.200 126.047   1
  -1 -11   1 978.221 179.297   1
  -1 -11   0 1145.49 200.435   1
  -1 -11  -1-5.42581 186.675   1
  -1 -11  -2 134.332 191.464   1
  -1 -11  -3 1574.18 143.270   1
  -1 -11  -4 89.9198 197.922   1
  -1 -11  -5 543.853 193.327   1
  -1 -11  -6 3730.50 245.687   1
  -1 -11  -7 115.331 174.868   1
  -1 -11  -8 200.344 145.190   1
   2 -10  -6-130.516 122.339   1
   2 -10  -5 1335.93 174.841   1
   2 -10  -3 547.403 164.487   1
   2 -10  -2 4586.47 236.687   1
   2 -10  -1 690.879 194.975   1
   2 -10   0 128.581 102.189   1
   2 -10   1 328.696 175.340   1
   2 -10   2 370.339 143.763   1
   2  11  -1 3684.30 227.414  -2
   2 -10   2 3684.30 227.414   1
   2  -9  -8-4.83143 149.841   1
   2  -9  -7 2573.09 203.891   1
   2  -9  -6 8181.25 311.320   1
   2  -9  -5 579.565 201.625   1
   2  -9  -4 207.639 135.292   1
   2  -9  -3 17705.5 311.315   1
   2  -9  -2 117.614 141.970   1
   2  -9  -1 631.317 195.733   1
   2  -9   0 89.9922 183.499   1
   2  -9   1 1983.13 223.353   1
   2  -9   2 1029.78 196.313   1
   2  10  -2 720.201 258.774  -2
   2  -9   3 720.201 258.774   1
   2  10  -3 7067.10 212.647  -2
   2  -9   4 7067.10 212.647   1
   2  10  -4 1829.38 225.722  -2
   2  -9   5 1829.38 225.722   1
   2  -8  -9 128.264 208.983   1
   2  -8  -8 3043.14 184.193   1
   2  -8  -7 9989.81 209.948   1
   2  -8  -6 405.556 130.175   1
   2  -8  -5-269.494 145.546   1
   2  -8  -4 29681.1 422.250   1
   2  -8  -3 1366.59 181.814   1
   2  -8  -2 287.614 161.774   1
   2  -8  -1 13474.9 432.714   1
   2   9   2 16984.4 574.561  -2
   2  -8  -1 16984.4 574.561   1
   2  -8   0 8443.26 370.629   1
   2   9   1 28558.9 699.665  -2
   2  -8   0 28558.9 699.665   1
   2   9   0 4032.52 359.727  -2
   2  -8   1 4032.52 359.727   1
   2   9  -1 5667.24 386.452  -2
   2  -8   2 5667.24 386.452   1
   2   9  -2 11132.3 440.205  -2
   2  -8   3 11132.3 440.205   1
   2   9  -3 2131.21 316.231  -2
   2  -8   4 2131.21 316.231   1
   2   9  -4 459.094 245.702  -2
   2  -8   5 459.094 245.702   1
   2   9  -5 688.368 273.930  -2
   2  -8   6 688.368 273.930   1
   2   9  -6 3963.89 272.076  -2
   2  -8   7 3963.89 272.076   1
  -2   7  12 4297.05 193.151   1
  -2   7  11 550.768 133.772   1
  -2   7  10 1566.01 175.892   1
   2  -7  -9 4768.61 173.754   1
   2  -7  -8 2830.44 155.426   1
   2  -7  -7 2529.61 165.272   1
   2  -7  -6 2333.63 142.818   1
   2  -7  -5 23629.3 337.438   1
   2  -7  -4 8608.28 237.351   1
   2  -7  -3 452.970 150.676   1
   2  -7  -2 7276.08 266.910   1
   2   8   2 30989.2 463.121  -2
   2  -7  -1 30989.2 463.121   1
   2   8   1 11492.0 346.100  -2
   2  -7   0 11492.0 346.100   1
   2   8   0 5596.12 292.814  -2
   2  -7   1 5596.12 292.814   1
   2   8  -1 16833.4 527.732  -2
   2  -7   2 16833.4 527.732   1
   2   8  -2 7860.71 439.292  -2
   2  -7   3 7860.71 439.292   1
   2   8  -3 6234.24 419.020  -2
   2  -7   4 6234.24 419.020   1
   2   8  -4 6020.70 417.160  -2
   2  -7   5 6020.70 417.160   1
   2   8  -5 5922.73 443.793  -2
   2  -7   6 5922.73 443.793   1
   2   8  -6 1200.53 329.770  -2
   2  -7   7 1200.53 329.770   1
   2   8  -7 1595.93 283.094  -2
   2  -7   8 1595.93 283.094   1
   2   8  -8 1462.10 196.397  -2
   2  -7   9 1462.10 196.397   1
  -2   6  13 111.423 150.059   1
  -2   6  12 3292.21 276.983   1
  -2   6  11 9450.39 188.500   1
   2  -6 -10 4321.78 197.893   1
   2  -6  -9 1194.28 191.545   1
   2  -6  -8 4572.82 159.764   1
   2  -6  -7 9158.11 202.239   1
  -2   6   6 23715.5 288.498   1
   2  -6  -5 15227.8 272.769   1
  -2   6   4 1578.90 147.002   1
   2  -6  -3 13390.7 244.309   1
  -2   6   2 263.958 242.489   1
   2   7   3 6143.95 348.227  -2
   2  -6  -2 6143.95 348.227   1
   2   7   2 31067.8 588.056  -2
   2  -6  -1 31067.8 588.056   1
   2   7   1 23461.0 375.446  -2
   2  -6   0 23461.0 375.446   1
   2   7   0 13393.2 327.315  -2
   2  -6   1 13393.2 327.315   1
   2   7  -1 26979.3 428.404  -2
   2  -6   2 26979.3 428.404   1
   2   7  -2 15736.6 516.371  -2
   2  -6   3 15736.6 516.371   1
   2   7  -3 8735.08 461.688  -2
   2  -6   4 8735.08 461.688   1
   2   7  -4 5751.19 434.788  -2
   2  -6   5 5751.19 434.788   1
   2   7  -5 12793.6 545.870  -2
   2  -6   6 12793.6 545.870   1
   2   7  -6 426.998 310.256  -2
   2  -6   7 426.998 310.256   1
   2   7  -7 1022.05 198.313  -2
   2  -6   8 1022.05 198.313   1
   2   7  -8 1721.69 310.721  -2
   2  -6   9 1721.69 310.721   1
   2   7  -9 2964.98 239.844  -2
   2  -6  10 2964.98 239.844   1
  -2   5  13 3935.54 251.803   1
  -2   5  12 6586.55 204.751   1
   2  -5 -11 3377.26 165.347   1
   2  -5 -10 5545.82 349.004   1
   2  -5  -9 606.509 190.238   1
   2  -5  -8 2598.25 228.082   1
   2  -5  -7 1075.37 191.391   1
   2  -5  -6 32613.5 355.866   1
  -2   5   5 4332.76 635.549   1
  -2   5   4 12631.7 781.866   1
  -2   5   3-346.548 449.088   1
  -2   5   2 40674.7 1222.81   1
   2  -5  -1 9551.73 695.824   1
   2  -5   0 5653.01 631.984   1
   2   6   0 92965.1 1868.73  -2
   2  -5   1 92965.1 1868.73   1
   2   6  -1 25554.6 1131.86  -2
   2  -5   2 25554.6 1131.86   1
   2   6  -2 1151.37 930.357  -2
   2  -5   3 1151.37 930.357   1
   2   6  -3 6381.71 376.653  -2
   2  -5   4 6381.71 376.653   1
   2   6  -4 34265.6 458.168  -2
   2  -5   5 34265.6 458.168   1
   2   6  -5 1701.61 238.933  -2
   2  -5   6 1701.61 238.933   1
   2   6  -6 5989.80 304.852  -2
   2  -5   7 5989.80 304.852   1
   2   6  -7 4011.56 445.872  -2
   2  -5   8 4011.56 445.872   1
   2   6  -8 12070.4 347.658  -2
   2  -5   9 12070.4 347.658   1
   2   6  -9 2008.32 206.693  -2
   2  -5  10 2008.32 206.693   1
   2   6 -10 2052.87 207.169  -2
   2  -5  11 2052.87 207.169   1
  -2   4  13 3170.35 147.876   1
  -2   4  12 1970.44 338.310   1
  -2   4  11 5065.80 420.444   1
  -2   4  10 726.913 182.453   1
   2  -4  -9 44.4614 179.418   1
  -2   4   8 25669.8 427.413   1
  -2   4   7 50744.5 519.628   1
  -2   4   6 19235.7 441.360   1
  -2   4   5 11239.0 704.180   1
  -2   4   4 2189.87 170.073   1
  -2   4   3 44369.9 507.449   1
  -2   4   2 1021.77 373.211   1
   2  -4  -1 4655.70 485.467   1
  -2  -5  -2 70915.6 574.988  -2
  -2   4   1 70915.6 574.988   1
   2  -4   0 97391.1 1647.32   1
   2   5   0 23479.1 902.714  -2
   2  -4   1 23479.1 902.714   1
   2   5  -1 245.052 521.842  -2
   2  -4   2 245.052 521.842   1
   2   5  -2 4290.26 624.230  -2
   2  -4   3 4290.26 624.230   1
   2   5  -3 49990.9 1665.15  -2
   2  -4   4 49990.9 1665.15   1
   2   5  -4 507.233 270.188  -2
   2  -4   5 507.233 270.188   1
   2   5  -5 1881.15 227.418  -2
   2  -4   6 1881.15 227.418   1
   2   5  -6 9631.88 469.539  -2
   2  -4   7 9631.88 469.539   1
   2   5  -7 20088.1 461.738  -2
   2  -4   8 20088.1 461.738   1
   2   5  -8 2048.40 239.826  -2
   2  -4   9 2048.40 239.826   1
   2   5  -9 2655.08 264.170  -2
   2  -4  10 2655.08 264.170   1
   2   5 -10 11165.7 298.948  -2
   2  -4  11 11165.7 298.948   1
   2   5 -11 566.434 202.735  -2
   2  -4  12 566.434 202.735   1
  -2   3  13 3965.29 292.289   1
  -2   3  12 3088.44 354.913   1
  -2   3  11 3337.45 409.699   1
  -2   3  10 10651.8 446.634   1
  -2   3   9 10396.8 441.382   1
  -2   3   8 26176.5 378.851   1
  -2   3   7 11440.1 368.307   1
  -2   3   6 123.402 189.421   1
  -2   3   5 59902.3 1369.54   1
  -2   3   4 32268.1 385.199   1
  -2   3   3 2872.44 174.676   1
  -2   3   2 115492. 1506.30   1
  -2  -4  -3 206344. 759.734  -2
  -2   3   2 206344. 759.734   1
  -2  -4  -2 216111. 871.189  -2
  -2   3   1 216111. 871.189   1
   2   4   1 25005.7 767.244  -2
   2  -3   0 25005.7 767.244   1
   2   4   0 19340.2 741.356  -2
   2  -3   1 19340.2 741.356   1
   2   4  -1 34009.6 985.097  -2
   2  -3   2 34009.6 985.097   1
   2   4  -2 39240.1 1140.10  -2
   2  -3   3 39240.1 1140.10   1
   2   4  -3 3841.70 626.542  -2
   2  -3   4 3841.70 626.542   1
   2   4  -4 1325.78 598.621  -2
   2  -3   5 1325.78 598.621   1
   2   4  -5 19536.8 1290.06  -2
   2  -3   6 19536.8 1290.06   1
   2   4  -6 30924.4 484.249  -2
   2  -3   7 30924.4 484.249   1
   2   4  -7 2164.72 273.245  -2
   2  -3   8 2164.72 273.245   1
  -2  -4   8 4313.86 233.503  -2
  -2   3  -9 4313.86 233.503   1
   2   4  -9 10528.4 517.311  -2
   2  -3  10 10528.4 517.311   1
   2   4 -10 2034.37 243.319  -2
   2  -3  11 2034.37 243.319   1
   2   4 -11 934.621 281.322  -2
   2  -3  12 934.621 281.322   1
   2   4 -12 440.655 179.244  -2
   2  -3  13 440.655 179.244   1
  -2   2  13 6248.19 303.957   1
  -2   2  12 1167.69 326.922   1
  -2   2  11 1048.49 225.876   1
  -2   2  10 21467.0 549.971   1
  -2   2   9 6840.41 274.335   1
  -2   2   8 4511.23 331.117   1
  -2  -3  -9 5041.75 341.574  -2
  -2   2   8 5041.75 341.574   1
  -2   2   7 11691.9 423.681   1
  -2  -3  -8 11894.3 841.014  -2
  -2   2   7 11894.3 841.014   1
  -2   2   6 66962.1 713.931   1
  -2   2   5 51323.0 585.654   1
  -2   2   4 884.991 125.292   1
  -2   2   3 98009.1 602.137   1
  -2   2   2 48583.9 850.520   1
  -2  -3  -3 48102.8 490.561  -2
  -2   2   2 48102.8 490.561   1
  -2   2   1 23933.4 579.361   1
  -2  -3  -2 38543.7 362.448  -2
  -2   2   1 38543.7 362.448   1
   2  -2   0 18442.8 525.339   1
  -2  -3  -1 33726.9 377.179  -2
  -2   2   0 33726.9 377.179   1
   2   3   0 72784.1 994.749  -2
   2  -2   1 72784.1 994.749   1
   2   3  -1 18330.5 645.678  -2
   2  -2   2 18330.5 645.678   1
   2   3  -2 4966.55 536.325  -2
   2  -2   3 4966.55 536.325   1
   2   3  -3 13101.4 725.048  -2
   2  -2   4 13101.4 725.048   1
   2   3  -4 14116.6 843.382  -2
   2  -2   5 14116.6 843.382   1
   2   3  -5 2784.68 609.342  -2
   2  -2   6 2784.68 609.342   1
   2   3  -6 40371.4 1770.13  -2
   2  -2   7 40371.4 1770.13   1
   2   3  -7 31015.9 492.702  -2
   2  -2   8 31015.9 492.702   1
   2   3  -8 9690.38 278.934  -2
   2  -2   9 9690.38 278.934   1
   2   3  -9 15140.9 396.909  -2
   2  -2  10 15140.9 396.909   1
   2   3 -10 9751.21 345.440  -2
   2  -2  11 9751.21 345.440   1
   2   3 -11 3577.32 362.942  -2
   2  -2  12 3577.32 362.942   1
   2   3 -12 3391.09 288.929  -2
   2  -2  13 3391.09 288.929   1
  -2   1  13-105.961 180.169   1
  -2   1  12 618.233 202.173   1
  -2   1  11 6263.16 392.160   1
  -2  -2 -12 9457.64 491.910  -2
  -2   1  11 9457.64 491.910   1
  -2   1  10 316.925 300.637   1
  -2  -2 -11 22329.1 653.087  -2
  -2   1  10 22329.1 653.087   1
  -2   1   9 44.3606 235.720   1
  -2  -2 -10 12521.5 464.258  -2
  -2   1   9 12521.5 464.258   1
  -2   1   8 1033.38 258.825   1
  -2  -2  -9 10026.0 403.565  -2
  -2   1   8 10026.0 403.565   1
  -2   1   7 5402.51 330.015   1
  -2  -2  -8 46138.6 1377.60  -2
  -2   1   7 46138.6 1377.60   1
  -2   1   6 6536.41 322.485   1
  -2  -2  -7 6266.83 632.575  -2
  -2   1   6 6266.83 632.575   1
  -2   1   5 3586.40 257.483   1
  -2  -2  -6 124561. 1706.47  -2
  -2   1   5 124561. 1706.47   1
  -2   1   4 132001. 925.015   1
  -2  -2  -5 466939. 2836.82  -2
  -2   1   4 466939. 2836.82   1
  -2   1   3 23.4846 86.8593   1
  -2   1   2 40134.9 357.114   1
  -2   1   1 58390.3 394.625   1
  -2  -2  -1 97624.8 533.266  -2
  -2   1   0 97624.8 533.266   1
   2   2   0 82107.7 431.211  -2
   2  -1   1 82107.7 431.211   1
   2  -1   2 18471.6 490.538   1
   2  -1   3 21233.2 610.325   1
   2   2  -3 6368.37 533.213  -2
   2  -1   4 6368.37 533.213   1
   2   2  -4 1794.18 503.993  -2
   2  -1   5 1794.18 503.993   1
   2   2  -5 107149. 2205.86  -2
   2  -1   6 107149. 2205.86   1
   2   2  -6 57797.1 1782.56  -2
   2  -1   7 57797.1 1782.56   1
   2   2  -7 1662.58 198.226  -2
   2  -1   8 1662.58 198.226   1
   2   2  -8 38400.3 512.818  -2
   2  -1   9 38400.3 512.818   1
   2   2  -9 11473.5 359.029  -2
   2  -1  10 11473.5 359.029   1
  -2  -2  10 942.415 242.472  -2
  -2   1 -11 942.415 242.472   1
   2   2 -11 1159.64 225.793  -2
   2  -1  12 1159.64 225.793   1
   2   2 -12 15705.6 449.242  -2
   2  -1  13 15705.6 449.242   1
   2   2 -13 2024.69 210.090  -2
   2  -1  14 2024.69 210.090   1
  -2   0  13 437.145 162.270   1
  -2   0  12 6440.14 377.528   1
  -2   0  11 43.9019 199.902   1
  -2  -1 -11 19817.9 418.967  -2
  -2   0  10 19817.9 418.967   1
  -2   0   9 19185.6 527.123   1
  -2  -1 -10 19718.9 395.341  -2
  -2   0   9 19718.9 395.341   1
  -2   0   8 4308.98 330.281   1
  -2  -1  -9 12961.7 320.242  -2
  -2   0   8 12961.7 320.242   1
  -2   0   7 21010.8 517.682   1
  -2  -1  -8 22433.2 1072.65  -2
  -2   0   7 22433.2 1072.65   1
  -2   0   6 97257.2 962.592   1
  -2  -1  -7 136508. 2094.27  -2
  -2   0   6 136508. 2094.27   1
  -2   0   5 129975. 990.832   1
  -2  -1  -6 188161. 2176.87  -2
  -2   0   5 188161. 2176.87   1
  -2   0   4 23484.3 412.852   1
  -2  -1  -5 32823.8 863.514  -2
  -2   0   4 32823.8 863.514   1
  -2   0   3 44047.1 332.519   1
  -2   0   2 85579.1 419.304   1
  -2   0   1 212068. 619.305   1
  -2   0   0 142176. 690.917   1
  -2   0  -1 4798.67 196.674   1
   2   0   2 4300.08 178.365   1
  -2  -1   1 688361. 1410.54  -2
  -2   0  -2 688361. 1410.54   1
   2   0   3 1947.51 302.594   1
  -2  -1   2 15721.2 302.826  -2
  -2   0  -3 15721.2 302.826   1
  -2  -1   3 22941.8 323.544  -2
  -2   0  -4 22941.8 323.544   1
   2   1  -4 184654. 864.343  -2
   2   0   5 184654. 864.343   1
  -2  -1   5 50211.0 513.519  -2
  -2   0  -6 50211.0 513.519   1
   2   1  -6 35959.7 468.212  -2
   2   0   7 35959.7 468.212   1
   2   1  -7 89751.2 762.674  -2
   2   0   8 89751.2 762.674   1
   2   1  -8 18012.3 490.735  -2
   2   0   9 18012.3 490.735   1
  -2  -1   9 2924.80 394.420  -2
  -2   0 -10 2924.80 394.420   1
   2   1 -10 3955.25 286.084  -2
   2   0  11 3955.25 286.084   1
  -2  -1  11 35282.7 487.533  -2
  -2   0 -12 35282.7 487.533   1
  -2  -1  12 695.358 199.116  -2
  -2   0 -13 695.358 199.116   1
   2   1 -13 1002.56 218.162  -2
   2   0  14 1002.56 218.162   1
  -2  -1  13 310.101 174.691   1
  -2  -1  12 163.067 279.700   1
  -2  -1  11 4388.20 363.515   1
  -2  -1  10 3041.10 331.676   1
  -2   0 -11 3030.58 420.846  -2
  -2  -1  10 3030.58 420.846   1
  -2  -1   9 3.32630 199.501   1
  -2   0 -10 2603.15 391.733  -2
  -2  -1   9 2603.15 391.733   1
  -2  -1   8 11721.1 460.046   1
  -2   0  -9 16881.4 345.203  -2
  -2  -1   8 16881.4 345.203   1
  -2   0  -8 95089.9 2147.73  -2
  -2  -1   7 95089.9 2147.73   1
  -2  -1   6 22704.8 508.551   1
  -2   0  -7 33848.8 1244.79  -2
  -2  -1   6 33848.8 1244.79   1
  -2  -1   5 37131.7 574.009   1
  -2  -1   4 36254.3 504.909   1
  -2  -1   3 17018.4 264.391   1
  -2  -1   2 10842.2 188.091   1
  -2  -1   1 601638. 1012.21   1
  -2  -1   0 488608. 2256.20   1
  -2  -1  -1 290462. 685.744   1
  -2  -1  -2 13958.1 192.868   1
   2   1   3 11188.8 143.302   1
   2   0  -3 70880.9 459.738  -2
   2   1   4 70880.9 459.738   1
  -2   0   4 34623.8 366.098  -2
  -2  -1  -5 34623.8 366.098   1
   2   0  -5 202227. 854.256  -2
   2   1   6 202227. 854.256   1
  -2   0   6 143581. 762.169  -2
  -2  -1  -7 143581. 762.169   1
   2   0  -7 24881.1 1193.90  -2
   2   1   8 24881.1 1193.90   1
   2   0  -8 12625.2 301.072  -2
   2   1   9 12625.2 301.072   1
  -2   0   9 23071.0 594.597  -2
  -2  -1 -10 23071.0 594.597   1
   2   0 -10 19812.0 410.378  -2
   2   1  11 19812.0 410.378   1
   2   0 -11 8296.24 305.181  -2
   2   1  12 8296.24 305.181   1
   2   0 -12 7455.90 271.436  -2
   2   1  13 7455.90 271.436   1
   2   0 -13 5204.83 263.668  -2
   2   1  14 5204.83 263.668   1
  -2  -2  13 1002.27 166.033   1
  -2  -2  12 3703.97 290.311   1
  -2  -2  11 795.231 288.439   1
  -2   1 -12 1035.37 330.462  -2
  -2  -2  11 1035.37 330.462   1
  -2   1 -11 909.533 268.779  -2
  -2  -2  10 909.533 268.779   1
  -2   1 -10 10111.0 347.644  -2
  -2  -2   9 10111.0 347.644   1
  -2   1  -9 39561.1 478.771  -2
  -2  -2   8 39561.1 478.771   1
  -2   1  -8 2147.99 234.853  -2
  -2  -2   7 2147.99 234.853   1
  -2   1  -7 53200.5 1595.18  -2
  -2  -2   6 53200.5 1595.18   1
  -2   1  -6 112181. 2011.13  -2
  -2  -2   5 112181. 2011.13   1
  -2   1  -5 1377.94 501.749  -2
  -2  -2   4 1377.94 501.749   1
  -2  -2   3 4651.32 206.537   1
  -2  -2   2 6188.43 168.682   1
  -2  -2   1 4491.51 134.519   1
  -2  -2   0 72048.5 651.185   1
  -2  -2  -1 14210.8 419.968   1
  -2  -2  -2 4166.43 224.869   1
  -2  -2  -3 59794.0 659.833   1
   2   2   4 11256.0 342.809   1
  -2  -2  -5 288318. 2079.10   1
   2  -1  -4 460358. 3178.61  -2
   2   2   5 460358. 3178.61   1
  -2  -2  -6 111424. 1316.36   1
   2  -1  -5 115915. 1818.76  -2
   2   2   6 115915. 1818.76   1
   2  -1  -6 8516.92 721.981  -2
   2   2   7 8516.92 721.981   1
   2  -1  -7 45245.1 1450.23  -2
   2   2   8 45245.1 1450.23   1
   2  -1  -8 10035.4 386.067  -2
   2   2   9 10035.4 386.067   1
   2  -1  -9 11858.5 305.964  -2
   2   2  10 11858.5 305.964   1
  -2   1  10 20206.7 379.397  -2
  -2  -2 -11 20206.7 379.397   1
  -2   1  11 10359.8 314.348  -2
  -2  -2 -12 10359.8 314.348   1
   2  -1 -12 5705.54 247.296  -2
   2   2  13 5705.54 247.296   1
  -2  -2 -15 672.552 144.001   1
  -2  -3  12 58.4391 141.720   1
  -2  -3  11 2625.91 295.073   1
  -2   2 -12 2650.19 336.346  -2
  -2  -3  11 2650.19 336.346   1
  -2  -3  10 6725.92 381.051   1
  -2   2 -11 8719.68 457.692  -2
  -2  -3  10 8719.68 457.692   1
  -2   2 -10 15330.7 378.354  -2
  -2  -3   9 15330.7 378.354   1
  -2   2  -9 8383.26 268.316  -2
  -2  -3   8 8383.26 268.316   1
  -2   2  -8 27125.5 398.022  -2
  -2  -3   7 27125.5 398.022   1
  -2   2  -7 45961.1 1597.24  -2
  -2  -3   6 45961.1 1597.24   1
  -2   2  -6 3707.90 733.205  -2
  -2  -3   5 3707.90 733.205   1
  -2  -3   4 6799.13 629.201   1
  -2  -3   3 10867.8 667.522   1
  -2  -3   2 1183.72 401.993   1
  -2  -3   1 1174.12 217.777   1
  -2  -3   0 51559.4 668.285   1
  -2  -3  -1 13886.3 362.193   1
  -2  -3  -2 13275.5 363.434   1
  -2  -3  -3 45.4136 181.073   1
   2   3   4 107751. 978.301   1
   2   3   5 2576.71 248.477   1
   2   3   6 7730.04 327.730   1
   2  -2  -6 98776.1 1919.18  -2
   2   3   7 98776.1 1919.18   1
   2  -2  -7 15118.9 955.048  -2
   2   3   8 15118.9 955.048   1
  -2   2   8 5620.79 356.208  -2
  -2  -3  -9 5620.79 356.208   1
   2  -2  -9 28001.0 579.401  -2
   2   3  10 28001.0 579.401   1
  -2   2  10 23472.5 642.216  -2
  -2  -3 -11 23472.5 642.216   1
  -2   2  11 1669.95 391.057  -2
  -2  -3 -12 1669.95 391.057   1
  -2   2  12 5984.13 408.399  -2
  -2  -3 -13 5984.13 408.399   1
  -2  -3 -14 2987.91 277.489   1
  -2  -3 -15 712.526 156.422   1
  -2  -4  12 579.651 157.461   1
  -2  -4  11-120.254 203.555   1
  -2   3 -12 675.057 273.601  -2
  -2  -4  11 675.057 273.601   1
  -2  -4  10 1097.82 258.539   1
  -2   3 -11 1636.64 349.500  -2
  -2  -4  10 1636.64 349.500   1
  -2  -4   9 2857.43 310.747   1
  -2   3 -10 10536.0 491.697  -2
  -2  -4   9 10536.0 491.697   1
  -2   3  -9 4183.89 279.794  -2
  -2  -4   8 4183.89 279.794   1
  -2   3  -8 2521.43 251.617  -2
  -2  -4   7 2521.43 251.617   1
  -2   3  -7 35155.8 618.921  -2
  -2  -4   6 35155.8 618.921   1
  -2   3  -6 23543.6 1266.88  -2
  -2  -4   5 23543.6 1266.88   1
  -2   3  -5 1560.94 607.222  -2
  -2  -4   4 1560.94 607.222   1
  -2   3  -4 2967.56 584.107  -2
  -2  -4   3 2967.56 584.107   1
  -2  -4   2 21283.0 901.940   1
  -2  -4   1 10212.6 637.788   1
  -2  -4   0 932.091 232.733   1
  -2  -4  -1 17530.2 471.770   1
  -2  -4  -2 49879.6 733.142   1
   2   4   3 87915.9 953.786   1
   2   4   4 57861.3 792.042   1
   2   4   5 75364.4 910.975   1
  -2  -4  -6 37393.5 660.800   1
   2   4   7 1288.03 433.968   1
   2   4   8 11688.9 834.204   1
   2   4   9 15670.9 1068.94   1
  -2   3   8 45313.6 743.109  -2
  -2  -4  -9 45313.6 743.109   1
  -2   3   9 14357.9 531.248  -2
  -2  -4 -10 14357.9 531.248   1
  -2   3  10 16442.2 558.745  -2
  -2  -4 -11 16442.2 558.745   1
  -2   3  11 16837.2 558.623  -2
  -2  -4 -12 16837.2 558.623   1
  -2  -4 -13 7311.59 394.824   1
  -2  -4 -14 593.357 227.764   1
  -2  -4 -15-184.445 141.838   1
  -2  -5  11 53.3316 150.861   1
  -2   4 -12 378.835 197.547  -2
  -2  -5  11 378.835 197.547   1
  -2  -5  10 5101.14 182.306   1
  -2   4 -11 9475.63 386.534  -2
  -2  -5  10 9475.63 386.534   1
  -2  -5   9-55.8153 236.327   1
  -2   4 -10 2458.30 368.795  -2
  -2  -5   9 2458.30 368.795   1
  -2  -5   8 1380.01 239.644   1
  -2   4  -9 1432.73 375.502  -2
  -2  -5   8 1432.73 375.502   1
  -2   4  -8 21350.6 596.711  -2
  -2  -5   7 21350.6 596.711   1
  -2   4  -7 10404.6 477.419  -2
  -2  -5   6 10404.6 477.419   1
  -2  -5   5 873.451 721.141   1
  -2   4  -6 1601.17 326.037  -2
  -2  -5   5 1601.17 326.037   1
  -2   4  -5 1356.12 829.366  -2
  -2  -5   4 1356.12 829.366   1
  -2  -5   3 16021.1 979.657   1
  -2  -5   2 2355.97 514.784   1
  -2  -5   1 49.3703 375.505   1
  -2  -5   0 18271.9 870.863   1
  -2  -5  -1 51435.5 1330.93   1
  -2  -5  -2 57691.5 908.357   1
  -2  -5  -3 23059.5 589.534   1
   2   5   4 29623.9 654.215   1
  -2  -5  -5 13018.6 470.387   1
   2   5   6 29944.4 1180.38   1
   2   5   7 90852.1 2070.33   1
   2   5   8 25735.2 1208.74   1
  -2   4   7 82539.5 910.622  -2
  -2  -5  -8 82539.5 910.622   1
   2   5   9 553.641 755.883   1
  -2   4   8 29537.0 647.690  -2
  -2  -5  -9 29537.0 647.690   1
  -2  -5 -10 33510.1 726.883   1
  -2   4   9 31203.9 686.440  -2
  -2  -5 -10 31203.9 686.440   1
  -2  -5 -11 5968.87 288.033   1
  -2  -5 -12 624.783 298.558   1
  -2  -5 -13 221.465 269.152   1
  -2  -5 -14 532.673 215.035   1
  -2  -5 -15 5149.00 190.082   1
  -2  -6  10 168.250 140.083   1
  -2   5 -11 2381.89 237.344  -2
  -2  -6  10 2381.89 237.344   1
  -2  -6   9 1454.99 217.160   1
  -2   5 -10 1667.38 304.191  -2
  -2  -6   9 1667.38 304.191   1
  -2  -6   8 3525.49 291.290   1
  -2   5  -8 4655.97 380.894  -2
  -2  -6   7 4655.97 380.894   1
  -2   5  -7 4928.89 403.867  -2
  -2  -6   6 4928.89 403.867   1
  -2  -6   5 673.368 282.313   1
  -2   5  -6 2039.55 351.271  -2
  -2  -6   5 2039.55 351.271   1
  -2  -6   4 16593.1 484.775   1
  -2   5  -5 32971.8 571.453  -2
  -2  -6   4 32971.8 571.453   1
  -2   5  -4 6340.45 363.235  -2
  -2  -6   3 6340.45 363.235   1
  -2  -6   2 1314.89 587.438   1
  -2  -6   1 10868.8 859.345   1
  -2  -6   0 17541.5 967.948   1
  -2  -6  -1 3270.65 634.661   1
  -2  -6  -2 35924.5 1275.20   1
   2   6   3 26086.9 1117.73   1
   2   6   4-4.32748 440.974   1
   2   6   5 32054.1 1282.64   1
   2   6   6 56635.4 1720.01   1
  -2  -6  -7 11158.5 253.215   1
   2   6   8 13304.7 427.489   1
  -2  -6  -9 3956.21 368.764   1
  -2  -6 -10 23.9175 288.531   1
  -2  -6 -11 129.229 289.810   1
  -2  -6 -12 918.815 293.487   1
  -2  -6 -13 10922.1 404.221   1
  -2  -6 -14 4318.16 244.531   1
  -2   6 -10 2935.46 232.392  -2
  -2  -7   9 2935.46 232.392   1
  -2   6  -9 1397.50 289.922  -2
  -2  -7   8 1397.50 289.922   1
  -2   6  -8 1018.36 282.383  -2
  -2  -7   7 1018.36 282.383   1
  -2   6  -7 432.335 291.584  -2
  -2  -7   6 432.335 291.584   1
  -2  -7   5 9308.40 387.231   1
  -2   6  -6 10124.5 422.802  -2
  -2  -7   5 10124.5 422.802   1
  -2  -7   4 3742.63 345.169   1
  -2   6  -5 4892.84 364.908  -2
  -2  -7   4 4892.84 364.908   1
  -2  -7   3 5699.47 390.142   1
  -2  -7   2 10436.7 392.505   1
  -2  -7   1 2421.46 203.564   1
  -2  -7   0 10201.3 266.831   1
  -2  -7  -1 17519.5 312.841   1
  -2  -7  -2 8436.74 320.382   1
   2   7   3 5484.93 275.090   1
  -2  -7  -4 15762.0 291.581   1
  -2  -7  -5 9181.64 321.825   1
  -2  -7  -6 993.772 164.193   1
  -2  -7  -7 1413.56 176.251   1
  -2  -7  -8 10903.0 475.262   1
  -2  -7  -9 6618.88 420.862   1
  -2  -7 -10 5135.49 387.293   1
  -2  -7 -11 4433.13 351.662   1
  -2  -7 -12 10057.9 420.204   1
  -2  -7 -13 2731.43 252.602   1
  -2  -7 -14 246.206 150.376   1
  -2   7  -9 1395.85 184.165  -2
  -2  -8   8 1395.85 184.165   1
  -2   7  -8 2662.73 258.433  -2
  -2  -8   7 2662.73 258.433   1
  -2  -8   6 358.903 181.819   1
  -2  -8   5 3661.66 190.615   1
  -2  -8   4 237.591 267.438   1
  -2  -8   3 4136.08 355.963   1
  -2  -8   2 6450.12 401.841   1
  -2  -8   1 321.553 190.903   1
  -2  -8   0 4132.56 234.107   1
  -2  -8  -1 6207.03 214.140   1
  -2  -8  -2 9334.10 233.636   1
  -2  -8  -3 11879.9 250.156   1
  -2  -8  -4 2004.48 157.388   1
  -2  -8  -5 8085.06 221.188   1
  -2  -8  -6 10919.3 242.169   1
  -2  -8  -7 9137.38 268.733   1
  -2  -8  -8 4043.42 346.524   1
  -2  -8  -9 3371.64 328.863   1
  -2  -8 -10 3828.07 331.445   1
  -2  -8 -11 5028.84 328.772   1
  -2  -8 -12 1494.93 243.390   1
  -2  -8 -13 2507.02 131.259   1
  -2  -9   6 2321.50 176.773   1
  -2  -9   5-23.8632 170.129   1
  -2  -9   4 202.502 226.254   1
  -2  -9   3 1970.48 289.469   1
  -2  -9   2 3208.40 350.918   1
  -2  -9   1 1813.99 333.220   1
  -2  -9   0 2742.35 212.823   1
  -2  -9  -1 16466.8 358.087   1
  -2  -9  -2 1845.60 208.231   1
  -2  -9  -3 12.9454 148.320   1
  -2  -9  -4 2006.43 162.756   1
  -2  -9  -5 3979.15 225.835   1
  -2  -9  -6 1568.92 146.866   1
  -2  -9  -7 2219.60 155.354   1
  -2  -9  -8 988.619 180.059   1
  -2  -9  -9 3504.20 214.331   1
  -2  -9 -10 2291.22 183.974   1
  -2  -9 -11 2160.72 156.452   1
  -2  -9 -12 4760.34 149.137   1
  -2 -10   4 810.515 154.117   1
  -2 -10   3 2446.55 226.884   1
  -2 -10   2 331.322 230.541   1
  -2 -10   1 19.6556 252.005   1
  -2 -10   0 8975.21 381.642   1
  -2 -10  -1 404.323 173.864   1
  -2 -10  -2 1112.26 184.698   1
  -2 -10  -3 4322.12 223.497   1
  -2 -10  -4 2241.04 187.569   1
  -2 -10  -5 1180.42 249.307   1
  -2 -10  -6 7743.55 373.181   1
  -2 -10  -7 1597.84 254.066   1
  -2 -10  -8 1235.44 155.242   1
  -2 -10  -9 125.861 125.563   1
  -2 -10 -10 3696.00 148.575   1
  -2 -10 -11 2740.19 163.991   1
  -2 -11   2 227.235 131.005   1
  -2 -11   1 2824.25 206.204   1
  -2 -11   0 52.1963 186.315   1
  -2 -11  -1 1070.70 207.947   1
  -2 -11  -2 2704.71 231.310   1
  -2 -11  -3 2385.58 151.645   1
  -2 -11  -4-16.8078 176.809   1
  -2 -11  -5 2307.86 210.474   1
  -2 -11  -6 408.759 173.849   1
  -2 -11  -7 406.459 169.448   1
  -2 -11  -8 285.431 146.976   1
   3 -10  -1 871.474 130.710   1
   3  -9  -6 112.304 114.116   1
   3  -9  -5 400.821 139.089   1
   3  -9  -4-99.3728 145.581   1
   3  -9  -3 317.760 153.846   1
   3  -9  -2 32.7546 157.040   1
   3  -9  -1 2689.21 212.116   1
   3  -9   0 3661.76 228.396   1
   3  -9   1 539.759 169.899   1
   3  -9   2 1766.17 137.307   1
   3  -9   3 1227.77 171.981   1
   3  -9   4 709.372 141.782   1
   3  -8  -8 124.290 130.113   1
   3  -8  -7 4067.68 232.550   1
   3  -8  -6 4944.77 254.646   1
   3  -8  -5 2110.60 244.108   1
   3  -8  -4 1986.66 171.972   1
   3  -8  -3 385.558 152.195   1
   3  -8  -2 9208.03 263.258   1
   3  -8  -1 8817.59 370.878   1
   3  -8   0 7.92172 218.278   1
   3  -8   1 5010.76 305.020   1
   3  -8   2 466.274 214.133   1
   3  -8   3 114.509 198.412   1
   3  -8   4 361.286 193.341   1
   3  -8   5 514.660 116.899   1
   3  -8   6 298.113 150.723   1
   3  -7 -10 12747.0 245.685   1
   3  -7  -8 3235.46 233.229   1
   3  -7  -7 3514.33 268.699   1
   3  -7  -6 6178.16 325.593   1
   3  -7  -5 1648.32 249.244   1
   3  -7  -4 1291.48 177.499   1
   3  -7  -3 10408.4 290.895   1
   3  -7  -2 142.294 135.009   1
   3  -7  -1 9827.96 241.957   1
   3  -7   0 26016.3 428.757   1
   3  -7   1 1260.89 264.774   1
   3  -7   2-12.4514 232.913   1
   3  -7   3 4068.02 315.563   1
   3  -7   4 3441.58 303.563   1
   3  -7   5 94.3630 212.233   1
   3  -7   6 341.913 218.986   1
   3  -7   7 1202.27 193.843   1
   3  -7   8 145.308 135.451   1
   3  -6 -11 15955.2 226.059   1
   3  -6 -10 1897.56 164.499   1
   3  -6  -9 10360.0 218.979   1
   3  -6  -8 2887.59 172.327   1
   3  -6  -7 3488.77 181.757   1
   3  -6  -6 2421.92 179.381   1
   3  -6  -5 709.236 191.335   1
   3  -6  -4 26078.8 445.306   1
   3  -6  -3 103.996 157.765   1
   3  -6  -2 14660.7 270.711   1
   3  -6  -1 33896.0 464.199   1
   3  -6   0 6458.70 254.647   1
   3  -6   1 508.139 156.937   1
   3  -6   2 314.192 166.641   1
   3  -6   3 133.316 164.205   1
   3  -6   4 1558.89 200.036   1
  -3   6  -5 1292.00 189.729   1
   3  -6   6 2402.34 171.351   1
   3  -6   7-156.946 233.786   1
   3  -6   8 198.690 130.604   1
   3  -6   9 525.910 166.101   1
  -3   5  12 4205.28 144.644   1
  -3   5  11 1189.49 158.259   1
   3  -5 -10 20.2841 170.949   1
   3  -5  -9 1277.67 199.723   1
  -3   5   8 1629.98 149.226   1
   3  -5  -7 6576.36 192.071   1
  -3   5   6-2.63837 139.605   1
   3  -5  -5 50718.1 572.049   1
   3  -5  -4 10386.7 301.447   1
   3  -5  -3 41096.1 400.941   1
   3  -5  -2 9255.55 264.662   1
   3  -5  -1 9611.70 368.387   1
  -3   5   0 21084.4 329.309   1
   3  -5   1 1749.40 147.698   1
   3  -5   2 520.905 164.464   1
  -3   5  -3 14653.7 324.820   1
  -3   5  -4 5783.67 187.536   1
   3  -5   5 5818.23 192.652   1
   3  -5   6 238.327 134.952   1
   3  -5   7 246.452 158.134   1
   3  -5   8 1680.18 175.475   1
   3  -5   9 46.1263 141.233   1
   3  -5  10 129.844 112.095   1
  -3   4  13-42.3272 145.177   1
  -3   4  12 13223.4 389.719   1
  -3   4  11 6339.72 395.545   1
  -3   4  10 5101.47 426.551   1
  -3   4   9 7332.81 299.115   1
  -3   4   8 41142.8 562.528   1
  -3   4   7 682.268 271.873   1
  -3   4   6 32246.2 696.114   1
  -3   4   4 12493.1 362.169   1
  -3   4   3 418.544 200.411   1
  -3   4   2 8101.07 341.635   1
  -3   4   1 51736.4 561.978   1
  -3   4   0 830.462 197.339   1
  -3   4  -1 198.208 202.090   1
  -3   4  -2 17635.2 446.402   1
  -3   4  -3 2281.52 264.534   1
   3  -4   4 42.6669 152.277   1
   3  -4   5 10375.0 262.362   1
   3  -4   6 4728.68 223.704   1
   3  -4   7 4094.05 181.781   1
   3  -4   8 1410.15 148.665   1
   3  -4   9 2925.32 192.348   1
   3  -4  10 1535.19 164.300   1
   3  -4  11 993.739 200.796   1
   3  -3 -13 5171.74 143.514   1
  -3   3  12 1519.01 275.774   1
  -3   3  11 1834.54 351.258   1
  -3   3  10 567.594 353.983   1
  -3   3   9 14337.2 383.830   1
  -3   3   8-82.4794 195.308   1
  -3   3   7 12915.1 482.924   1
  -3   3   6 86045.2 1044.04   1
  -3   3   5 31372.8 625.572   1
  -3   3   4 29441.6 495.109   1
  -3   3   3 79821.1 795.739   1
  -3   3   2 112497. 961.416   1
  -3   3   1 12629.4 227.580   1
  -3   3   0 8668.07 272.891   1
  -3   3  -1 82573.7 761.635   1
  -3   3  -2 20898.5 443.871   1
  -3   3  -3 121.742 215.949   1
  -3   3  -4 20061.9 484.599   1
  -3   3  -5 12742.1 425.201   1
   3  -3   6 4238.83 176.316   1
   3  -3   7 1504.53 153.678   1
   3  -3   8 741.918 143.911   1
   3  -3   9 97.7669 129.656   1
  -3   3 -10 858.418 158.022   1
   3  -3  11 4446.63 306.891   1
   3  -3  12 3360.45 230.447   1
  -3   2  13 17.4408 169.592   1
  -3   2  12 4669.88 324.878   1
  -3   2  11 3547.54 384.886   1
  -3   2  10 5583.07 276.216   1
  -3   2   9 2576.54 242.223   1
  -3   2   7 72505.2 706.422   1
  -3   2   6 6440.25 349.288   1
  -3   2   5 21075.1 505.981   1
  -3   2   4 22665.9 420.260   1
  -3   2   3 71407.4 700.277   1
  -3   2   2 29280.2 483.880   1
  -3   2   1 167.105 184.403   1
  -3   2   0 48655.2 395.583   1
  -3   2  -1 5920.01 243.376   1
  -3   2  -2 151.124 176.368   1
  -3   2  -3 2163.61 229.056   1
  -3   2  -4 1331.41 227.872   1
  -3   2  -5 84.4048 202.600   1
  -3   2  -6 24290.1 527.518   1
   3  -2   7 19260.1 267.512   1
  -3   2  -8 10103.4 218.141   1
  -3   2  -9 890.014 142.529   1
   3  -2  10 19206.0 333.816   1
   3  -2  11 4323.41 213.029   1
   3  -2  12 899.854 240.049   1
   3  -2  13 3923.90 220.027   1
  -3   1  13 5814.77 201.917   1
  -3   1  12 4390.74 303.241   1
  -3   1  11 137.300 301.331   1
  -3   1  10 1705.27 375.487   1
  -3   1   9 839.345 179.098   1
  -3   1   8 37212.2 522.823   1
  -3   1   7 850.389 165.815   1
  -3   1   6 44561.4 732.143   1
  -3   1   5 15356.0 437.254   1
  -3   1   4 8030.78 335.911   1
  -3   1   3 63607.7 512.524   1
  -3   1   2 50.5582 175.603   1
  -3   1   1 40462.7 520.443   1
  -3   1   0 487.947 188.901   1
  -3   1  -1 59250.2 416.558   1
  -3   1  -2 2903.02 213.543   1
  -3   1  -3 300.471 187.007   1
  -3   1  -4 43462.5 570.894   1
  -3   1  -5 39307.5 579.825   1
  -3   1  -6 298.187 206.131   1
  -3   1  -7 7320.84 326.149   1
   3  -1   8 806.717 158.954   1
   3  -1   9-143.768 142.068   1
   3  -1  10 148.506 259.056   1
  -3   1 -11 4015.73 306.828   1
   3  -1  12 10572.1 262.870   1
  -3   1 -13-103.354 123.161   1
   3  -1  14 530.558 132.758   1
  -3   0  12 36.8135 122.127   1
  -3   0  11 476.766 175.794   1
  -3   0  10 787.002 224.971   1
  -3   0   9 7786.15 319.379   1
  -3   0   8 5100.58 284.595   1
  -3   0   7 19019.8 253.183   1
  -3   0   6 1746.51 258.970   1
  -3   0   5 2578.66 250.184   1
  -3   0   4 68068.5 748.283   1
  -3   0   3 123.325 129.531   1
  -3   0   2 2394.65 162.532   1
  -3   0   1 58539.0 505.447   1
  -3   0   0 84617.5 692.302   1
  -3   0  -1 4293.46 225.528   1
  -3   0  -2 3246.46 152.512   1
  -3   0  -3 46061.0 366.971   1
  -3   0  -4 38012.4 349.660   1
   3   0   5 357.329 111.714   1
   3   0   6 247.396 177.600   1
  -3   0  -7 61603.5 712.545   1
   3   0   8 6495.65 211.908   1
   3   0   9 10423.9 365.474   1
  -3   0 -10 50822.7 514.116   1
  -3   0 -11 21358.3 535.792   1
   3   0  12 3939.96 221.261   1
   3   0  13 706.678 154.819   1
   3   0  14 21.0688 152.393   1
  -3  -1  12 11.1971 177.074   1
  -3  -1  11 814.881 146.818   1
  -3  -1  10 692.163 215.518   1
  -3  -1   9 10802.4 272.026   1
  -3  -1   8 15476.2 301.563   1
  -3  -1   7 52.8122 155.232   1
  -3  -1   6 30473.4 532.363   1
  -3  -1   5 38195.7 547.669   1
  -3  -1   4 194.926 168.473   1
  -3  -1   3 417.452 121.301   1
  -3  -1   2 27665.2 302.362   1
  -3  -1   1 39438.3 301.048   1
  -3  -1   0 991.259 153.631   1
  -3  -1  -1 2348.38 161.674   1
  -3  -1  -2 76698.5 624.379   1
   3   1   3 14960.0 248.911   1
   3   1   4 59994.5 458.502   1
  -3  -1  -5 4466.10 197.588   1
   3   1   6 91266.4 686.575   1
   3   1   7 195.349 162.361   1
   3   1   8 3393.94 625.718   1
   3   1   9 34698.7 497.570   1
   3   1  10 15104.8 314.143   1
   3   1  11 15382.3 333.489   1
  -3  -1 -12 2625.91 206.631   1
   3   1  13 2087.67 177.954   1
   3   1  14 163.499 114.092   1
  -3  -2  12 892.380 189.378   1
  -3  -2  11 4135.90 221.456   1
  -3  -2  10 8650.13 413.038   1
  -3  -2   9 955.492 177.615   1
  -3  -2   8 2261.20 197.315   1
  -3  -2   7 14468.1 263.254   1
  -3  -2   6 4134.48 287.708   1
  -3  -2   5-81.5856 503.873   1
  -3  -2   4 458.040 177.072   1
  -3  -2   3 64213.1 504.326   1
  -3  -2   2 33883.5 341.630   1
  -3  -2   1 11297.0 195.125   1
  -3  -2   0 51961.4 555.036   1
   3   2   1 89008.2 652.946   1
  -3  -2  -2 3163.39 193.274   1
   3   2   3 44486.8 601.751   1
   3   2   4 2360.18 314.711   1
   3   2   5 105751. 1092.35   1
  -3  -2  -6 4057.66 311.006   1
   3   2   7 9929.48 444.260   1
   3   2   8 44065.2 1395.32   1
  -3  -2  -9 1987.74 256.632   1
  -3  -2 -10 41915.8 718.441   1
   3   2  11 607.482 188.910   1
   3   2  12 2253.13 200.339   1
  -3  -2 -13-86.5653 248.701   1
  -3  -2 -14-86.1779 194.428   1
  -3  -2 -15 1819.77 154.514   1
  -3  -3  12 1389.78 168.220   1
  -3  -3  11 13009.4 388.539   1
  -3  -3  10 9149.56 276.797   1
  -3  -3   9 81.4513 197.496   1
  -3  -3   8 10804.4 320.609   1
  -3  -3   7-55.9937 191.347   1
  -3  -3   6 3534.07 208.654   1
  -3  -3   5 14523.8 925.688   1
  -3  -3   4 20431.1 903.055   1
  -3  -3   3-576.384 369.255   1
  -3  -3   2 5231.63 307.334   1
  -3  -3   1 14462.5 417.993   1
  -3  -3   0 4492.14 261.206   1
  -3  -3  -1 2480.12 220.938   1
   3   3   2 64730.4 752.168   1
   3   3   3 198.394 197.646   1
   3   3   4 34616.9 624.510   1
  -3  -3  -5 41409.7 719.540   1
   3   3   6 18467.1 529.255   1
  -3  -3  -7 28402.1 648.942   1
   3   3   8 3718.20 567.648   1
  -3  -3  -9 84672.2 862.374   1
  -3  -3 -10 6134.78 370.821   1
  -3  -3 -11 38.5238 276.234   1
  -3  -3 -12 13670.1 484.786   1
  -3  -3 -13 479.767 269.443   1
  -3  -3 -15 318.477 137.540   1
  -3  -4  11 310.812 189.210   1
  -3  -4  10 153.031 161.399   1
  -3  -4   9 165.341 183.139   1
  -3  -4   8 3902.48 246.317   1
  -3  -4   7 1150.75 206.361   1
  -3  -4   6 8664.57 271.348   1
  -3   2  -7 48868.5 1571.07  -2
  -3  -4   5 48868.5 1571.07   1
  -3  -4   4 2394.53 604.135   1
  -3  -4   3 3748.20 540.871   1
  -3  -4   2 34229.0 1079.24   1
  -3  -4   1 66.8533 232.285   1
  -3  -4   0 9271.04 387.552   1
  -3  -4  -1 39701.7 689.163   1
  -3  -4  -2 828.269 180.739   1
  -3  -4  -3 2918.51 273.461   1
   3   4   4 33640.2 668.302   1
  -3  -4  -5 10461.1 423.692   1
  -3  -4  -6 454.349 241.545   1
   3   4   7 37955.8 1272.68   1
   3   4   8 80439.5 793.769   1
   3   4   9 26840.6 523.244   1
  -3  -4 -10 13.5559 283.121   1
  -3  -4 -11 19924.7 566.521   1
  -3  -4 -12 959.156 302.576   1
  -3  -4 -13 3092.93 220.583   1
  -3  -4 -14 802.702 218.103   1
  -3  -4 -15 6017.00 207.802   1
  -3  -5  10 505.387 133.947   1
  -3  -5   9 432.039 255.812   1
  -3   3 -11 5111.62 358.978  -2
  -3  -5   9 5111.62 358.978   1
  -3  -5   8 1057.01 274.271   1
  -3  -5   7 711.462 287.409   1
  -3  -5   5 3810.42 322.724   1
  -3   3  -7 1568.86 1496.99  -2
  -3  -5   5 1568.86 1496.99   1
  -3  -5   4 854.658 252.747   1
  -3  -5   3 495.693 687.154   1
  -3  -5   2 20806.8 996.353   1
  -3  -5   1 18975.8 893.606   1
  -3  -5   0 7089.82 401.481   1
  -3  -5  -1 25303.7 653.087   1
  -3  -5  -2 30175.8 693.272   1
  -3  -5  -3 22394.2 617.014   1
  -3  -5  -4 4004.71 333.421   1
  -3  -5  -5 1528.45 285.557   1
   3   5   6 40115.2 801.612   1
   3   5   7 67349.3 1754.66   1
   3   5   8 15932.5 409.890   1
   3   5   9 183.309 246.338   1
  -3  -5 -10 25183.4 599.048   1
  -3  -5 -11 74.7216 288.517   1
  -3  -5 -12 23.5110 191.594   1
  -3  -5 -13 3105.25 299.694   1
  -3  -5 -14 9856.35 330.635   1
  -3  -6   9 297.084 176.081   1
  -3   4 -11 1334.31 248.161  -2
  -3  -6   9 1334.31 248.161   1
  -3  -6   8 160.051 233.944   1
  -3   4 -10 2008.91 319.668  -2
  -3  -6   8 2008.91 319.668   1
  -3  -6   7 236.821 260.005   1
  -3   4  -9 4447.80 375.361  -2
  -3  -6   7 4447.80 375.361   1
  -3  -6   6 6639.79 384.624   1
  -3  -6   5 7298.70 268.675   1
  -3  -6   4 878.295 206.930   1
  -3  -6   3 11820.7 287.109   1
  -3  -6   2 9911.28 255.542   1
  -3  -6   1 3652.03 280.229   1
  -3  -6   0 3627.03 560.386   1
  -3  -6  -1 21574.0 1039.48   1
  -3  -6  -2 28620.9 1138.29   1
  -3  -6  -3 20241.0 651.374   1
  -3  -6  -4 8563.10 477.407   1
  -3  -6  -5 34191.5 806.579   1
   3   6   6 2699.89 159.181   1
  -3  -6  -7 84531.9 592.088   1
  -3  -6  -8 7976.83 196.848   1
  -3  -6  -9 6283.12 200.297   1
  -3  -6 -10 5727.01 189.385   1
  -3  -6 -11 746.731 289.180   1
  -3  -6 -12 5779.59 365.742   1
  -3  -6 -13 9043.78 360.474   1
  -3  -6 -14 3501.51 222.919   1
  -3   5 -10 103.921 219.374  -2
  -3  -7   8 103.921 219.374   1
  -3  -7   7 831.466 185.958   1
  -3   5  -9 1219.68 282.521  -2
  -3  -7   7 1219.68 282.521   1
  -3  -7   6 460.699 163.633   1
  -3  -7   5 724.183 171.702   1
  -3  -7   4 9949.39 428.123   1
  -3  -7   3 6521.47 393.511   1
  -3  -7   2 95.6026 288.348   1
  -3  -7   1 11506.5 289.943   1
  -3  -7   0 10054.4 272.886   1
  -3  -7  -1-104.312 175.014   1
   3   7   2-232.922 156.071   1
  -3  -7  -3 8341.63 191.991   1
  -3  -7  -4 7465.21 222.643   1
  -3  -7  -5 875.621 153.608   1
   3   7   6 23846.6 342.409   1
  -3  -7  -7 10646.0 271.850   1
  -3  -7  -8 23413.6 295.168   1
  -3  -7  -9 750.688 164.290   1
  -3  -7 -10 1672.31 294.443   1
  -3  -7 -11 8010.84 400.579   1
  -3  -7 -12 835.826 246.641   1
  -3  -7 -13 16244.4 378.592   1
  -3  -7 -14 244.151 129.545   1
  -3  -8   7 84.6769 148.524   1
  -3  -8   6 2157.44 220.863   1
  -3  -8   5 3397.38 273.721   1
  -3  -8   4 3747.00 312.352   1
  -3  -8   3 129.697 283.949   1
  -3  -8   2-80.2178 291.126   1
  -3  -8   1-117.692 290.297   1
  -3  -8   0 1409.90 218.751   1
  -3  -8  -1-64.6444 192.523   1
  -3  -8  -2 11702.6 311.697   1
  -3  -8  -3 4653.22 240.187   1
  -3  -8  -4 1653.11 156.964   1
  -3  -8  -5 14921.0 323.197   1
  -3  -8  -6 4.02437 164.422   1
  -3  -8  -7 3759.33 296.008   1
  -3  -8  -8 2816.07 193.727   1
  -3  -8  -9 541.138 143.737   1
  -3  -8 -10 288.529 243.090   1
  -3  -8 -11 905.306 239.893   1
  -3  -8 -12 13824.1 349.778   1
  -3  -8 -13 1540.43 113.296   1
  -3  -9   5-103.918 99.3393   1
  -3  -9   4 1274.79 222.678   1
  -3  -9   3 256.963 254.338   1
  -3  -9   2 924.871 295.702   1
  -3  -9   1 6177.46 392.738   1
  -3  -9   0 5584.25 381.591   1
  -3  -9  -1 6700.02 385.060   1
  -3  -9  -2 1098.28 210.017   1
  -3  -9  -3 1349.58 207.501   1
  -3  -9  -4 2852.79 169.304   1
  -3  -9  -5 83.6289 156.145   1
  -3  -9  -6 4779.32 223.566   1
  -3  -9  -7 3038.32 195.549   1
  -3  -9  -8 4886.53 205.284   1
  -3  -9  -9-9.51033 150.104   1
  -3  -9 -10 4314.03 272.655   1
  -3  -9 -11 4657.49 165.424   1
  -3  -9 -12 810.696 146.858   1
  -3 -10   3 375.869 182.056   1
  -3 -10   2 1167.95 227.463   1
  -3 -10   1 497.054 244.236   1
  -3 -10   0 590.751 262.885   1
  -3 -10  -1-133.586 260.193   1
  -3 -10  -2 1891.20 281.341   1
  -3 -10  -3 1204.95 251.400   1
  -3 -10  -4 1775.94 142.840   1
  -3 -10  -5 9837.68 251.434   1
  -3 -10  -6 3109.00 178.236   1
  -3 -10  -7 2199.66 158.132   1
  -3 -10  -8 1230.67 208.640   1
  -3 -10  -9 11160.6 313.098   1
  -3 -10 -10 6039.31 225.432   1
  -3 -11   1 260.940 146.499   1
  -3 -11   0 127.889 175.916   1
  -3 -11  -1 2665.53 218.968   1
  -3 -11  -2 610.600 192.075   1
  -3 -11  -3 139.426 170.682   1
  -3 -11  -6 1081.97 153.683   1
  -3 -11  -7 905.675 136.959   1
   4  -9  -4 554.665 112.079   1
   4  -9  -3 242.191 115.734   1
   4  -9  -2 813.474 135.625   1
   4  -9  -1 208.872 119.533   1
   4  -9   0 75.9027 120.567   1
   4  -9   1-34.5805 105.651   1
   4  -8  -7 3652.35 162.824   1
   4  -8  -6 1711.32 174.575   1
   4  -8  -5 763.490 174.818   1
   4  -8  -4 3459.32 237.264   1
   4  -8  -3 1976.13 214.864   1
   4  -8  -2 619.371 197.150   1
   4  -8  -1 1.98565 187.917   1
   4  -8   0 207.317 189.322   1
   4  -8   1 3202.67 238.814   1
   4  -8   2 111.882 178.318   1
   4  -8   3 849.273 182.673   1
   4  -8   4 2956.13 161.326   1
   4  -7  -9 1757.27 137.500   1
   4  -7  -8 3027.65 197.224   1
   4  -7  -7 2563.84 231.132   1
   4  -7  -6 1244.83 218.173   1
   4  -7  -5 9165.41 356.330   1
   4  -7  -4 3949.76 302.937   1
   4  -7  -3 1.03772 226.858   1
   4  -7  -2 8874.21 373.461   1
   4  -7  -1 12937.4 428.953   1
   4  -7   0 5306.48 328.992   1
   4  -7   1 1643.94 256.727   1
   4  -7   2 5345.90 316.399   1
   4  -7   3 2241.96 249.460   1
   4  -7   4 134.156 193.897   1
   4  -7   5 389.976 180.795   1
   4   9  -4 769.105 229.591  -2
   4  -7   6 769.105 229.591   1
   4  -6 -10 2733.75 161.849   1
   4  -6  -9 2759.71 210.645   1
   4  -6  -8 320.392 197.438   1
   4  -6  -7 642.950 231.070   1
   4  -6  -6 14905.0 468.650   1
  -4   6   5 273.761 174.632   1
   4  -6  -4 6.54967 246.897   1
   4  -6  -3 3393.97 308.413   1
   4  -6  -2 3989.02 224.586   1
   4  -6  -1 6466.97 260.971   1
   4  -6   0 1457.36 201.012   1
   4  -6   1 4089.31 232.866   1
   4  -6   2 2573.36 211.978   1
  -4   6  -3-9.89706 167.790   1
   4  -6   4 5363.15 196.519   1
   4  -6   5 1979.44 163.023   1
   4  -6   6 1080.64 134.513   1
   4   8  -5 5780.20 296.609  -2
   4  -6   7 5780.20 296.609   1
   4   8  -6 1211.85 192.902  -2
   4  -6   8 1211.85 192.902   1
  -4   5  11 6871.07 151.467   1
   4  -5 -10 5298.59 186.051   1
  -4   5   9-24.7433 154.795   1
  -4   5   8 4843.77 233.835   1
   4  -5  -7 19038.0 363.742   1
  -4   5   6-44.4132 165.897   1
  -4   5   5 5734.41 256.958   1
   4  -5  -4 10256.5 436.890   1
   4  -5  -3 1995.66 190.152   1
  -4   5   2 3761.71 221.690   1
   4  -5  -1 3070.63 215.761   1
   4  -5   0 7033.05 272.642   1
   4  -5   1 5568.45 192.437   1
   4  -5   2 5645.15 237.387   1
   4  -5   3 2467.33 173.235   1
   4  -5   4 96.9228 115.184   1
  -4   5  -5 450.080 117.284   1
   4  -5   6 1981.11 175.192   1
   4  -5   7 64.4967 209.303   1
   4   7  -5 5064.34 357.980  -2
   4  -5   7 5064.34 357.980   1
   4  -5   8 602.869 181.447   1
   4   7  -6 1548.27 260.516  -2
   4  -5   8 1548.27 260.516   1
   4   7  -7 47.2999 209.107  -2
   4  -5   9 47.2999 209.107   1
   4  -4 -11 6245.99 189.256   1
  -4   4  10 1890.46 183.652   1
  -4   4   9 557.981 198.669   1
  -4   4   8 1529.54 215.143   1
   4  -4  -7 4821.22 214.043   1
  -4   4   6 22731.5 351.427   1
   4  -4  -5 4682.30 339.529   1
  -4   4   4 36.1051 155.157   1
   4  -4  -3 7684.34 254.561   1
  -4   4   2 4650.01 225.456   1
   4  -4  -1 18255.5 267.211   1
  -4   4   0 13255.0 320.593   1
  -4   4  -1 21400.5 301.288   1
  -4   4  -2 12871.4 226.592   1
  -4   4  -3 63.3988 108.570   1
  -4   4  -4 9364.52 190.380   1
   4  -4   5 9369.54 198.415   1
   4  -4   6-37.1362 131.886   1
   4   6  -4 3734.03 351.472  -2
   4  -4   6 3734.03 351.472   1
   4  -4   7 1145.18 178.203   1
   4   6  -5 1234.82 322.564  -2
   4  -4   7 1234.82 322.564   1
   4   6  -6 4235.31 241.365  -2
   4  -4   8 4235.31 241.365   1
   4   6  -7 5756.49 328.003  -2
   4  -4   9 5756.49 328.003   1
   4   6  -9 1597.91 187.261  -2
   4  -4  11 1597.91 187.261   1
  -4   3  12 70.6871 97.1414   1
  -4   3  11 5387.99 206.094   1
  -4   3  10 6374.18 396.086   1
  -4   3   9 3669.00 404.667   1
  -4   3   8 24321.5 454.567   1
  -4   3   7 47428.6 606.190   1
  -4   3   6 311.703 371.520   1
  -4   3   5-48.2713 304.807   1
  -4   3   4 5853.51 296.903   1
   4  -3  -3 243.161 148.083   1
  -4   3   2 6777.23 339.627   1
  -4   3   1 27230.2 582.765   1
  -4   3   0 13702.2 450.960   1
  -4   3  -1 8992.84 256.724   1
  -4   3  -2 249.422 158.572   1
  -4   3  -3 17982.6 351.103   1
   4  -3   4 6528.30 165.311   1
  -4   3  -5 404.980 122.746   1
   4  -3   6 9861.17 275.496   1
   4   5  -4 11148.1 437.956  -2
   4  -3   6 11148.1 437.956   1
   4  -3   7 8227.77 270.582   1
   4   5  -5 13095.1 453.984  -2
   4  -3   7 13095.1 453.984   1
  -4   3  -8 2171.52 273.743   1
   4   5  -6 7520.24 407.712  -2
   4  -3   8 7520.24 407.712   1
   4   5  -7 1852.75 332.400  -2
   4  -3   9 1852.75 332.400   1
   4   5  -8 4279.73 230.036  -2
   4  -3  10 4279.73 230.036   1
   4   5  -9 3881.47 180.509  -2
   4  -3  11 3881.47 180.509   1
   4   5 -10-101.448 175.874  -2
   4  -3  12-101.448 175.874   1
  -4   2  12 3406.26 147.518   1
  -4   2  11 8987.28 378.837   1
  -4   2  10 1285.26 339.052   1
  -4   2   9 5116.02 434.958   1
  -4   2   8 33587.6 525.984   1
  -4   2   7 10048.1 338.142   1
  -4   2   6 7545.65 305.743   1
  -4   2   5 18616.6 389.439   1
  -4   2   4 1364.91 256.813   1
  -4   2   3 1731.44 231.413   1
  -4   2   2 62924.8 797.921   1
  -4   2   1 31352.8 590.891   1
  -4   2   0 22.5973 220.646   1
  -4   2  -1 12608.0 275.499   1
  -4   2  -2 54125.4 515.693   1
  -4   2  -3 486.953 155.190   1
  -4   2  -4 62.2484 148.890   1
  -4   2  -5 16073.2 330.893   1
  -4  -4   3 24423.7 482.370  -2
  -4   2  -5 24423.7 482.370   1
  -4   2  -6 7303.96 252.069   1
  -4  -4   4 13152.6 427.597  -2
  -4   2  -6 13152.6 427.597   1
  -4   2  -7 4916.30 344.704   1
   4   4  -5 6544.34 389.267  -2
   4  -2   7 6544.34 389.267   1
  -4   2  -8 323.176 236.810   1
   4   4  -6 11490.9 442.321  -2
   4  -2   8 11490.9 442.321   1
  -4   2  -9 7110.35 337.003   1
   4   4  -7 10877.9 449.149  -2
   4  -2   9 10877.9 449.149   1
   4   4  -8 3917.24 358.239  -2
   4  -2  10 3917.24 358.239   1
  -4  -4   9 1105.53 277.550  -2
  -4   2 -11 1105.53 277.550   1
   4   4 -10 2510.39 170.047  -2
   4  -2  12 2510.39 170.047   1
  -4   1  12 3156.94 217.167   1
  -4   1  11 6248.09 339.603   1
  -4   1  10 5787.61 410.958   1
  -4   1   9 19126.3 404.604   1
  -4   1   8 18465.7 412.523   1
  -4   1   7 2907.12 242.022   1
  -4   1   6 11634.1 338.942   1
  -4   1   5 7570.09 281.823   1
  -4   1   4 577.447 222.659   1
  -4   1   3 14754.3 427.541   1
  -4   1   2 11100.8 298.133   1
  -4   1   1 7487.99 315.708   1
  -4   1   0 11310.8 367.011   1
  -4   1  -1 43275.5 641.619   1
  -4   1  -2 778.536 226.956   1
  -4   1  -3 416.047 150.457   1
  -4   1  -4 33034.9 407.440   1
  -4   1  -5 109.967 136.790   1
  -4   1  -6 6373.02 171.930   1
   4  -1   7 9716.23 262.281   1
  -4   1  -8 7211.83 354.842   1
   4   3  -6 8999.76 407.137  -2
   4  -1   8 8999.76 407.137   1
  -4   1  -9 6120.09 306.943   1
   4   3  -7 7038.01 412.580  -2
   4  -1   9 7038.01 412.580   1
   4   3  -8 4525.47 366.421  -2
   4  -1  10 4525.47 366.421   1
  -4  -3   9 1954.23 337.742  -2
  -4   1 -11 1954.23 337.742   1
   4  -1  12 804.541 239.850   1
  -4  -3  10 1012.38 270.902  -2
  -4   1 -12 1012.38 270.902   1
   4  -1  13 136.737 169.939   1
  -4  -3  11 2799.35 197.159  -2
  -4   1 -13 2799.35 197.159   1
  -4   0  12 3199.96 181.043   1
  -4   0  11 141.655 233.179   1
  -4   0  10 1388.75 184.485   1
  -4   0   9 22535.3 395.711   1
  -4   0   8 2466.12 183.921   1
  -4   0   7 3073.57 193.408   1
  -4   0   6 1092.77 162.755   1
  -4   0   5 11741.5 313.552   1
  -4   0   4 8126.34 336.429   1
  -4   0   3 32441.7 563.046   1
  -4   0   2 13130.5 298.912   1
  -4   0   1 42738.7 520.383   1
  -4   0   0 62953.3 631.138   1
  -4   0  -1 11025.0 341.316   1
  -4   0  -2 31561.7 524.413   1
  -4   0  -3 39863.0 584.988   1
  -4   0  -4 11951.2 251.442   1
  -4   0  -5 16185.2 286.668   1
  -4   0  -6 14643.1 413.117   1
   4   0   7 8789.30 237.406   1
   4   0   8 10821.2 359.224   1
   4   0   9 2952.53 284.296   1
   4   2  -8 2573.51 339.535  -2
   4   0  10 2573.51 339.535   1
  -4  -2   9 2136.70 349.039  -2
  -4   0 -11 2136.70 349.039   1
   4   0  12 4639.06 292.203   1
  -4  -2  10 6709.46 377.080  -2
  -4   0 -12 6709.46 377.080   1
   4   0  13 2223.35 151.218   1
  -4  -1  11-122.769 125.514   1
  -4  -1  10 19162.8 336.898   1
  -4  -1   9 203.764 197.491   1
  -4  -1   8 406.778 216.472   1
  -4  -1   7 5289.94 298.985   1
  -4  -1   6 34562.9 403.258   1
  -4  -1   5 2020.38 200.737   1
  -4  -1   4 1974.54 229.916   1
  -4  -1   3 14976.4 389.893   1
  -4  -1   2 28204.8 398.100   1
  -4  -1   1 56152.1 511.050   1
  -4  -1   0 58275.5 489.994   1
  -4  -1  -1 19982.3 365.925   1
  -4  -1  -2 11606.3 300.220   1
  -4  -1  -3 14679.1 321.121   1
  -4  -1  -4 22652.5 412.908   1
  -4  -1  -5 31500.3 455.810   1
  -4  -1  -7 51272.9 1376.69   1
   4   1   8 8566.37 292.348   1
   4   1   9 4411.90 291.048   1
  -4  -1 -10 1738.57 191.232   1
  -4  -1 -11 7752.82 389.551   1
   4   1  12 6738.47 243.356   1
   4   1  13 1026.61 149.130   1
  -4  -1 -14 5130.43 208.470   1
  -4  -2  11 7904.90 277.926   1
  -4  -2  10 2101.84 183.375   1
  -4  -2   9 918.452 205.368   1
  -4  -2   8 339.511 209.913   1
  -4  -2   7 5885.96 201.121   1
  -4  -2   6-51.4951 138.165   1
  -4  -2   5 372.992 152.754   1
  -4  -2   4 56575.4 727.814   1
  -4  -2   3 8485.26 249.798   1
  -4  -2   2 18003.8 315.292   1
  -4  -2   1 183053. 2029.70   1
  -4  -2   0 270028. 2495.61   1
  -4  -2  -1 6936.74 511.896   1
  -4  -2  -2 41764.5 1096.46   1
  -4  -2  -3 7490.09 572.015   1
  -4  -2  -4 975.411 430.439   1
  -4  -2  -5 38600.6 1142.14   1
  -4  -2  -6 42986.5 1239.61   1
  -4  -2  -7-463.299 494.421   1
   4   2  10 2091.44 189.905   1
  -4  -2 -11 670.430 293.267   1
  -4  -2 -12 477.801 267.772   1
  -4  -2 -13 11758.6 384.527   1
  -4  -2 -14 584.476 189.352   1
  -4  -3  11 2440.04 189.043   1
  -4  -3  10 297.828 222.428   1
  -4  -3   9 165.738 262.035   1
  -4  -3   8 784.166 163.800   1
  -4  -3   7 1404.89 180.011   1
  -4  -3   6 1874.81 158.439   1
  -4  -3   5 27100.2 298.217   1
  -4  -3   4 4.94762 188.073   1
  -4  -3   3 4421.30 393.692   1
  -4  -3   2 5675.33 480.318   1
  -4  -3   1 19030.4 742.064   1
  -4  -3   0 2378.88 396.024   1
  -4  -3  -1 15430.4 702.240   1
  -4  -3  -2 8114.22 546.703   1
  -4  -3  -3 3160.10 450.229   1
  -4  -3  -4 78744.9 1518.44   1
  -4  -3  -5 67667.2 1431.67   1
  -4  -3  -6 9320.93 671.505   1
  -4  -3  -7 835.781 447.136   1
  -4  -3  -8 14396.3 277.077   1
  -4  -3  -9 6373.26 356.858   1
  -4  -3 -10 3020.05 333.824   1
  -4  -3 -11 3478.21 338.792   1
  -4  -3 -12 20939.3 529.618   1
  -4  -3 -13-20.9980 234.564   1
  -4  -3 -14 1085.68 142.096   1
  -4  -4  10 672.604 202.580   1
  -4  -4   9 550.328 250.762   1
  -4  -4   8 1333.06 204.037   1
  -4  -4   7 2347.86 229.830   1
  -4  -4   6 8286.84 239.266   1
  -4  -4   5 2124.18 150.677   1
  -4  -4   4 6257.11 177.320   1
  -4  -4   3 4276.51 192.652   1
  -4  -4   2 1092.98 383.616   1
  -4  -4   1 34121.8 1044.08   1
  -4  -4   0 12689.6 685.835   1
  -4  -4  -1 258.722 339.526   1
  -4  -4  -2 105.226 331.418   1
  -4  -4  -3 32356.9 1018.06   1
  -4  -4  -4 953.930 398.800   1
  -4  -4  -5 822.677 410.549   1
  -4  -4  -6 7764.59 586.073   1
  -4  -4  -7 4374.32 226.042   1
  -4  -4  -8 59.6547 148.926   1
  -4  -4  -9 446.594 151.808   1
  -4  -4 -10 12571.1 456.976   1
  -4  -4 -11 4294.48 349.466   1
  -4  -4 -12 5930.92 351.672   1
  -4  -4 -13 6326.87 230.876   1
  -4  -4 -14 3286.98 232.639   1
  -4  -5  10-68.4612 130.970   1
  -4  -5   9-168.756 201.669   1
  -4  -5   8 447.962 171.236   1
  -4  -5   7 814.127 192.321   1
  -4  -5   6 4097.78 246.759   1
  -4  -5   5 3904.13 194.090   1
  -4  -5   4 803.734 160.703   1
  -4  -5   3 1710.32 212.765   1
  -4  -5   2 26637.5 407.799   1
  -4  -5   1 4096.58 269.478   1
  -4  -5   0 6367.49 616.214   1
  -4  -5  -1 17136.8 834.943   1
  -4  -5  -2 66143.0 1497.34   1
  -4  -5  -3 9364.97 665.093   1
  -4  -5  -4 9418.52 671.565   1
  -4  -5  -5 19322.7 864.673   1
  -4  -5  -6 146.557 181.888   1
  -4  -5  -7 2604.32 235.422   1
  -4  -5  -8 1073.48 161.483   1
  -4  -5  -9 24515.4 353.441   1
  -4  -5 -10 2204.44 295.336   1
  -4  -5 -11 8436.40 391.523   1
  -4  -5 -12 19948.0 354.334   1
  -4  -5 -13 5261.79 300.162   1
  -4  -5 -14 276.904 164.525   1
  -4  -6   9 229.079 129.853   1
  -4  -6   8 95.6558 130.124   1
  -4  -6   7 2572.78 187.613   1
  -4  -6   6 235.946 165.078   1
  -4  -6   5 91.3354 145.002   1
  -4  -6   4 3125.24 180.751   1
  -4  -6   3 9252.70 304.741   1
  -4  -6   2 81.9250 188.873   1
  -4  -6   1 8397.85 211.057   1
  -4  -6   0 12185.0 230.139   1
  -4  -6  -1 25838.3 279.993   1
  -4  -6  -2 7067.85 177.362   1
  -4  -6  -3 1207.01 127.453   1
  -4  -6  -4 8564.47 220.358   1
  -4  -6  -5 873.376 147.005   1
  -4  -6  -6 20329.4 407.560   1
  -4  -6  -7 9955.78 356.689   1
  -4  -6  -8 74249.0 803.786   1
  -4  -6  -9 3275.17 158.362   1
  -4  -6 -10 16883.3 339.390   1
  -4  -6 -11 13959.9 286.447   1
  -4  -6 -12 193.225 217.172   1
  -4  -6 -13 2460.03 235.673   1
  -4  -7   7-154.881 110.589   1
  -4  -7   6 877.364 145.482   1
  -4  -7   5 3500.40 161.660   1
  -4  -7   4 877.365 135.525   1
  -4  -7   3 85.3703 177.068   1
  -4  -7   2 3849.29 222.890   1
  -4  -7   1 2029.63 203.099   1
  -4  -7   0 5002.25 249.066   1
  -4  -7  -1 8986.69 287.966   1
  -4  -7  -2 2871.55 166.813   1
  -4  -7  -3 3283.03 164.356   1
  -4  -7  -4 3159.95 163.638   1
  -4  -7  -5 8027.98 251.765   1
  -4  -7  -6 1499.36 176.718   1
  -4  -7  -7 61453.3 561.713   1
  -4  -7  -8 396.742 155.304   1
  -4  -7  -9 1162.15 155.745   1
  -4  -7 -10 6339.13 222.541   1
  -4  -7 -11 2562.02 161.220   1
  -4  -7 -12 16118.5 376.306   1
  -4  -7 -13 4544.83 206.501   1
  -4  -8   5 384.794 187.591   1
  -4  -8   4 2162.03 259.664   1
  -4  -8   3 10539.2 416.058   1
  -4  -8   2 2310.16 328.463   1
  -4  -8   1 437.894 302.803   1
  -4  -8   0 14362.3 337.316   1
  -4  -8  -1 1502.68 214.809   1
  -4  -8  -2 254.914 196.304   1
  -4  -8  -3 2395.20 222.892   1
  -4  -8  -4 1656.86 194.667   1
  -4  -8  -5 263.794 239.247   1
  -4  -8  -6 16506.5 327.914   1
  -4  -8  -7 16675.4 465.312   1
  -4  -8  -8 1589.82 166.251   1
  -4  -8  -9 521.097 198.419   1
  -4  -8 -10 15211.2 357.756   1
  -4  -8 -12 296.702 145.367   1
  -4  -9   4 625.520 184.440   1
  -4  -9   3 700.104 231.007   1
  -4  -9   2 1954.24 280.997   1
  -4  -9   1 164.179 276.475   1
  -4  -9   0 653.725 292.602   1
  -4  -9  -1 348.603 187.660   1
  -4  -9  -2 2028.12 213.820   1
  -4  -9  -3 2311.65 207.450   1
  -4  -9  -4 42.0240 173.528   1
  -4  -9  -5 545.130 241.380   1
  -4  -9  -6 24302.1 538.077   1
  -4  -9  -7 1245.15 251.560   1
  -4  -9  -8 446.104 142.907   1
  -4  -9  -9 17613.0 266.181   1
  -4  -9 -10 6351.82 162.748   1
  -4  -9 -11 2761.58 167.724   1
  -4 -10   3 1304.55 156.120   1
  -4 -10   2 526.114 198.898   1
  -4 -10   1 1321.92 230.589   1
  -4 -10   0 5926.75 305.195   1
  -4 -10  -1 1369.32 264.312   1
  -4 -10  -2 51.3338 229.588   1
  -4 -10  -3 68.8774 220.875   1
  -4 -10  -4 1008.35 157.155   1
  -4 -10  -5 8993.47 342.678   1
  -4 -10  -6 366.449 211.308   1
  -4 -10  -7 348.785 186.914   1
  -4 -10  -8 8922.63 272.799   1
  -4 -10  -9 1064.16 141.977   1
  -4 -11   0 144.264 147.554   1
  -4 -11  -1 88.3556 157.832   1
  -4 -11  -2 750.998 176.896   1
  -4 -11  -3 7.46612 146.545   1
   5  -8  -4 2338.27 140.160   1
   5  -8  -3 377.674 128.581   1
   5  -8  -2 1811.50 161.498   1
   5  -8  -1 2853.33 172.230   1
   5  -8   0 632.021 132.987   1
   5  -8   1 335.118 119.165   1
   5  -8   2 140.749 99.5616   1
   5  -7  -7 464.727 110.997   1
   5  -7  -6 13582.2 291.277   1
   5  -7  -5 5956.05 251.958   1
   5  -7  -4-37.6994 171.981   1
   5  -7  -3 843.334 196.763   1
   5  -7  -2 3388.79 238.333   1
   5  -7  -1 689.431 192.176   1
   5  -7   0 664.421 192.116   1
   5  -7   1 45.5665 174.385   1
   5  -7   2 2233.89 204.969   1
   5  -7   3 86.6691 150.357   1
   5  -7   4 396.648 143.347   1
   5  -6  -8 956.143 148.612   1
   5  -6  -7 16551.1 363.148   1
   5  -6  -6 4421.74 263.934   1
   5  -6  -5 942.116 222.477   1
   5  -6  -4 2556.46 256.406   1
   5  -6  -3 252.702 219.509   1
   5  -6  -2 4212.28 300.637   1
   5  -6  -1 15312.7 451.814   1
   5  -6   0 1555.76 252.319   1
   5  -6   1 8104.80 358.319   1
   5  -6   2 693.606 139.349   1
   5  -6   3 1392.79 138.286   1
   5  -6   4 3391.18 156.805   1
   5  -6   5 163.601 100.513   1
  -5   5   9 5685.30 128.347   1
   5  -5  -8 14574.8 361.814   1
   5  -5  -7 453.621 206.236   1
   5  -5  -6 4800.13 305.434   1
  -5   5   5 4222.80 194.598   1
   5  -5  -4-85.8878 144.916   1
  -5   5   3 2195.53 173.381   1
   5  -5  -2 6594.40 189.407   1
  -5   5   1 1148.16 139.943   1
  -5   5   0 14952.5 343.225   1
  -5   5  -1-66.4333 169.737   1
  -5   5  -2-26.3210 164.666   1
   5  -5   3 682.017 228.471   1
   5  -5   4 749.373 155.264   1
   5  -5   5 10641.4 242.651   1
   5  -5   6 155.867 128.808   1
   5  -5   7 1480.09 179.525   1
   5  -4 -10 219.413 100.628   1
   5  -4  -9 2048.50 155.368   1
  -5   4   8 4245.59 205.989   1
  -5   4   7 5326.34 231.213   1
  -5   4   6 10285.8 286.215   1
  -5   4   5 557.274 182.021   1
  -5   4   4 7929.32 287.354   1
   5  -4  -3 8463.54 278.220   1
   5  -4  -2 1157.47 147.846   1
   5  -4  -1 329.035 130.067   1
  -5   4   0 12472.3 243.631   1
  -5   4  -1 1414.87 152.816   1
  -5   4  -2 130.249 131.483   1
   5  -4   3 5631.77 190.209   1
   5  -4   4 17423.7 349.684   1
  -5  -7   1 20624.4 450.112  -2
  -5   4  -4 20624.4 450.112   1
   5  -4   5 1385.93 142.664   1
   5  -4   6 2611.37 176.832   1
   5  -4   7 5710.87 287.129   1
   5  -4   8 243.174 200.975   1
   5  -4   9 89.1297 156.030   1
   5  -4  10 1051.88 151.549   1
  -5   3  10 117.885 124.533   1
  -5   3   9 22714.6 346.740   1
  -5   3   8 6646.27 258.315   1
  -5   3   7 1401.38 206.871   1
  -5   3   6 7097.42 230.923   1
  -5   3   5 1670.85 168.937   1
   5  -3  -4 147.627 177.454   1
  -5   3   3 2165.13 207.123   1
   5  -3  -2 1551.80 190.184   1
   5  -3  -1 6774.08 203.723   1
   5  -3   0 4002.76 176.920   1
  -5   3  -1 628.537 165.652   1
   5  -3   2 9267.62 364.414   1
  -5  -6  -1 31300.7 581.935  -2
  -5   3  -2 31300.7 581.935   1
   5  -3   3 10719.6 299.152   1
  -5  -6   0 13231.7 448.853  -2
  -5   3  -3 13231.7 448.853   1
   5  -3   4 12603.5 311.365   1
  -5  -6   1 23375.1 516.247  -2
  -5   3  -4 23375.1 516.247   1
   5  -3   5 391.480 162.744   1
  -5  -6   2 5328.42 352.662  -2
  -5   3  -5 5328.42 352.662   1
   5  -3   6 28108.3 317.845   1
   5  -3   7 0.40455 243.099   1
   5  -3   8 2131.74 256.949   1
   5  -3   9 5033.93 269.564   1
  -5  -6   7 1669.21 223.430  -2
  -5   3 -10 1669.21 223.430   1
   5  -3  11 2130.85 169.177   1
  -5   2  11 246.733 96.2493   1
   5  -2 -10 11573.3 245.369   1
  -5   2   9 2378.88 323.385   1
  -5   2   8 492.223 318.784   1
  -5   2   7 15848.2 373.364   1
  -5   2   6 10430.6 327.202   1
  -5   2   5 39.1498 194.109   1
  -5   2   4 10833.2 256.949   1
  -5   2   3 28395.9 355.126   1
   5  -2  -2 8323.20 261.758   1
  -5   2   1 1421.71 170.734   1
   5  -2   0 18248.3 340.224   1
  -5   2  -1 52460.3 532.925   1
  -5   2  -2 23316.6 590.744   1
  -5  -5  -1 44726.2 655.954  -2
  -5   2  -2 44726.2 655.954   1
  -5   2  -3 15674.4 325.027   1
  -5   2  -4 3044.82 296.414   1
  -5  -5   1 4709.99 353.854  -2
  -5   2  -4 4709.99 353.854   1
  -5   2  -5 24080.0 577.824   1
  -5  -5   2 31848.0 589.276  -2
  -5   2  -5 31848.0 589.276   1
  -5   2  -6 3327.56 270.804   1
  -5  -5   3 7348.54 388.532  -2
  -5   2  -6 7348.54 388.532   1
   5  -2   7 3857.29 289.768   1
   5  -2   8 829.579 264.866   1
   5  -2   9 70.5581 211.252   1
   5  -2  10 4496.61 265.319   1
  -5  -5   8-4.10584 220.388  -2
  -5   2 -11-4.10584 220.388   1
   5  -2  12 1738.96 146.857   1
  -5   1  11 4970.94 142.962   1
  -5   1  10 461.255 246.970   1
  -5   1   9 760.555 306.177   1
  -5   1   8 7186.20 434.955   1
  -5   1   7 2655.13 242.850   1
  -5   1   6 524.765 198.143   1
  -5   1   5 2491.54 234.123   1
  -5   1   4 19441.1 389.707   1
  -5   1   3 502.350 175.466   1
  -5   1   2 2546.25 268.283   1
  -5   1   1 25385.6 489.747   1
  -5   1   0 22933.3 473.970   1
  -5   1  -1 2748.09 287.275   1
  -5   1  -2 4696.07 303.788   1
  -5  -4  -1 11677.1 403.967  -2
  -5   1  -2 11677.1 403.967   1
  -5   1  -3-38.7912 210.071   1
  -5  -4   0 503.303 270.790  -2
  -5   1  -3 503.303 270.790   1
  -5   1  -4 5689.46 339.263   1
  -5  -4   1 17710.9 453.556  -2
  -5   1  -4 17710.9 453.556   1
  -5   1  -5 14047.8 430.917   1
  -5  -4   2 19272.1 476.794  -2
  -5   1  -5 19272.1 476.794   1
  -5  -4   3 32219.3 585.006  -2
  -5   1  -6 32219.3 585.006   1
   5  -1   7 16314.2 431.900   1
   5  -1   8 631.666 259.945   1
   5  -1   9 12160.7 389.199   1
   5  -1  10 323.782 223.690   1
  -5   1 -11 1648.60 233.755   1
   5  -1  12 868.744 128.238   1
  -5   0  11 275.476 152.467   1
  -5   0  10 3186.23 283.121   1
  -5   0   9 3757.70 356.359   1
  -5   0   8 1795.75 360.867   1
  -5   0   7 5143.94 199.492   1
  -5   0   6 4492.30 206.474   1
  -5   0   5 6937.77 222.070   1
  -5   0   4 1527.75 178.042   1
  -5  -3  -7 13262.3 541.484  -2
  -5   0   4 13262.3 541.484   1
  -5   0   3 892.482 206.527   1
  -5  -3  -6 276.005 371.942  -2
  -5   0   3 276.005 371.942   1
  -5   0   2 16613.6 429.511   1
  -5   0   1 10266.9 298.281   1
  -5   0   0 6694.64 296.458   1
  -5   0  -1 26807.2 492.645   1
  -5   0  -2 9414.96 332.003   1
  -5   0  -3 4951.53 304.930   1
  -5   0  -4 50010.5 474.966   1
  -5   0  -5 18100.9 447.637   1
  -5  -3   2 22411.1 485.054  -2
  -5   0  -5 22411.1 485.054   1
  -5   0  -6 439.446 216.355   1
  -5  -3   4 4038.67 345.327  -2
  -5   0  -7 4038.67 345.327   1
   5   0   8 157.516 222.705   1
   5   0   9 10610.4 367.946   1
   5   0  10 48.7765 208.598   1
   5   0  11 2463.18 176.176   1
   5   0  12 3139.33 167.271   1
  -5   0 -13 1041.55 155.872   1
  -5  -1  10 49.4552 115.857   1
  -5  -1   9 288.102 166.260   1
  -5  -1   8 3991.12 242.938   1
  -5  -1   7 349.073 203.809   1
  -5  -1   6 210.795 172.739   1
  -5  -2  -9 11592.9 555.220  -2
  -5  -1   6 11592.9 555.220   1
  -5  -1   5 7639.88 272.549   1
  -5  -2  -8 12957.6 564.797  -2
  -5  -1   5 12957.6 564.797   1
  -5  -1   4 2584.49 194.390   1
  -5  -2  -7 4209.76 434.656  -2
  -5  -1   4 4209.76 434.656   1
  -5  -1   3 18226.2 326.013   1
  -5  -2  -6 21355.4 604.636  -2
  -5  -1   3 21355.4 604.636   1
  -5  -1   2 594.847 166.495   1
  -5  -1   1 50887.4 1201.40   1
  -5  -1   0 20420.5 840.151   1
  -5  -1  -1 6941.13 654.173   1
  -5  -1  -2 16639.4 886.654   1
  -5  -1  -3 23155.1 444.323   1
  -5  -1  -4 14371.2 359.351   1
  -5  -1  -5 2846.58 583.988   1
  -5  -2   2 30995.5 535.584  -2
  -5  -1  -5 30995.5 535.584   1
  -5  -1  -6 31772.3 494.078   1
   5   1   7 8698.70 224.558   1
   5   1   8 2560.76 263.553   1
   5   1   9 7213.34 315.600   1
   5   1  10 14629.2 295.829   1
  -5  -1 -11 3151.19 307.991   1
   5   1  12 173.128 145.746   1
  -5  -1 -13-35.4744 174.675   1
  -5  -2  10 144.798 155.058   1
  -5  -2   9 6012.12 219.895   1
  -5  -2   8 1305.08 282.763   1
  -5  -1 -11 4667.40 414.832  -2
  -5  -2   8 4667.40 414.832   1
  -5  -2   7 954.237 311.884   1
  -5  -1 -10 18627.1 600.350  -2
  -5  -2   7 18627.1 600.350   1
  -5  -1  -9 18614.1 431.428  -2
  -5  -2   6 18614.1 431.428   1
  -5  -1  -8 8375.71 354.207  -2
  -5  -2   5 8375.71 354.207   1
  -5  -1  -7 12405.3 381.256  -2
  -5  -2   4 12405.3 381.256   1
  -5  -1  -6 37135.8 533.860  -2
  -5  -2   3 37135.8 533.860   1
  -5  -2   2 26582.0 488.354   1
  -5  -1  -5 30932.4 651.077  -2
  -5  -2   2 30932.4 651.077   1
  -5  -2   1 1568.58 389.717   1
  -5  -2   0 511.648 349.362   1
  -5  -2  -1 51383.9 1338.31   1
  -5  -2  -2 15757.3 863.766   1
  -5  -2  -3 1044.55 454.119   1
  -5  -2  -4 35311.2 1222.05   1
  -5  -2  -5 58759.7 661.940   1
  -5  -2  -6 559.835 185.664   1
  -5  -2  -7 1229.00 699.680   1
  -5  -2  -9 10490.9 339.916   1
  -5  -2 -10 2846.23 313.223   1
  -5  -2 -11 919.200 266.652   1
  -5  -2 -12 7138.50 341.404   1
  -5  -2 -13 5961.85 269.988   1
  -5  -3  10 3835.14 187.730   1
  -5  -3   9 270.514 213.720   1
  -5   0 -11 4717.83 259.068  -2
  -5  -3   8 4717.83 259.068   1
  -5   0 -10 1414.29 257.694  -2
  -5  -3   7 1414.29 257.694   1
  -5   0  -9 16464.9 427.400  -2
  -5  -3   6 16464.9 427.400   1
  -5   0  -8 387.334 267.687  -2
  -5  -3   5 387.334 267.687   1
  -5   0  -7 4875.87 325.178  -2
  -5  -3   4 4875.87 325.178   1
  -5   0  -6 37516.5 419.880  -2
  -5  -3   3 37516.5 419.880   1
  -5  -3   2 2659.25 532.657   1
  -5   0  -5 24578.8 346.838  -2
  -5  -3   2 24578.8 346.838   1
  -5  -3   1 3471.82 251.774   1
  -5   0  -4 58115.0 567.887  -2
  -5  -3   1 58115.0 567.887   1
  -5  -3   0 64301.6 1438.07   1
  -5  -3  -1 9041.47 675.186   1
  -5  -3  -2 291.206 407.406   1
  -5  -3  -3 30499.9 1090.09   1
  -5  -3  -4 28843.5 1106.52   1
  -5  -3  -5 4627.88 255.236   1
  -5  -3  -6 242.403 177.513   1
  -5  -3  -7 11313.1 332.288   1
  -5  -3  -8 2190.30 252.670   1
  -5  -3  -9 64.0622 156.822   1
  -5  -3 -10 334.711 144.791   1
  -5  -3 -11 3639.73 319.515   1
  -5  -3 -12 1873.38 273.845   1
  -5  -3 -13 179.062 197.239   1
  -5   1 -12 1436.53 238.648  -2
  -5  -4   9 1436.53 238.648   1
  -5   1 -11 2096.84 329.620  -2
  -5  -4   8 2096.84 329.620   1
  -5   1 -10 103.967 335.889  -2
  -5  -4   7 103.967 335.889   1
  -5   1  -9 22657.2 455.630  -2
  -5  -4   6 22657.2 455.630   1
  -5   1  -8 7240.43 341.029  -2
  -5  -4   5 7240.43 341.029   1
  -5   1  -7 31153.4 416.371  -2
  -5  -4   4 31153.4 416.371   1
  -5   1  -6 40188.6 444.792  -2
  -5  -4   3 40188.6 444.792   1
  -5  -4   2 3950.27 674.545   1
  -5   1  -5 21339.7 347.201  -2
  -5  -4   2 21339.7 347.201   1
  -5  -4   1 9486.48 348.068   1
  -5   1  -4 17719.0 533.363  -2
  -5  -4   1 17719.0 533.363   1
  -5  -4   0 675.440 228.840   1
  -5   1  -3 30.6542 321.930  -2
  -5  -4   0 30.6542 321.930   1
  -5  -4  -1 6085.15 290.273   1
  -5  -4  -2 31790.3 1119.29   1
  -5  -4  -3 8194.20 216.675   1
  -5  -4  -4 15534.8 271.312   1
  -5  -4  -5 1535.16 157.746   1
  -5  -4  -6 13832.3 355.156   1
  -5  -4  -7 198.946 209.618   1
  -5  -4  -8 1659.26 179.601   1
  -5  -4  -9 4797.50 211.620   1
  -5  -4 -10 4674.27 198.919   1
  -5  -4 -11 3469.27 312.121   1
  -5  -4 -12 6928.39 324.570   1
  -5  -4 -13 9258.42 210.163   1
  -5   2 -12 2549.59 189.519  -2
  -5  -5   9 2549.59 189.519   1
  -5   2 -11 104.252 244.902  -2
  -5  -5   8 104.252 244.902   1
  -5   2 -10 10049.3 430.692  -2
  -5  -5   7 10049.3 430.692   1
  -5   2  -9 2237.05 371.434  -2
  -5  -5   6 2237.05 371.434   1
  -5   2  -8 10490.0 327.062  -2
  -5  -5   5 10490.0 327.062   1
  -5   2  -7 5474.72 305.372  -2
  -5  -5   4 5474.72 305.372   1
  -5   2  -6 8218.72 337.713  -2
  -5  -5   3 8218.72 337.713   1
  -5   2  -5 37024.7 518.626  -2
  -5  -5   2 37024.7 518.626   1
  -5  -5   1 313.741 640.426   1
  -5   2  -4 3827.31 293.727  -2
  -5  -5   1 3827.31 293.727   1
  -5  -5   0 4158.14 292.666   1
  -5   2  -3 22740.6 602.737  -2
  -5  -5   0 22740.6 602.737   1
  -5  -5  -1 16398.1 289.356   1
  -5   2  -2 43969.9 447.551  -2
  -5  -5  -1 43969.9 447.551   1
  -5  -5  -2 518.273 120.792   1
  -5   2  -1 56275.3 771.279  -2
  -5  -5  -2 56275.3 771.279   1
  -5  -5  -3 12617.5 216.198   1
  -5   2   0 33931.0 606.552  -2
  -5  -5  -3 33931.0 606.552   1
  -5  -5  -4 1120.08 132.044   1
  -5  -5  -5 3405.48 179.842   1
  -5  -5  -6 11538.0 338.167   1
  -5  -5  -7 11394.1 381.727   1
  -5  -5  -8 5367.88 297.811   1
  -5  -5  -9 564.685 155.104   1
  -5  -5 -10 10742.4 248.001   1
  -5  -5 -11 5719.30 222.463   1
  -5  -5 -12 12208.2 248.804   1
  -5  -5 -13 1404.60 106.077   1
  -5   3 -11 3304.30 199.587  -2
  -5  -6   8 3304.30 199.587   1
  -5   3 -10 2284.67 270.159  -2
  -5  -6   7 2284.67 270.159   1
  -5   3  -9 6910.98 382.621  -2
  -5  -6   6 6910.98 382.621   1
  -5   3  -8 5783.87 274.849  -2
  -5  -6   5 5783.87 274.849   1
  -5   3  -7 878.146 241.602  -2
  -5  -6   4 878.146 241.602   1
  -5   3  -6 37014.4 512.268  -2
  -5  -6   3 37014.4 512.268   1
  -5   3  -5 6221.18 305.922  -2
  -5  -6   2 6221.18 305.922   1
  -5  -6   1 8028.24 398.274   1
  -5   3  -4 23100.1 629.966  -2
  -5  -6   1 23100.1 629.966   1
  -5  -6   0 819.006 167.870   1
  -5   3  -3 14758.9 545.957  -2
  -5  -6   0 14758.9 545.957   1
  -5  -6  -1 18256.4 315.802   1
  -5   3  -2 30323.2 406.736  -2
  -5  -6  -1 30323.2 406.736   1
  -5  -6  -2 25492.3 287.663   1
  -5   3  -1 27577.2 621.042  -2
  -5  -6  -2 27577.2 621.042   1
  -5  -6  -3 2502.07 133.749   1
  -5  -6  -4 174.567 108.396   1
  -5  -6  -5 4503.13 168.777   1
  -5  -6  -6 5446.57 304.741   1
  -5  -6  -7 8220.39 350.216   1
  -5  -6  -8 2181.73 243.728   1
  -5  -6  -9 10771.7 353.830   1
  -5  -6 -10 4549.19 246.802   1
  -5  -6 -11 5338.99 265.586   1
  -5  -6 -12 9572.01 264.913   1
  -5   4  -9 2581.80 229.265  -2
  -5  -7   6 2581.80 229.265   1
  -5   4  -8 1772.29 185.969  -2
  -5  -7   5 1772.29 185.969   1
  -5   4  -7 9046.82 283.628  -2
  -5  -7   4 9046.82 283.628   1
  -5   4  -6 5424.20 274.646  -2
  -5  -7   3 5424.20 274.646   1
  -5   4  -5 3628.65 263.533  -2
  -5  -7   2 3628.65 263.533   1
  -5  -7   1 928.438 236.634   1
  -5   4  -4 22149.0 614.641  -2
  -5  -7   1 22149.0 614.641   1
  -5  -7   0 6226.20 223.701   1
  -5   4  -3 13320.6 536.697  -2
  -5  -7   0 13320.6 536.697   1
  -5  -7  -1 6780.08 181.376   1
  -5   4  -2 6602.44 457.955  -2
  -5  -7  -1 6602.44 457.955   1
  -5  -7  -2 8358.93 209.913   1
  -5  -7  -3 177.121 139.105   1
  -5  -7  -4 7221.86 205.557   1
  -5  -7  -5 3110.93 203.664   1
  -5  -7  -6 640.613 173.749   1
  -5  -7  -7 24151.0 376.953   1
  -5  -7  -8 18309.2 327.598   1
  -5  -7  -9 109.600 142.730   1
  -5  -7 -10 231.032 125.369   1
  -5  -7 -11 12518.5 313.139   1
  -5  -7 -12 5040.45 180.741   1
  -5   5  -7 5499.86 312.808  -2
  -5  -8   4 5499.86 312.808   1
  -5   5  -6 3162.43 348.724  -2
  -5  -8   3 3162.43 348.724   1
  -5   5  -5 15757.8 512.964  -2
  -5  -8   2 15757.8 512.964   1
  -5   5  -4 8761.88 458.391  -2
  -5  -8   1 8761.88 458.391   1
  -5  -8   0 1258.01 223.475   1
  -5   5  -3 2009.80 388.244  -2
  -5  -8   0 2009.80 388.244   1
  -5  -8  -1 34.8389 174.394   1
  -5  -8  -2 2667.23 219.500   1
  -5  -8  -3 2417.65 219.105   1
  -5  -8  -4 848.083 144.723   1
  -5  -8  -5 186.912 163.485   1
  -5  -8  -6 8155.14 252.889   1
  -5  -8  -7 9235.79 258.498   1
  -5  -8  -8 6515.67 218.388   1
  -5  -8  -9 346.826 197.314   1
  -5  -8 -10 9531.77 291.932   1
  -5  -8 -11 1228.06 149.187   1
  -5   6  -6 5188.98 276.267  -2
  -5  -9   3 5188.98 276.267   1
  -5   6  -5 706.584 279.162  -2
  -5  -9   2 706.584 279.162   1
  -5   6  -4 6337.17 377.275  -2
  -5  -9   1 6337.17 377.275   1
  -5  -9   0 147.886 256.703   1
  -5  -9  -1 3527.17 316.003   1
  -5  -9  -2 2522.03 204.139   1
  -5  -9  -3 333.161 172.316   1
  -5  -9  -4 486.269 170.728   1
  -5  -9  -5 8088.71 355.198   1
  -5  -9  -6 744.532 234.147   1
  -5  -9  -7 737.108 219.631   1
  -5  -9  -8 2908.89 244.966   1
  -5  -9  -9 2267.36 199.710   1
  -5  -9 -10-57.9716 133.466   1
  -5 -10   2 809.648 135.420   1
  -5 -10   1 742.612 178.300   1
  -5 -10   0 4223.52 245.559   1
  -5 -10  -1 724.114 209.049   1
  -5 -10  -2 85.4166 191.516   1
  -5 -10  -3 161.583 195.329   1
  -5 -10  -4 2067.46 145.770   1
  -5 -10  -5 3706.99 247.797   1
  -5 -10  -6 387.790 189.057   1
  -5 -10  -7 3197.91 219.813   1
  -5 -10  -8 249.943 152.445   1
  -5 -10  -9 884.854 122.842   1
   6  -7  -2 21.7824 99.1370   1
   6  -7  -1 669.725 108.640   1
   6  -7   0 742.658 111.302   1
   6  -6  -6 69.7178 94.3691   1
   6  -6  -5 2685.80 158.079   1
   6  -6  -4 3197.22 191.832   1
   6  -6  -3 503.035 155.971   1
   6  -6  -2 9651.30 286.046   1
   6  -6  -1 8481.17 275.541   1
   6  -6   0 627.486 163.064   1
   6  -6   1 2633.06 193.694   1
   6  -6   2 2337.11 176.177   1
   6  -6   3-21.2331 122.508   1
   6  -5  -7 1248.21 133.693   1
   6  -5  -6 1057.12 166.704   1
   6  -5  -5 760.501 110.738   1
   6  -5  -4 1035.89 120.277   1
   6  -5  -3 2331.17 146.277   1
   6  -5  -2 2438.15 146.110   1
   6  -5  -1 2093.51 144.396   1
   6  -5   0 731.452 123.217   1
   6  -5   1 746.864 119.992   1
   6  -5   2 290.622 168.951   1
   6  -5   3 177.875 114.785   1
   6  -5   4 3382.12 142.464   1
   6  -5   5 4368.61 197.291   1
   6  -5   6 24.6803 126.500   1
   6  -4  -8 1437.47 92.5521   1
   6  -4  -7 859.374 110.832   1
  -6   4   6 659.765 126.596   1
   6  -4  -5 5951.44 197.281   1
   6  -4  -4 4175.56 192.238   1
  -6   4   3 96.4865 142.100   1
   6  -4  -2 803.232 160.408   1
   6  -4  -1 10771.4 258.996   1
   6  -4   0 1685.75 164.334   1
  -6   4  -1 1382.59 155.592   1
   6  -4   2 862.189 139.963   1
  -6   4  -3 524.150 131.012   1
   6  -4   4 806.018 129.667   1
   6  -4   5 39.0904 116.874   1
   6  -4   6 3566.72 227.297   1
   6  -4   7 307.590 160.039   1
   6  -4   8 602.230 135.245   1
   6  -3  -9 1084.92 82.1518   1
  -6   3   8 199.978 111.670   1
  -6   3   7 429.928 138.516   1
  -6   3   6 10087.6 249.870   1
   6  -3  -5 3246.40 276.055   1
   6  -3  -4 74.0816 228.992   1
  -6   3   3 3717.42 171.808   1
  -6   3   2 22886.8 308.566   1
   6  -3  -1 3932.96 174.317   1
  -6   3   0 4146.69 177.310   1
  -6   3  -1 15027.4 256.808   1
  -6   3  -2 3949.17 168.707   1
  -6   3  -3 492.409 122.993   1
  -6   3  -4 2594.90 242.799   1
  -6   3  -5 13952.0 374.593   1
   6  -3   6 695.960 226.718   1
   6  -3   7 3606.93 254.814   1
   6  -3   8 2226.45 208.308   1
   6  -3   9 57.1135 145.146   1
  -6   2   9 1549.70 111.499   1
  -6   2   8 4511.75 181.078   1
  -6   2   7 8510.70 245.315   1
  -6   2   6 1311.94 185.374   1
  -6   2   5 580.964 178.974   1
  -6   2   4 1680.96 160.462   1
  -6   2   3 8999.98 278.653   1
  -6   2   2 15205.8 265.533   1
   6  -2  -1 1077.23 171.472   1
   6  -2   0 9443.21 222.518   1
  -6   2  -1 1734.55 260.878   1
  -6   2  -2 1217.64 241.440   1
  -6   2  -3 1864.99 188.297   1
  -6   2  -4 25272.0 389.133   1
  -6   2  -5 12640.5 284.132   1
  -6   2  -6 10521.7 357.155   1
   6  -2   7 5439.98 290.843   1
   6  -2   8 412.798 216.081   1
   6  -2   9 1275.45 200.785   1
   6  -2  10 1804.55 173.897   1
  -6  -5   7 4838.81 261.040  -2
  -6   2 -10 4838.81 261.040   1
   6  -1  -9 1846.34 127.200   1
  -6   1   8 1926.68 159.995   1
  -6   1   7 102.245 159.172   1
  -6   1   6 9456.20 280.903   1
  -6   1   5 9548.82 289.751   1
  -6   1   4 4612.30 188.113   1
   6  -1  -3 34162.0 374.295   1
  -6   1   2 10182.1 428.516   1
  -6   1   1 10434.7 388.613   1
  -6   1   0 1243.53 258.362   1
  -6   1  -1 17211.9 454.950   1
  -6   1  -2 3053.37 208.552   1
  -6   1  -3 25881.6 399.910   1
  -6   1  -4 28271.7 411.112   1
  -6   1  -5 1852.74 172.289   1
  -6   1  -6 3991.32 290.314   1
   6  -1   7-95.3560 241.842   1
   6  -1   8-51.5242 210.450   1
   6  -1   9 787.333 214.093   1
   6  -1  10 876.577 137.006   1
  -6   1 -11 1246.10 172.492   1
  -6   0   9 1337.63 119.642   1
  -6   0   8-57.2966 252.388   1
  -6   0   7 6417.80 233.919   1
  -6   0   6 6629.71 418.500   1
  -6   0   5 1033.82 353.431   1
  -6   0   4 21056.1 619.597   1
  -6   0   3 1101.10 348.050   1
  -6   0   2 85.4750 191.361   1
  -6   0   1 9278.76 279.788   1
  -6   0   0 11238.3 272.669   1
  -6   0  -1-46.4402 156.618   1
  -6   0  -2 15749.0 287.326   1
  -6   0  -3 61089.5 514.548   1
  -6   0  -4 122.368 225.285   1
  -6   0  -5 133.184 216.397   1
  -6   0  -6 10611.8 380.549   1
   6   0   7 5938.68 313.308   1
   6   0   8 117.277 217.709   1
   6   0   9 26.2056 213.414   1
  -6   0 -10 5277.22 140.386   1
  -6   0 -11 861.903 207.685   1
  -6   0 -12 311.772 145.523   1
  -6  -1   9 28.1993 187.122   1
  -6  -1   8 411.884 125.210   1
  -6  -1   7 84.4257 161.883   1
  -6  -1   6 4116.22 236.983   1
  -6  -1   5 15888.1 355.928   1
  -6  -1   4 5755.84 273.633   1
  -6  -1   3 521.497 205.057   1
  -6  -1   2 2580.18 251.471   1
  -6  -1   1 17305.6 363.804   1
  -6  -1   0 599.486 168.714   1
  -6  -1  -1 502.909 168.971   1
  -6  -1  -2 96714.5 636.794   1
  -6  -1  -3 3706.66 200.879   1
  -6  -1  -4 3471.45 195.546   1
  -6  -1  -5 13697.3 400.686   1
  -6  -1  -6 4352.79 292.904   1
   6   1   7 1803.69 245.002   1
   6   1   8 0.36590 204.361   1
  -6  -1  -9 11861.1 242.976   1
  -6  -1 -10 42.7123 102.190   1
  -6  -1 -11 1668.13 227.734   1
  -6  -1 -12 4363.81 222.848   1
  -6  -2   8 87.1044 131.825   1
  -6  -2   7 10443.4 269.207   1
  -6  -2   6 10200.4 305.793   1
  -6  -2   5-108.315 210.195   1
  -6  -2   4 8381.22 313.282   1
  -6  -2   3 13.5829 209.535   1
  -6  -2   2 17684.1 394.871   1
  -6  -2   1 36105.2 381.575   1
  -6  -2   0 5073.89 213.127   1
  -6  -2  -1 44129.7 440.986   1
  -6  -2  -2 5873.92 211.132   1
  -6  -2  -3 368.626 152.675   1
  -6  -2  -4 14698.6 278.794   1
  -6  -2  -5 7809.70 319.712   1
  -6  -2  -6 4100.51 273.100   1
  -6  -2  -8 37831.9 616.994   1
  -6  -2  -9 44.9456 152.044   1
  -6  -2 -10 2556.16 169.001   1
  -6  -2 -11 7741.34 320.583   1
  -6  -2 -12 2328.52 210.299   1
  -6  -3   8 3734.99 215.645   1
  -6  -3   7 821.254 225.140   1
  -6  -3   6 310.571 188.766   1
  -6  -3   5 9671.93 314.302   1
  -6  -3   4 3258.48 267.774   1
  -6  -3   3-24.2631 214.727   1
  -6  -3   2 14366.4 376.580   1
  -6  -3   1 42868.7 750.149   1
  -6  -3   0 57579.8 726.228   1
  -6  -3  -1 6454.23 215.632   1
  -6  -3  -2 6790.23 219.900   1
  -6  -3  -3 1208.43 165.048   1
  -6  -3  -4 5113.15 164.313   1
  -6  -3  -5 22372.9 279.962   1
  -6  -3  -6 1645.58 161.983   1
  -6  -3  -7 16258.9 448.448   1
  -6  -3  -8 8445.98 247.319   1
  -6  -3  -9 4784.38 201.164   1
  -6  -3 -10 1405.93 154.974   1
  -6  -3 -11 117.694 205.252   1
  -6  -3 -12 6351.73 259.707   1
  -6  -4   8 205.927 144.759   1
  -6  -4   7 1631.04 222.722   1
  -6  -4   6 6798.34 338.317   1
  -6  -4   5 223.396 284.871   1
  -6  -4   4 725.867 299.535   1
  -6  -4   3 686.851 296.728   1
  -6  -4   2 3133.46 341.320   1
  -6  -4   1 2427.16 323.111   1
  -6  -4   0 4773.83 342.284   1
  -6  -4  -1 5950.95 223.190   1
  -6  -4  -2 3879.05 194.389   1
  -6  -4  -3 668.447 173.611   1
  -6  -4  -4 17862.5 336.770   1
  -6  -4  -5 17581.7 332.282   1
  -6  -4  -6 16095.2 447.205   1
  -6  -4  -7 15645.7 435.230   1
  -6  -4  -8 9860.80 364.841   1
  -6  -4  -9 3093.24 176.547   1
  -6  -4 -10 45.6745 137.112   1
  -6  -4 -11 9373.11 317.637   1
  -6  -4 -12 675.692 169.888   1
  -6  -5   7 1730.01 195.191   1
  -6  -5   6 345.968 213.933   1
  -6  -5   5 925.790 261.752   1
  -6  -5   4 118.271 263.503   1
  -6  -5   3 311.406 279.187   1
  -6  -5   2 1125.37 225.470   1
  -6  -5   1 5561.08 272.780   1
  -6  -5   0 1417.03 220.409   1
  -6  -5  -1 623.256 135.192   1
  -6  -5  -2 1252.78 119.350   1
  -6  -5  -3 646.405 134.407   1
  -6  -5  -4 1798.92 146.635   1
  -6  -5  -5 68.1910 163.243   1
  -6  -5  -6 20765.3 489.072   1
  -6  -5  -7 6073.74 319.738   1
  -6  -5  -8 522.630 222.228   1
  -6  -5  -9 7239.65 300.204   1
  -6  -5 -10 6249.81 260.177   1
  -6  -5 -11 2635.91 129.165   1
  -6  -5 -12 3651.26 192.254   1
  -6  -6   6 1194.41 181.926   1
  -6  -6   5 151.866 198.225   1
  -6  -6   4 85.7269 226.746   1
  -6  -6   3 1770.68 277.203   1
  -6  -6   2 2771.58 223.968   1
  -6  -6   1 546.065 198.806   1
  -6  -6   0 4992.20 257.921   1
  -6  -6  -1 9588.89 214.230   1
  -6  -6  -2 4083.81 146.045   1
  -6  -6  -3 847.453 118.944   1
  -6  -6  -4 6644.36 189.140   1
  -6  -6  -5 11958.0 228.610   1
  -6  -6  -6 102.012 157.442   1
  -6  -6  -7 5727.57 225.731   1
  -6  -6  -8 6539.68 227.110   1
  -6  -6  -9 1466.44 160.398   1
  -6  -6 -10 2010.89 230.000   1
  -6  -6 -11 4674.78 139.554   1
  -6  -6 -12 2807.43 157.123   1
  -6  -7   5 112.334 134.144   1
  -6  -7   4 1297.64 182.145   1
  -6  -7   3 748.401 210.263   1
  -6  -7   2 36.8045 166.913   1
  -6  -7   1 4967.31 230.177   1
  -6  -7   0 3242.51 214.031   1
  -6  -7  -1 677.951 128.458   1
  -6  -7  -2 427.984 106.421   1
  -6  -7  -3 6456.23 159.123   1
  -6  -7  -4 5298.65 151.995   1
  -6  -7  -5 1002.34 168.889   1
  -6  -7  -6 25508.3 372.350   1
  -6  -7  -7 32672.5 403.673   1
  -6  -7  -8 1581.16 166.808   1
  -6  -7  -9 4548.84 185.131   1
  -6  -7 -10 6184.19 171.403   1
  -6  -7 -11-83.7877 144.190   1
  -6  -8   2 682.525 231.161   1
  -6  -8   1 103.417 247.763   1
  -6  -8   0 66.2890 257.783   1
  -6  -8  -1-143.920 148.680   1
  -6  -8  -2 6974.71 229.248   1
  -6  -8  -3 1407.95 176.265   1
  -6  -8  -4 1978.07 145.714   1
  -6  -8  -5 11922.3 267.850   1
  -6  -8  -6 7604.13 228.429   1
  -6  -8  -7 24.6792 137.565   1
  -6  -8  -8 45.9582 126.524   1
  -6  -8  -9 420.665 170.181   1
  -6  -8 -10 933.798 162.483   1
  -6  -9   1 782.682 192.983   1
  -6  -9   0 1718.17 233.327   1
  -6  -9  -1 2147.61 244.822   1
  -6  -9  -2 217.959 210.579   1
  -6  -9  -3 1594.95 149.524   1
  -6  -9  -4 2532.15 240.288   1
  -6  -9  -5 32.7537 189.351   1
  -6  -9  -6 1902.32 217.909   1
  -6  -9  -7 403.855 186.463   1
  -6  -9  -8 22.5938 161.849   1
  -6  -9  -9 2876.10 173.293   1
  -6 -10  -5 5114.59 209.396   1
  -6 -10  -6 1124.92 154.125   1
  -6 -10  -7-148.624 122.270   1
   7  -5  -1 7273.58 177.438   1
   7   9   3 276.881 148.861  -2
   7  -5   1 276.881 148.861   1
   7  -5   2 713.214 113.917   1
  -7   4   5 1439.53 110.908   1
   7   8   8 2454.80 129.887  -2
   7  -4  -4 2454.80 129.887   1
   7   8   7 19151.8 239.880  -2
   7  -4  -3 19151.8 239.880   1
  -7  -8  -6 10553.4 210.208  -2
  -7   4   2 10553.4 210.208   1
   7   8   5 7474.78 196.219  -2
   7  -4  -1 7474.78 196.219   1
   7   8   4 1900.95 151.679  -2
   7  -4   0 1900.95 151.679   1
  -7  -8  -3 3045.90 245.170  -2
  -7   4  -1 3045.90 245.170   1
  -7  -8  -2 4448.42 252.596  -2
  -7   4  -2 4448.42 252.596   1
   7   8   0 6703.82 272.887  -2
   7  -4   4 6703.82 272.887   1
   7   8  -1 1428.25 185.939  -2
   7  -4   5 1428.25 185.939   1
  -7  -7 -10 5804.93 206.460  -2
  -7   3   6 5804.93 206.460   1
   7   7   9 1504.86 135.668  -2
   7  -3  -5 1504.86 135.668   1
   7   7   8 4543.87 183.897  -2
   7  -3  -4 4543.87 183.897   1
  -7  -7  -7 7301.18 218.790  -2
  -7   3   3 7301.18 218.790   1
   7   7   6 5206.39 210.768  -2
   7  -3  -2 5206.39 210.768   1
   7   7   5 9890.81 254.429  -2
   7  -3  -1 9890.81 254.429   1
  -7  -7  -4 7710.96 380.685  -2
  -7   3   0 7710.96 380.685   1
  -7  -7  -3 10392.3 417.509  -2
  -7   3  -1 10392.3 417.509   1
  -7  -7  -2 12014.0 432.429  -2
  -7   3  -2 12014.0 432.429   1
  -7  -7  -1 12230.3 416.143  -2
  -7   3  -3 12230.3 416.143   1
  -7  -7   0 75.7276 217.541  -2
  -7   3  -4 75.7276 217.541   1
   7   7  -1 1537.09 259.002  -2
   7  -3   5 1537.09 259.002   1
   7   7  -2 233.837 217.742  -2
   7  -3   6 233.837 217.742   1
   7   7  -3 4173.76 219.756  -2
   7  -3   7 4173.76 219.756   1
  -7  -6 -11 2022.42 166.680  -2
  -7   2   7 2022.42 166.680   1
   7   6  10 5423.68 155.298  -2
   7  -2  -6 5423.68 155.298   1
   7   6   9 6147.56 191.592  -2
   7  -2  -5 6147.56 191.592   1
  -7  -6  -8 1690.49 173.042  -2
  -7   2   4 1690.49 173.042   1
  -7  -6  -7 18694.2 509.525  -2
  -7   2   3 18694.2 509.525   1
  -7  -6  -6 12952.6 478.297  -2
  -7   2   2 12952.6 478.297   1
  -7  -6  -5 6758.46 405.688  -2
  -7   2   1 6758.46 405.688   1
  -7  -6  -4 17567.4 544.993  -2
  -7   2   0 17567.4 544.993   1
  -7  -6  -3 14698.5 525.351  -2
  -7   2  -1 14698.5 525.351   1
  -7  -6  -2 7592.90 427.842  -2
  -7   2  -2 7592.90 427.842   1
  -7  -6  -1 3053.52 345.267  -2
  -7   2  -3 3053.52 345.267   1
  -7  -6   0 3450.27 338.217  -2
  -7   2  -4 3450.27 338.217   1
  -7  -6   1 7381.82 374.273  -2
  -7   2  -5 7381.82 374.273   1
   7   6  -2 3988.97 307.266  -2
   7  -2   6 3988.97 307.266   1
   7   6  -3 3869.50 272.351  -2
   7  -2   7 3869.50 272.351   1
   7   6  -4 2487.75 221.920  -2
   7  -2   8 2487.75 221.920   1
  -7  -6   5 4275.04 197.060  -2
  -7   2  -9 4275.04 197.060   1
  -7  -5 -11 10129.4 255.139  -2
  -7   1   7 10129.4 255.139   1
  -7  -5 -10 5137.18 280.214  -2
  -7   1   6 5137.18 280.214   1
  -7  -5  -9 3814.27 223.772  -2
  -7   1   5 3814.27 223.772   1
  -7  -5  -8 20399.9 526.523  -2
  -7   1   4 20399.9 526.523   1
  -7  -5  -7 11729.5 472.478  -2
  -7   1   3 11729.5 472.478   1
  -7  -5  -6 6497.81 427.356  -2
  -7   1   2 6497.81 427.356   1
  -7  -5  -5 26178.7 673.894  -2
  -7   1   1 26178.7 673.894   1
  -7  -5  -4 30419.3 730.632  -2
  -7   1   0 30419.3 730.632   1
  -7  -5  -3 18588.7 621.859  -2
  -7   1  -1 18588.7 621.859   1
  -7  -5  -2 8530.63 455.510  -2
  -7   1  -2 8530.63 455.510   1
  -7  -5  -1 8900.29 448.596  -2
  -7   1  -3 8900.29 448.596   1
  -7  -5   0 4162.30 382.243  -2
  -7   1  -4 4162.30 382.243   1
  -7  -5   1 6254.54 374.985  -2
  -7   1  -5 6254.54 374.985   1
   7   5  -2 9528.28 393.329  -2
   7  -1   6 9528.28 393.329   1
   7   5  -3 4028.50 311.986  -2
   7  -1   7 4028.50 311.986   1
   7   5  -4 1061.64 236.967  -2
   7  -1   8 1061.64 236.967   1
  -7  -5   5 6120.25 159.233  -2
  -7   1  -9 6120.25 159.233   1
  -7  -4 -11 2296.09 192.868  -2
  -7   0   7 2296.09 192.868   1
  -7  -4 -10 1541.04 187.110  -2
  -7   0   6 1541.04 187.110   1
  -7  -4  -9 10497.2 461.350  -2
  -7   0   5 10497.2 461.350   1
  -7  -4  -8 4959.49 273.033  -2
  -7   0   4 4959.49 273.033   1
  -7  -4  -7 8468.16 438.700  -2
  -7   0   3 8468.16 438.700   1
  -7  -4  -6 28158.0 694.395  -2
  -7   0   2 28158.0 694.395   1
  -7  -4  -5 17982.9 603.579  -2
  -7   0   1 17982.9 603.579   1
  -7  -4  -4 9516.25 494.618  -2
  -7   0   0 9516.25 494.618   1
  -7  -4  -3 9547.68 305.347  -2
  -7   0  -1 9547.68 305.347   1
  -7  -4  -2 2075.23 358.094  -2
  -7   0  -2 2075.23 358.094   1
  -7  -4  -1 16199.9 554.706  -2
  -7   0  -3 16199.9 554.706   1
  -7  -4   0 939.963 326.869  -2
  -7   0  -4 939.963 326.869   1
  -7  -4   1 21766.4 588.794  -2
  -7   0  -5 21766.4 588.794   1
  -7  -4   2 19557.2 562.943  -2
  -7   0  -6 19557.2 562.943   1
   7   4  -3 23218.1 491.261  -2
   7   0   7 23218.1 491.261   1
   7   4  -4 8217.36 311.856  -2
   7   0   8 8217.36 311.856   1
  -7  -4   5 2734.89 157.137  -2
  -7   0  -9 2734.89 157.137   1
  -7  -4   6 7859.86 277.361  -2
  -7   0 -10 7859.86 277.361   1
  -7  -3 -11 4265.30 179.362  -2
  -7  -1   7 4265.30 179.362   1
  -7  -3 -10 6880.45 282.039  -2
  -7  -1   6 6880.45 282.039   1
  -7  -3  -9 8169.35 230.905  -2
  -7  -1   5 8169.35 230.905   1
  -7  -3  -8 13603.0 309.168  -2
  -7  -1   4 13603.0 309.168   1
  -7  -3  -7 12564.4 328.632  -2
  -7  -1   3 12564.4 328.632   1
  -7  -3  -6 7567.53 295.535  -2
  -7  -1   2 7567.53 295.535   1
  -7  -3  -5 22760.7 447.982  -2
  -7  -1   1 22760.7 447.982   1
  -7  -3  -4 17104.3 400.401  -2
  -7  -1   0 17104.3 400.401   1
  -7  -3  -3 10397.4 336.771  -2
  -7  -1  -1 10397.4 336.771   1
  -7  -3  -2 18532.4 403.737  -2
  -7  -1  -2 18532.4 403.737   1
  -7  -3  -1 2187.69 240.927  -2
  -7  -1  -3 2187.69 240.927   1
  -7  -3   0 38509.0 757.332  -2
  -7  -1  -4 38509.0 757.332   1
  -7  -3   1 5002.01 382.179  -2
  -7  -1  -5 5002.01 382.179   1
  -7  -3   2 2569.16 330.080  -2
  -7  -1  -6 2569.16 330.080   1
   7   3  -3 11232.8 381.541  -2
   7   1   7 11232.8 381.541   1
   7   3  -4 1576.22 183.730  -2
   7   1   8 1576.22 183.730   1
  -7  -3   5 8811.90 179.154  -2
  -7  -1  -9 8811.90 179.154   1
  -7  -3   6 6208.14 173.027  -2
  -7  -1 -10 6208.14 173.027   1
  -7  -3   7 6463.92 216.807  -2
  -7  -1 -11 6463.92 216.807   1
  -7  -2 -10 10392.9 306.182  -2
  -7  -2   6 10392.9 306.182   1
  -7  -2  -9 16390.6 288.126  -2
  -7  -2   5 16390.6 288.126   1
  -7  -2  -8 15838.5 324.080  -2
  -7  -2   4 15838.5 324.080   1
  -7  -2  -7 5801.36 262.954  -2
  -7  -2   3 5801.36 262.954   1
  -7  -2  -6 25309.6 458.638  -2
  -7  -2   2 25309.6 458.638   1
  -7  -2  -5 13412.0 368.296  -2
  -7  -2   1 13412.0 368.296   1
  -7  -2  -4 11015.5 350.718  -2
  -7  -2   0 11015.5 350.718   1
  -7  -2  -3 21689.7 342.723  -2
  -7  -2  -1 21689.7 342.723   1
  -7  -2  -2 3193.35 202.834  -2
  -7  -2  -2 3193.35 202.834   1
  -7  -2  -1 23437.8 444.508  -2
  -7  -2  -3 23437.8 444.508   1
  -7  -2   0 11315.4 469.387  -2
  -7  -2  -4 11315.4 469.387   1
  -7  -2   1 13845.1 487.202  -2
  -7  -2  -5 13845.1 487.202   1
  -7  -2   2 23943.7 572.811  -2
  -7  -2  -6 23943.7 572.811   1
  -7  -2   3 5564.71 376.100  -2
  -7  -2  -7 5564.71 376.100   1
  -7  -2   4 20846.2 487.480  -2
  -7  -2  -8 20846.2 487.480   1
  -7  -2   5 17720.6 298.561  -2
  -7  -2  -9 17720.6 298.561   1
  -7  -2   6 10181.6 209.563  -2
  -7  -2 -10 10181.6 209.563   1
  -7  -2   7 1395.55 189.758  -2
  -7  -2 -11 1395.55 189.758   1
  -7  -1 -10 6146.65 287.952  -2
  -7  -3   6 6146.65 287.952   1
  -7  -1  -9 6799.56 347.761  -2
  -7  -3   5 6799.56 347.761   1
  -7  -1  -8 1213.89 302.941  -2
  -7  -3   4 1213.89 302.941   1
  -7  -1  -7 10566.7 506.555  -2
  -7  -3   3 10566.7 506.555   1
  -7  -1  -6 2887.36 379.609  -2
  -7  -3   2 2887.36 379.609   1
  -7  -1  -5 6186.52 466.278  -2
  -7  -3   1 6186.52 466.278   1
  -7  -1  -4 37047.4 857.560  -2
  -7  -3   0 37047.4 857.560   1
  -7  -1  -3 1269.83 382.081  -2
  -7  -3  -1 1269.83 382.081   1
  -7  -1  -2 17493.9 313.123  -2
  -7  -3  -2 17493.9 313.123   1
  -7  -1  -1 11201.6 270.924  -2
  -7  -3  -3 11201.6 270.924   1
  -7  -1   0 16112.1 299.837  -2
  -7  -3  -4 16112.1 299.837   1
  -7  -1   1 20415.4 387.600  -2
  -7  -3  -5 20415.4 387.600   1
  -7  -1   2 7807.35 423.190  -2
  -7  -3  -6 7807.35 423.190   1
  -7  -1   3 14773.6 478.745  -2
  -7  -3  -7 14773.6 478.745   1
  -7  -1   4 15248.4 448.984  -2
  -7  -3  -8 15248.4 448.984   1
  -7  -1   5 8723.16 234.812  -2
  -7  -3  -9 8723.16 234.812   1
  -7  -1   6 8653.62 202.476  -2
  -7  -3 -10 8653.62 202.476   1
  -7  -1   7 5121.71 210.717  -2
  -7  -3 -11 5121.71 210.717   1
  -7   0 -10 7179.43 277.920  -2
  -7  -4   6 7179.43 277.920   1
  -7   0  -9 2837.64 279.781  -2
  -7  -4   5 2837.64 279.781   1
  -7   0  -8 5397.05 370.320  -2
  -7  -4   4 5397.05 370.320   1
  -7   0  -7 22524.5 661.247  -2
  -7  -4   3 22524.5 661.247   1
  -7   0  -6 20787.3 682.336  -2
  -7  -4   2 20787.3 682.336   1
  -7   0  -5 20922.1 686.250  -2
  -7  -4   1 20922.1 686.250   1
  -7   0  -4 979.559 364.489  -2
  -7  -4   0 979.559 364.489   1
  -7   0  -3 15860.1 609.268  -2
  -7  -4  -1 15860.1 609.268   1
  -7   0  -2 2090.76 230.765  -2
  -7  -4  -2 2090.76 230.765   1
  -7   0  -1 8842.53 313.717  -2
  -7  -4  -3 8842.53 313.717   1
  -7   0   0 9253.00 244.317  -2
  -7  -4  -4 9253.00 244.317   1
  -7   0   1 20588.2 559.567  -2
  -7  -4  -5 20588.2 559.567   1
  -7   0   2 29149.6 621.740  -2
  -7  -4  -6 29149.6 621.740   1
  -7   0   3 9983.43 406.383  -2
  -7  -4  -7 9983.43 406.383   1
  -7   0   4 5989.89 347.869  -2
  -7  -4  -8 5989.89 347.869   1
  -7   0   5 15659.9 393.991  -2
  -7  -4  -9 15659.9 393.991   1
  -7   0   6 1209.31 202.432  -2
  -7  -4 -10 1209.31 202.432   1
  -7   1  -9 5524.13 282.064  -2
  -7  -5   5 5524.13 282.064   1
  -7   1  -8 1555.86 280.359  -2
  -7  -5   4 1555.86 280.359   1
  -7   1  -7 3923.95 362.299  -2
  -7  -5   3 3923.95 362.299   1
  -7   1  -6 7389.53 447.518  -2
  -7  -5   2 7389.53 447.518   1
  -7   1  -5 6439.42 444.369  -2
  -7  -5   1 6439.42 444.369   1
  -7   1  -4 5043.01 419.921  -2
  -7  -5   0 5043.01 419.921   1
  -7   1  -3 9425.75 515.431  -2
  -7  -5  -1 9425.75 515.431   1
  -7   1  -2 7638.42 286.769  -2
  -7  -5  -2 7638.42 286.769   1
  -7   1  -1 20325.8 404.553  -2
  -7  -5  -3 20325.8 404.553   1
  -7   1   0 33373.9 379.139  -2
  -7  -5  -4 33373.9 379.139   1
  -7   1   1 25170.7 400.953  -2
  -7  -5  -5 25170.7 400.953   1
  -7   1   2 7897.14 389.725  -2
  -7  -5  -6 7897.14 389.725   1
  -7   1   3 13164.5 436.629  -2
  -7  -5  -7 13164.5 436.629   1
  -7   1   4 22651.0 480.257  -2
  -7  -5  -8 22651.0 480.257   1
  -7   1   5 4304.00 274.671  -2
  -7  -5  -9 4304.00 274.671   1
  -7   1   6 7224.84 251.793  -2
  -7  -5 -10 7224.84 251.793   1
  -7   1   7 10925.1 261.518  -2
  -7  -5 -11 10925.1 261.518   1
  -7   2  -8 2883.50 245.724  -2
  -7  -6   4 2883.50 245.724   1
  -7   2  -7 4046.27 306.615  -2
  -7  -6   3 4046.27 306.615   1
  -7   2  -6 3745.35 335.350  -2
  -7  -6   2 3745.35 335.350   1
  -7   2  -5 8863.08 441.683  -2
  -7  -6   1 8863.08 441.683   1
  -7   2  -4 4537.29 388.430  -2
  -7  -6   0 4537.29 388.430   1
  -7   2  -3 3350.86 372.759  -2
  -7  -6  -1 3350.86 372.759   1
  -7   2  -2 8835.26 281.131  -2
  -7  -6  -2 8835.26 281.131   1
  -7   2  -1 15232.5 340.654  -2
  -7  -6  -3 15232.5 340.654   1
  -7   2   0 16920.0 275.773  -2
  -7  -6  -4 16920.0 275.773   1
  -7   2   1 7555.42 264.000  -2
  -7  -6  -5 7555.42 264.000   1
  -7   2   2 13866.3 310.651  -2
  -7  -6  -6 13866.3 310.651   1
  -7   2   3 19237.7 331.280  -2
  -7  -6  -7 19237.7 331.280   1
  -7   2   4 1976.19 185.580  -2
  -7  -6  -8 1976.19 185.580   1
  -7   2   5 6424.65 202.612  -2
  -7  -6  -9 6424.65 202.612   1
  -7   2   6 6004.06 168.586  -2
  -7  -6 -10 6004.06 168.586   1
  -7   2   7 2250.61 168.574  -2
  -7  -6 -11 2250.61 168.574   1
  -7   3  -7 2687.58 212.543  -2
  -7  -7   3 2687.58 212.543   1
  -7   3  -6 820.418 221.579  -2
  -7  -7   2 820.418 221.579   1
  -7   3  -5 1518.15 254.652  -2
  -7  -7   1 1518.15 254.652   1
  -7   3  -4-61.0932 240.015  -2
  -7  -7   0-61.0932 240.015   1
  -7   3  -3 13691.3 445.298  -2
  -7  -7  -1 13691.3 445.298   1
  -7   3  -2 13380.6 434.773  -2
  -7  -7  -2 13380.6 434.773   1
  -7   3  -1 11067.8 215.609  -2
  -7  -7  -3 11067.8 215.609   1
  -7   3   0 8428.41 249.321  -2
  -7  -7  -4 8428.41 249.321   1
  -7   3   1 12192.4 280.219  -2
  -7  -7  -5 12192.4 280.219   1
  -7   3   2 4834.23 214.667  -2
  -7  -7  -6 4834.23 214.667   1
  -7   3   3 8976.55 240.217  -2
  -7  -7  -7 8976.55 240.217   1
  -7   3   4 5872.86 200.802  -2
  -7  -7  -8 5872.86 200.802   1
  -7   3   5 1641.57 146.957  -2
  -7  -7  -9 1641.57 146.957   1
  -7   3   6 6873.81 224.457  -2
  -7  -7 -10 6873.81 224.457   1
  -7   4  -1 2490.20 228.491  -2
  -7  -8  -3 2490.20 228.491   1
  -7   4   0 1507.60 226.411  -2
  -7  -8  -4 1507.60 226.411   1
  -7   4   1 8830.86 329.843  -2
  -7  -8  -5 8830.86 329.843   1
  -7   4   2 10189.9 335.186  -2
  -7  -8  -6 10189.9 335.186   1
  -7   4   3 17097.1 373.115  -2
  -7  -8  -7 17097.1 373.115   1
  -7   4   4 2138.85 207.808  -2
  -7  -8  -8 2138.85 207.808   1
  -7   4   5 2699.29 184.232  -2
  -7  -8  -9 2699.29 184.232   1
  -7   5   1 10235.3 261.416  -2
  -7  -9  -5 10235.3 261.416   1
  -7   5   2 4993.00 213.861  -2
  -7  -9  -6 4993.00 213.861   1
  -7   5   3 1640.58 167.512  -2
  -7  -9  -7 1640.58 167.512   1
  -8   3   1 688.738 109.418   1
  -8   3   0 188.316 107.287   1
  -8   3  -1 938.861 116.777   1
  -8   3  -2 3305.08 138.731   1
   8  -3   3 60.2695 112.902   1
  -8   2   3 4081.90 161.825   1
  -8   2   2 2007.80 156.559   1
  -8   2   1 85.1546 142.391   1
  -8   2   0 10496.6 267.106   1
  -8   2  -1 10571.0 267.427   1
  -8   2  -2-25.1601 148.642   1
  -8   2  -3 1870.42 165.538   1
   8  -2   4 1827.17 167.195   1
   8  -2   5 145.625 124.982   1
  -8   2  -6 589.015 102.138   1
  -8   1   4 659.725 120.493   1
  -8   1   3 17.4743 135.819   1
  -8   1   2 254.144 155.734   1
  -8   1   1 9621.70 278.256   1
  -8   1   0 1857.36 196.583   1
  -8   1  -1 381.848 181.652   1
  -8   1  -2 1634.17 197.483   1
  -8   1  -3 3816.83 222.302   1
  -8   1  -4 3.45414 153.122   1
   8  -1   5 3165.92 192.882   1
  -8   1  -6 5911.07 141.081   1
  -8   1  -7 1278.22 86.0630   1
  -8   0   4 210.350 126.188   1
  -8   0   3 1549.32 163.920   1
  -8   0   2 14190.2 311.050   1
  -8   0   1 232.016 168.411   1
  -8   0   0 4097.25 239.934   1
  -8   0  -1 5150.90 260.007   1
  -8   0  -2 4234.60 158.778   1
  -8   0  -3 256.220 117.842   1
  -8   0  -4 560.149 126.560   1
  -8   0  -5 2082.45 135.098   1
  -8   0  -6 456.110 110.824   1
  -8   0  -7 1244.11 83.6780   1
  -8   0  -8 1699.93 124.659   1
  -8  -1   4 1379.81 129.983   1
  -8  -1   3 2434.03 163.947   1
  -8  -1   2 3359.24 198.234   1
  -8  -1   1 5162.59 163.720   1
  -8  -1   0 1702.54 137.780   1
  -8  -1  -1 762.231 189.522   1
  -8  -1  -2 2566.11 146.955   1
  -8  -1  -3 721.358 128.367   1
  -8  -1  -4 1827.90 143.684   1
  -8  -1  -5 1316.58 138.868   1
  -8  -1  -6 1865.41 128.522   1
  -8  -1  -7 4135.56 129.413   1
  -8  -1  -8 249.298 128.425   1
  -8  -2   3 156.381 144.368   1
  -8  -2   2 804.364 110.689   1
  -8  -2   1 2033.06 130.844   1
  -8  -2   0 153.646 114.082   1
  -8  -2  -1 9471.18 211.715   1
  -8  -2  -2 3038.62 143.215   1
  -8  -2  -3 102.300 122.659   1
  -8  -2  -4 7647.06 195.666   1
  -8  -2  -5 3055.78 227.868   1
  -8  -2  -6 535.224 188.956   1
  -8  -2  -7 215.318 171.770   1
  -8  -2  -8 6647.61 220.456   1
  -8  -2  -9 1687.03 125.271   1
  -8  -3   4 861.464 135.030   1
  -8  -3   3 278.860 155.946   1
  -8  -3   2 6665.68 265.849   1
  -8  -3   1 10517.7 331.441   1
  -8  -3   0 9006.52 331.843   1
  -8  -3  -1 2232.73 254.672   1
  -8  -3  -2 347.188 121.996   1
  -8  -3  -3 3612.83 217.662   1
  -8  -3  -4 2298.55 140.329   1
  -8  -3  -5 696.737 189.262   1
  -8  -3  -6 291.174 181.416   1
  -8  -3  -7 15174.1 216.977   1
  -8  -3  -8 2678.51 118.979   1
  -8  -3  -9-4.28102 77.1481   1
  -8  -4   4 1024.63 129.214   1
  -8  -4   3 248.328 158.980   1
  -8  -4   2 7420.28 272.060   1
  -8  -4   1 12334.8 341.944   1
  -8  -4   0 5397.87 284.508   1
  -8  -4  -1 2926.33 253.903   1
  -8  -4  -2 5661.02 297.718   1
  -8  -4  -3 198.630 120.653   1
  -8  -4  -4 5241.98 247.866   1
  -8  -4  -5 4290.18 240.586   1
  -8  -4  -6 9846.13 301.940   1
  -8  -4  -7 709.056 111.181   1
  -8  -4  -8 1924.31 114.186   1
  -8  -4  -9 2964.68 103.404   1
  -8  -5   3 1170.50 145.045   1
  -8  -5   2 397.775 163.951   1
  -8  -5   1 1385.67 200.759   1
  -8  -5   0 5732.46 271.502   1
  -8  -5  -1 3712.77 252.067   1
  -8  -5  -2 437.035 206.910   1
  -8  -5  -3 2449.11 141.819   1
  -8  -5  -4 4666.20 221.575   1
  -8  -5  -5 7725.56 261.461   1
  -8  -5  -6 959.526 114.896   1
  -8  -5  -7 2302.49 121.328   1
  -8  -5  -8 2995.44 120.091   1
  -8  -5  -9 236.201 73.1674   1
  -8  -6   2 3.17136 115.381   1
  -8  -6   1 4881.46 201.690   1
  -8  -6   0 116.492 162.006   1
  -8  -6  -1 1178.59 184.469   1
  -8  -6  -2 1647.28 200.947   1
  -8  -6  -3 89.4595 120.743   1
  -8  -6  -4 258.627 140.585   1
  -8  -6  -5 1874.35 170.327   1
  -8  -6  -6 3089.26 123.449   1
  -8  -6  -7 893.795 98.8064   1
  -8  -6  -8 182.735 78.0269   1
  -8  -7  -1 3244.65 162.975   1
  -8  -7  -6 2018.86 143.168   1
  -8  -7  -7 1609.30 129.715   1
   0   7  -6 191.834 181.466   2
   0   8  -6 3312.80 192.153   2
  -1  11   5 1550.07 144.029   2
  -1  11   4 4.98889 122.938   2
  -1  11   1 2504.67 132.666   2
  -1  10   9 1400.22 128.694   2
  -1  10   8 71.9761 146.065   2
  -1  10   7 5316.12 250.973   2
  -1  10   6 4662.78 259.413   2
  -1  10   5 165.393 189.073   2
  -1  10   4 4068.38 273.830   2
  -1  10   3 189.279 129.589   2
  -1  10   2 931.360 140.980   2
  -1  10   1 5357.71 197.556   2
  -1  10   0 1887.77 219.102   2
  -1  10  -1 351.266 180.205   2
  -1  10  -2 183.463 166.708   2
  -1  10  -3 2044.68 165.187   2
  -1   9  11 280.995 71.5989   2
  -1   9  10 1318.85 119.604   2
  -1   9   9 1883.29 147.606   2
  -1   9   8 8045.89 234.927   2
  -1   9   7 55.4938 145.613   2
  -1   9   6 8697.72 265.495   2
  -1   9   5 13783.7 316.951   2
  -1   9   4 456.489 233.084   2
  -1   9   3 122.483 151.867   2
  -1   9   2 15724.4 323.239   2
  -1   9   1 3576.16 209.800   2
  -1   9   0 648.055 165.155   2
  -1   9  -1 30.0742 230.110   2
  -1   9  -2 1763.47 246.620   2
  -1   9  -3 74.4346 200.143   2
  -1   9  -4 700.018 186.239   2
  -1   9  -5 953.873 154.776   2
  -1   8  12 3062.17 113.720   2
  -1   8  11 2601.54 149.896   2
  -1   8  10 5854.15 212.713   2
  -1   8   9 14057.2 314.774   2
  -1   8   8 3.82700 153.445   2
  -1   8   7 22137.3 405.467   2
  -1   8   6 15840.8 359.296   2
  -1   8   5 4569.11 230.424   2
  -1   8   4 545.219 132.604   2
  -1   8   3 6335.86 165.465   2
  -1   8   2 255.116 159.761   2
  -1   8   1 6065.12 250.682   2
  -1   8   0 3503.82 224.340   2
  -1   8  -1 8066.28 273.816   2
  -1   8  -2 36.0453 243.638   2
  -1   8  -3 165.234 154.279   2
  -1   8  -4 10940.5 262.050   2
  -1   8  -5 2018.85 162.341   2
  -1   8  -6 342.944 116.235   2
  -1   8  -7 1600.50 167.760   2
  -1   8  -8 603.015 133.126   2
  -1   7  13 672.568 80.9823   2
  -1   7  12 4941.35 252.885   2
  -1   7  11 5489.19 307.373   2
  -1   7  10 8460.09 386.272   2
  -1   7   9 6817.68 377.734   2
  -1   7   8 39025.0 765.650   2
  -1   7   7 4136.45 323.734   2
  -1   7   6 22.1721 231.070   2
   1  -7  -5 10080.9 281.328   2
  -1   7   4 6288.71 179.370   2
  -1   7   3 1441.98 110.993   2
  -1   7   2 3597.19 133.949   2
  -1   7   1 21761.4 284.700   2
  -1   7   0 19072.8 335.646   2
  -1   7  -1 10949.3 278.666   2
  -1   7  -2 331.673 159.187   2
  -1   7  -3 4191.72 315.339   2
  -1   7  -4 313.366 163.866   2
  -1   7  -5 1946.17 185.404   2
  -1   7  -6 2156.30 175.065   2
  -1   7  -7 2315.64 259.685   2
  -1   7  -8 292.728 183.546   2
  -1   7  -9 1522.28 177.895   2
  -1   6  13 3993.78 221.029   2
  -1   6  12 2717.46 248.666   2
  -1   6  11 3934.45 317.267   2
  -1   6  10 12.3331 248.328   2
  -1   6   9 11490.2 467.804   2
  -1   6   8 171.896 240.878   2
   1  -6  -7 4.62580 203.948   2
   1  -6  -6 39952.8 660.072   2
  -1   6   5 2959.25 236.692   2
   1  -6  -4 3804.68 627.110   2
   1  -6  -3 21723.7 1087.04   2
  -1   6   2 9062.56 798.021   2
  -1   6   1 320.075 490.660   2
  -1   6   0 2085.60 558.492   2
  -1   6  -1 1417.11 552.561   2
  -1   6  -2 3060.30 171.404   2
  -1   6  -3 9496.69 254.629   2
  -1   6  -4 16250.9 418.192   2
  -1   6  -5 10241.0 281.995   2
  -1   6  -6 1548.62 177.052   2
  -1   6  -7 1455.06 285.933   2
  -1   6  -8 4031.77 318.533   2
  -1   6  -9-170.588 210.241   2
  -1   6 -10 53.5905 160.722   2
   1  -5 -14 1443.73 94.5417   2
  -1   5  13 702.465 189.328   2
  -1   5  12 2500.37 274.351   2
  -1   5  11 16112.6 511.507   2
  -1   5  10 6415.16 387.684   2
  -1   5   9 40076.4 777.619   2
   1  -5  -8 44041.5 709.474   2
   1  -5  -7 43896.2 675.619   2
   1  -5  -6 1258.76 486.790   2
   1  -5  -5 7192.71 692.623   2
   1  -5  -4-39.5630 397.651   2
   1  -5  -3 5039.00 610.290   2
  -1   5   2 7962.53 673.307   2
  -1   5   1-162.409 389.468   2
  -1   5   0 65184.6 1637.66   2
  -1   5  -1 9747.52 775.299   2
  -1   5  -2 10197.1 826.043   2
  -1   5  -3 19940.6 1110.16   2
  -1   5  -4 4853.92 742.723   2
  -1   5  -5 1949.23 169.798   2
  -1   5  -6 13389.9 289.564   2
  -1   5  -7 7746.21 393.669   2
  -1   5  -8 2367.52 317.971   2
  -1   5  -9 2593.31 298.787   2
  -1   5 -10 2690.12 263.378   2
  -1   5 -11-53.2924 101.649   2
  -1   4  14 81.0867 88.6211   2
  -1   4  13 4824.16 278.084   2
  -1   4  12 4022.10 315.879   2
  -1   4  11 7190.99 400.436   2
  -1   4  10 10001.6 444.853   2
  -1   4   9 11899.3 301.885   2
   1  -4  -8 34419.5 578.246   2
   1  -4  -7 3004.90 537.764   2
   1  -4  -6 22031.5 1064.38   2
   1  -4  -5 33412.7 1186.73   2
   1  -4  -4 1988.02 426.845   2
   1  -4  -3 107633. 1825.02   2
  -1   4   2 54848.1 1316.83   2
  -1   4   1 53121.3 1307.61   2
  -1   4   0 1684.39 445.490   2
  -1   4  -1 101406. 1823.14   2
  -1   4  -2 45150.8 1315.81   2
  -1   4  -3 8613.16 715.334   2
  -1   4  -4 33942.6 1288.47   2
  -1   4  -5 39807.2 1480.89   2
  -1   4  -6 16526.8 421.711   2
  -1   4  -7 3186.78 183.925   2
  -1   4  -8 1023.92 171.465   2
  -1   4  -9 1848.60 184.822   2
  -1   4 -10 241.786 129.266   2
  -1   4 -11 95.2818 127.708   2
  -1   4 -12 1214.01 105.974   2
  -1   3  14 2518.49 185.429   2
  -1   3  13 588.338 199.534   2
  -1   3  12-102.581 227.124   2
  -1   3  11 19713.2 542.653   2
  -1   3  10 16667.1 498.211   2
  -1   3   9 158.902 207.181   2
   1  -3  -8 22102.2 1150.91   2
   1  -3  -7 36314.6 1321.25   2
   1  -3  -6 9200.12 688.559   2
   1  -3  -5 246.376 356.169   2
   1  -3  -4 34488.4 529.356   2
  -1   3   3 10009.5 321.992   2
  -1   3   2 173294. 1168.15   2
  -1   3   1 13104.0 374.264   2
  -1   3   0 69768.8 1265.86   2
  -1   3  -1 30106.7 923.783   2
  -1   3  -2 21935.8 856.369   2
  -1   3  -3 3052.76 489.163   2
  -1   3  -4-63.5615 425.334   2
  -1   3  -5 2186.41 565.787   2
  -1   3  -6 26778.6 1254.91   2
  -1   3  -7 24172.0 488.122   2
  -1   3  -8 3928.96 209.590   2
  -1   3  -9 1987.68 198.686   2
  -1   3 -10 5576.38 200.109   2
  -1   3 -11 3123.55 192.241   2
  -1   3 -12 751.020 138.622   2
  -1   3 -13 1824.95 149.693   2
  -1   2  14 116.674 125.439   2
  -1   2  13 1882.15 218.458   2
   1  -2 -12 18355.5 401.533   2
   1  -2 -11 6824.97 228.988   2
   1  -2 -10 1353.55 176.834   2
   1  -2  -9 14157.8 410.468   2
   1  -2  -8 16364.3 972.251   2
   1  -2  -7 2450.58 484.495   2
   1  -2  -6 23784.3 343.079   2
   1  -2  -5 20396.0 284.513   2
   1  -2  -4 16987.1 197.630   2
  -1   2   3 1267.19 163.652   2
  -1   2   2 73508.3 655.428   2
  -1   2   1 134513. 878.264   2
  -1   2   0 903.676 309.848   2
  -1   2  -1 18136.6 614.524   2
  -1   2  -2 127163. 1563.81   2
  -1   2  -3 4779.30 484.518   2
  -1   2  -4 37905.1 1109.24   2
  -1   2  -5 111536. 1982.27   2
  -1   2  -6 12218.0 851.083   2
  -1   2  -7-207.435 530.080   2
  -1   2  -8 3483.85 187.032   2
  -1   2  -9 4388.11 221.219   2
  -1   2 -10 299.968 144.572   2
  -1   2 -11 221.312 164.137   2
  -1   2 -12 3489.86 192.115   2
  -1   2 -13 246.137 169.877   2
  -1   2 -14 1172.88 86.7217   2
  -1   1  14 6.21405 81.0653   2
   1  -1 -13 6783.47 264.924   2
   1  -1 -12 2811.38 179.002   2
   1  -1 -11 3652.03 205.341   2
   1  -1 -10 3552.77 214.123   2
   1  -1  -9 6914.33 212.360   2
   1  -1  -8 894.420 473.755   2
   1  -1  -7 22745.3 1034.05   2
   1  -1  -6 4235.45 504.756   2
   1  -1  -5 9349.00 279.884   2
   1  -1  -4 12562.2 183.729   2
   1  -1  -3 126260. 823.004   2
  -1   1   2 6994.97 228.088   2
  -1   1   1 71811.7 533.895   2
  -1   1   0 87601.1 850.239   2
  -1   1  -1 14370.4 444.119   2
  -1   1  -2 2118.82 183.598   2
  -1   1  -3 10959.4 551.315   2
  -1   1  -4 135692. 1789.07   2
  -1   1  -5 19055.4 849.629   2
  -1   1  -6 36574.7 1211.93   2
  -1   1  -7 12778.3 879.019   2
  -1   1  -8 13914.9 973.454   2
  -1   1  -9 12653.7 238.778   2
  -1   1 -10 25869.1 409.467   2
  -1   1 -11 29685.3 432.438   2
  -1   1 -12 605.735 165.272   2
  -1   1 -13 247.541 198.290   2
  -1   1 -14 1378.47 166.985   2
   1   0 -14 319.768 128.914   2
   1   0 -13 957.578 184.733   2
   1   0 -12 5174.74 205.166   2
   1   0 -11 1384.40 169.491   2
   1   0 -10 968.018 175.785   2
   1   0  -9 6842.45 217.578   2
   1   0  -8 38632.8 1475.18   2
   1   0  -7 483.330 415.034   2
   1   0  -6 331.635 387.963   2
   1   0  -5 121737. 1843.81   2
   1   0  -4 66049.1 1203.59   2
   1   0  -3 36.7570 276.453   2
   1   0  -2 58375.6 816.292   2
   1   0  -1 148620. 950.385   2
  -1   0   0 12295.1 133.960   2
  -1   0  -1 17.5714 136.267   2
  -1   0  -2 116440. 583.130   2
  -1   0  -3 106905. 532.616   2
  -1   0  -4 10545.5 236.669   2
  -1   0  -5 143022. 824.723   2
  -1   0  -6 6363.12 249.378   2
  -1   0  -7 12365.1 764.368   2
  -1   0  -9 4955.16 199.422   2
  -1   0 -10 18624.3 339.898   2
  -1   0 -11 3254.81 211.913   2
  -1   0 -12 1625.26 250.612   2
  -1   0 -13 8444.63 339.724   2
  -1   0 -14 955.350 179.398   2
   1   1 -14 991.772 123.047   2
   1   1 -13 3190.52 220.183   2
   1   1 -12 172.590 219.713   2
   1   1 -11 4719.01 313.936   2
   1   1 -10 11990.5 283.701   2
   1   1  -9 10042.6 210.184   2
   1   1  -8 7964.38 843.858   2
   1   1  -7 27.6350 421.974   2
   1   1  -6 82179.8 1802.11   2
   1   1  -5 12992.4 729.806   2
   1   1  -4 2687.14 423.179   2
   1   1  -3 96771.8 1350.60   2
   1   1  -2 146737. 1371.42   2
   1   1  -1 70164.1 529.983   2
   1   1   0 18421.4 276.979   2
  -1  -1  -1 189071. 769.067   2
  -1  -1  -2 58253.7 626.019   2
  -1  -1  -3 19434.6 158.183   2
  -1  -1  -4 163970. 744.480   2
  -1  -1  -5 12207.6 268.486   2
  -1  -1  -6 19646.1 364.632   2
  -1  -1  -7 21824.3 414.540   2
  -1  -1  -8 12225.6 360.355   2
  -1  -1  -9 9456.69 809.375   2
  -1  -1 -10 45.2211 159.087   2
  -1  -1 -11 7746.44 258.636   2
  -1  -1 -12 4356.71 308.575   2
  -1  -1 -13 2522.19 258.784   2
  -1  -1 -14 1900.59 205.761   2
   1   2 -13-59.1721 153.992   2
   1   2 -12 2526.55 244.673   2
   1   2 -11 21230.1 503.481   2
   1   2 -10 36065.1 467.624   2
   1   2  -9 63.4772 137.913   2
   1   2  -8 2601.03 268.935   2
   1   2  -7 54092.4 1644.12   2
   1   2  -6 2918.98 518.685   2
   1   2  -5 60942.2 1473.58   2
   1   2  -4 32646.6 1006.57   2
   1   2  -3 21946.1 772.594   2
   1   2  -2 116876. 1382.37   2
   1   2  -1 73739.6 968.179   2
   1   2   0 144951. 1181.52   2
   1   2   1 3760.80 277.368   2
  -1  -2  -2 32586.0 592.658   2
  -1  -2  -3 117473. 1234.38   2
  -1  -2  -4-57.4270 293.079   2
  -1  -2  -5 9252.08 247.060   2
  -1  -2  -6 31876.3 440.885   2
  -1  -2  -7 8515.66 284.772   2
  -1  -2  -8-41.7753 173.107   2
  -1  -2  -9 3323.77 255.269   2
  -1  -2 -10 21677.8 455.734   2
  -1  -2 -11 433.504 237.725   2
  -1  -2 -12 2001.11 183.407   2
  -1  -2 -13 15289.3 292.154   2
  -1  -2 -14 1021.02 185.586   2
   1   3 -13 772.448 128.581   2
   1   3 -12 269.204 176.953   2
   1   3 -11 177.913 204.048   2
   1   3 -10 342.767 131.501   2
   1   3  -9 4753.49 238.157   2
   1   3  -8 1562.22 271.827   2
   1   3  -7 14664.9 282.096   2
   1   3  -6 25722.5 1191.50   2
   1   3  -5 36332.7 1239.44   2
   1   3  -4 30999.0 1066.58   2
   1   3  -3 54852.5 1241.62   2
   1   3  -2 9271.70 562.812   2
   1   3  -1 109390. 1444.72   2
   1   3   0 8526.77 472.971   2
   1   3   1 87001.9 1159.10   2
   1   3   2 58698.6 990.943   2
  -1  -3  -3 706.046 312.099   2
  -1  -3  -4 56045.8 382.856   2
  -1  -3  -5 16793.5 718.970   2
  -1  -3  -6 1399.92 171.194   2
  -1  -3  -7 10580.7 311.116   2
  -1  -3  -8 18649.6 421.974   2
  -1  -3  -9 20903.5 473.537   2
   1   3  10 4257.46 164.380   2
   1   3  11 4363.34 210.120   2
  -1  -3 -12 35167.6 430.646   2
  -1  -3 -13 1567.37 171.589   2
  -1  -3 -14 3041.94 209.595   2
   1   4 -12 362.738 134.584   2
   1   4 -11 4166.81 246.266   2
   1   4 -10 2911.92 157.475   2
   1   4  -9 1057.84 187.249   2
   1   4  -8 11915.5 463.065   2
   1   4  -7 15857.0 304.628   2
   1   4  -6 398.544 193.154   2
   1   4  -5 907.048 494.062   2
   1   4  -4 21815.0 995.295   2
   1   4  -3 86861.9 1747.48   2
   1   4  -2 12377.3 704.534   2
   1   4  -1 63104.1 1319.08   2
   1   4   0 29471.2 895.151   2
   1   4   1 570.628 359.925   2
   1   4   2 59403.1 1185.35   2
  -1  -4  -3 136410. 1772.25   2
  -1  -4  -4 220.318 316.461   2
  -1  -4  -5 98.6824 330.634   2
  -1  -4  -6 33965.4 491.914   2
  -1  -4  -7 38243.2 549.569   2
  -1  -4  -8 20342.5 440.416   2
   1   4   9 9337.37 254.266   2
   1   4  10 14272.3 308.786   2
   1   4  11 29101.0 633.763   2
   1   4  12 1621.05 249.517   2
   1   4  13 8704.05 239.238   2
  -1  -4 -14 888.191 187.773   2
   1   5 -11-106.969 123.623   2
   1   5 -10 142.935 108.444   2
   1   5  -9 4622.03 214.834   2
   1   5  -8 1601.62 182.100   2
   1   5  -7 2710.86 334.838   2
   1   5  -6 13034.8 355.039   2
   1   5  -5 32765.1 563.696   2
   1   5  -4 3505.56 638.414   2
   1   5  -3 5946.29 662.437   2
   1   5  -2 43409.5 1337.29   2
   1   5  -1 37553.9 1205.88   2
   1   5   0 601.614 431.215   2
   1   5   1 18869.6 839.688   2
   1   5   2 251967. 2742.85   2
  -1  -5  -3 6137.70 543.396   2
  -1  -5  -4 846.567 331.844   2
  -1  -5  -5 64404.8 1536.52   2
  -1  -5  -6 10418.2 737.678   2
  -1  -5  -7 11087.5 342.092   2
  -1  -5  -8 40537.0 463.896   2
  -1  -5  -9 10619.0 278.937   2
  -1  -5 -10 2335.65 200.942   2
   1   5  11 15525.6 496.241   2
   1   5  12 9150.28 385.938   2
  -1  -5 -14 205.243 173.155   2
   1   6 -10 1483.86 90.2192   2
   1   6  -9 1366.58 142.121   2
   1   6  -8 1065.23 148.959   2
   1   6  -7 1773.69 174.559   2
   1   6  -6 2845.99 326.606   2
   1   6  -5 6539.95 375.487   2
   1   6  -4 1084.48 244.474   2
   1   6  -3 25678.5 492.529   2
   1   6  -2 4677.64 659.568   2
   1   6  -1 8202.50 745.359   2
   1   6   0 31282.3 1213.78   2
   1   6   1 40337.6 1322.48   2
   1   6   2 23097.6 1032.76   2
  -1  -6  -3 224.881 421.822   2
  -1  -6  -4 13731.0 798.477   2
  -1  -6  -5 1721.86 469.243   2
  -1  -6  -6 8595.53 704.326   2
  -1  -6  -7 27693.2 397.023   2
  -1  -6  -8 60996.6 581.552   2
  -1  -6  -9 13768.7 323.480   2
   1   6  10 13909.2 495.804   2
   1   6  11 11351.5 436.060   2
   1   6  12 62.3866 201.057   2
   1   6  13 1713.03 196.858   2
  -1  -6 -14 4389.03 224.289   2
   1   7  -9 1116.63 119.875   2
   1   7  -8 1041.44 232.021   2
   1   7  -7 148.040 254.716   2
   1   7  -6 4309.72 351.753   2
   1   7  -5 424.606 186.884   2
   1   7  -4 13089.5 463.002   2
   1   7  -3 8180.53 376.907   2
   1   7  -2-20.4825 152.328   2
   1   7  -1 3005.28 196.222   2
   1   7   0 8815.51 244.662   2
   1   7   1 21152.9 479.038   2
   1   7   2 4638.58 207.325   2
   1   7   3 23399.2 372.278   2
   1   7   4 710.468 158.022   2
   1   7   5 22066.6 372.482   2
  -1  -7  -6 2582.35 193.293   2
   1   7   7 244.584 144.882   2
   1   7   8 6721.15 393.769   2
   1   7   9 6859.41 388.116   2
   1   7  10 1750.09 279.094   2
   1   7  11 2004.89 267.561   2
   1   7  12 5046.63 184.282   2
  -1  -7 -13 4413.54 161.222   2
  -1  -7 -14 1226.56 135.986   2
   1   8  -8 775.116 157.817   2
   1   8  -7 1177.60 217.837   2
   1   8  -6 105.767 238.608   2
   1   8  -5 902.892 157.508   2
   1   8  -4-21.7697 197.253   2
   1   8  -3 1379.18 259.539   2
   1   8  -2 300.055 215.648   2
   1   8  -1 5101.09 243.982   2
   1   8   0 43263.5 524.670   2
   1   8   1 9433.25 276.833   2
   1   8   2 3640.65 202.018   2
   1   8   3 2425.42 149.005   2
   1   8   4 7850.77 204.390   2
   1   8   5-213.059 176.338   2
   1   8   6 148.005 168.958   2
   1   8   7 16306.3 369.354   2
   1   8   8 18042.7 380.186   2
   1   8   9 21.8292 161.783   2
   1   8  10 1956.83 183.773   2
   1   8  11 6998.40 212.830   2
   1   8  12-19.1923 83.9437   2
   1   8  13 210.680 80.5155   2
   1   9  -6 153.556 168.469   2
   1   9  -5 470.277 114.476   2
   1   9  -4 5001.80 192.957   2
   1   9  -3 1132.64 238.411   2
   1   9  -2 2485.82 184.930   2
   1   9  -1 9653.94 361.177   2
   1   9   0 721.157 169.286   2
   1   9   1 272.940 153.752   2
   1   9   2 2891.13 185.989   2
   1   9   3 2407.18 179.523   2
   1   9   4 976.120 279.304   2
   1   9   5 7256.41 276.456   2
   1   9   6 16659.3 369.359   2
   1   9   7 6150.47 251.305   2
   1   9   8 4608.28 223.273   2
   1   9   9 4232.58 202.932   2
   1   9  10 11980.7 252.236   2
  -1  -9 -11 16.9444 77.8639   2
   1   9  12 745.985 120.066   2
   1  10  -4 15.5562 88.6382   2
   1  10  -3 1599.74 130.214   2
   1  10  -2 2094.60 216.621   2
   1  10  -1-17.2970 191.901   2
   1  10   0 2337.15 160.530   2
   1  10   1 6744.46 238.963   2
   1  10   2 1863.01 276.315   2
   1  10   3 244.174 233.484   2
   1  10   4 2583.77 176.443   2
   1  10   5 5355.88 192.291   2
   1  10   6 1650.18 240.792   2
   1  10   7 2387.79 234.004   2
   1  10   8 1066.47 188.824   2
   1  10   9 4211.66 210.245   2
   1  10  10 12.5917 106.458   2
   1  11  -2 291.004 105.324   2
   1  11  -1 1339.63 149.423   2
   1  11   0 1532.82 113.571   2
   1  11   1 20.2449 151.785   2
   1  11   2 592.174 164.312   2
   1  11   3 2415.13 179.188   2
   1  11   4 185.965 99.8572   2
   1  11   5 229.045 159.174   2
   1  11   6 4315.53 224.848   2
   1  11   7 82.6231 139.491   2
   1  11   8 165.556 104.516   2
  -2  10   7 977.045 131.087   2
  -2  10   6-122.533 128.935   2
  -2  10   5 2034.68 182.938   2
  -2  10   4 593.158 154.353   2
  -2  10   3 525.685 158.270   2
  -2  10   2 5281.34 150.803   2
  -2  10   1 269.056 151.624   2
  -2  10   0-10.9933 146.697   2
  -2  10  -1 256.453 150.207   2
  -2  10  -2 124.094 129.328   2
  -2   9   9 84.6963 84.4574   2
  -2   9   8-46.6764 106.839   2
  -2   9   7 3047.00 151.609   2
  -2   9   6 9235.61 348.986   2
  -2   9   5 496.543 215.369   2
  -2   9   4 121.980 204.508   2
  -2   9   3 21029.8 318.819   2
  -2   9   2 3.21173 138.855   2
  -2   9   1 525.355 150.908   2
  -2   9   0 450.420 148.525   2
  -2   9  -1 2127.18 248.931   2
  -2   9  -2 1260.37 226.275   2
  -2   9  -3 203.666 180.839   2
  -2   9  -4 5845.11 233.412   2
  -2   9  -5 1527.08 138.410   2
  -2   8  11 7833.38 149.656   2
  -2   8  10 57.4123 110.015   2
  -2   8   9 22.9839 123.451   2
  -2   8   8 3331.22 185.404   2
  -2   8   7 12096.2 290.641   2
  -2   8   6 565.311 114.363   2
  -2   8   5 86.8399 111.068   2
  -2   8   4 34347.1 447.328   2
  -2   8   3 1562.15 136.170   2
  -2   8   2 294.879 129.354   2
  -2   8   1 16205.2 334.197   2
  -2   8   0 9500.60 274.703   2
  -2   8  -1 96.5049 149.992   2
  -2   8  -2 4726.82 327.325   2
  -2   8  -3 8727.53 373.221   2
  -2   8  -4 368.224 220.550   2
  -2   8  -5 5.01835 177.399   2
  -2   8  -6 365.562 139.605   2
  -2   8  -7 586.082 140.975   2
  -2   7  12 5502.60 140.030   2
  -2   7  11 616.763 171.783   2
  -2   7  10 1542.23 223.365   2
  -2   7   9 5707.10 325.001   2
  -2   7   8 3283.45 289.830   2
  -2   7   7 3049.40 281.093   2
  -2   7   6 2641.46 174.964   2
  -2   7   5 28475.6 341.799   2
  -2   7   4 9966.99 224.659   2
  -2   7   3 654.080 132.770   2
  -2   7   2 7485.46 207.040   2
  -2   7   1 21616.2 303.711   2
  -2   7   0 3557.97 169.422   2
  -2   7  -1 220.796 162.256   2
  -2   7  -2 17963.4 348.847   2
  -2   7  -3 288.674 256.920   2
  -2   7  -4 1605.53 272.503   2
  -2   7  -5 7504.53 337.180   2
  -2   7  -6 717.902 211.033   2
  -2   7  -7 295.096 140.938   2
  -2   6  13-104.259 108.499   2
  -2   6  12 3324.82 224.719   2
  -2   6  11 10448.5 379.624   2
  -2   6  10 4708.22 318.062   2
  -2   6   9 1649.58 263.577   2
  -2   6   8 5010.88 348.906   2
  -2   6   7 10843.4 439.732   2
  -2   6   6 28903.3 394.681   2
   2  -6  -5 17458.3 301.958   2
  -2   6   4 1713.50 152.666   2
  -2   6   3 16002.3 293.015   2
  -2   6   2 599.931 116.473   2
  -2   6   1 25065.5 287.367   2
  -2   6   0 2306.61 139.142   2
  -2   6  -1 884.876 128.409   2
  -2   6  -2 25561.5 304.817   2
  -2   6  -3 4262.35 298.218   2
  -2   6  -4 1393.24 263.794   2
  -2   6  -5 709.283 242.505   2
  -2   6  -6 298.824 230.251   2
  -2   6  -7 683.455 196.305   2
  -2   5  13 4515.40 211.644   2
  -2   5  12 7806.22 331.302   2
  -2   5  11 3778.84 308.743   2
  -2   5  10 6717.68 371.105   2
  -2   5   9 572.311 253.668   2
  -2   5   8 3541.51 317.257   2
   2  -5  -7 969.774 244.538   2
   2  -5  -6 37669.4 401.699   2
   2  -5  -5 5265.84 649.910   2
   2  -5  -4 13143.5 887.258   2
   2  -5  -3-527.791 416.669   2
   2  -5  -2 43550.3 1408.73   2
  -2   5   1 10278.8 810.273   2
  -2   5   0 7740.24 725.512   2
  -2   5  -1 80930.0 1945.40   2
  -2   5  -2 14787.5 945.759   2
  -2   5  -3 164.964 622.889   2
  -2   5  -5 15970.9 452.883   2
  -2   5  -6 1381.50 238.890   2
  -2   5  -7 754.559 216.096   2
  -2   5  -8 2787.95 267.608   2
  -2   5  -9 7813.55 322.234   2
  -2   5 -10 154.309 163.286   2
  -2   4  13 3935.50 230.410   2
  -2   4  12 2037.06 252.477   2
  -2   4  11 5125.82 337.481   2
  -2   4  10 821.521 256.633   2
  -2   4   9 528.430 259.927   2
   2  -4  -8 29447.0 1365.26   2
   2  -4  -7 55474.2 1791.69   2
   2  -4  -6 20245.0 1051.49   2
   2  -4  -5 12874.8 835.650   2
   2  -4  -4 1834.33 252.660   2
  -2   4   3 48641.4 821.579   2
  -2   4   2 1307.02 256.258   2
  -2   4   1 4757.46 346.314   2
  -2   4   0 105778. 1905.87   2
  -2   4  -1 5409.43 583.138   2
  -2   4  -2 479.903 431.489   2
  -2   4  -3 2112.60 515.963   2
  -2   4  -4 33948.0 1336.87   2
  -2   4  -6 196.609 205.851   2
  -2   4 -11 3793.92 244.955   2
  -2   4 -12 481.646 137.711   2
  -2   3  14-41.8324 108.109   2
  -2   3  13 4054.91 241.718   2
  -2   3  12 2936.73 281.599   2
   2  -3  -8 30840.5 1382.31   2
   2  -3  -7 12077.1 871.705   2
   2  -3  -6 371.334 394.445   2
   2  -3  -5 62565.0 1553.83   2
   2  -3  -4 35813.2 645.958   2
  -2   3   3 2697.57 260.944   2
  -2   3   2 122542. 1135.34   2
  -2   3   1 171301. 1345.10   2
  -2   3   0 3733.93 295.005   2
  -2   3  -1 20206.0 524.388   2
  -2   3  -2 24008.3 907.670   2
  -2   3  -3 18208.3 871.133   2
  -2   3 -10 7380.06 322.522   2
  -2   3 -11 172.066 177.903   2
  -2   3 -12 872.525 171.288   2
  -2   3 -13 41.9201 123.714   2
  -2   2  14 3706.67 162.017   2
  -2   2  13 7200.12 300.925   2
   2  -2  -5 61544.3 791.796   2
  -2   2   4 898.865 202.601   2
   2  -2  -3 105067. 976.662   2
  -2   2   2 53161.7 683.460   2
  -2   2   1 25034.8 395.995   2
  -2   2   0 18550.8 418.620   2
  -2   2  -1 15210.6 396.972   2
  -2   2  -2 18707.2 460.208   2
  -2   2  -3 3713.08 459.762   2
  -2   2  -4 2002.35 457.504   2
  -2   2  -5 6757.19 642.105   2
  -2   2 -11 1708.85 255.448   2
  -2   2 -12 137.282 204.001   2
  -2   2 -13 3510.20 153.394   2
  -2   1   5 3493.72 334.460   2
  -2   1   4 147792. 1497.55   2
   2  -1  -3 97.3204 174.900   2
   2  -1  -2 45038.5 585.359   2
  -2   1   1 64953.0 641.256   2
  -2   1   0 87136.0 707.777   2
  -2   1  -1 1771.33 190.503   2
  -2   1  -2 20554.0 212.537   2
  -2   1  -3 24251.3 266.262   2
  -2   1  -4 1457.66 379.016   2
  -2   1 -12 122.645 222.146   2
  -2   1 -13 12399.0 349.508   2
  -2   1 -14 242.299 139.171   2
   2   0  -2 92314.8 338.591   2
   2   0  -1 227531. 662.988   2
   2   0   0 147698. 509.133   2
  -2   0  -1 5796.15 356.008   2
  -2   0  -2 4883.22 130.283   2
  -2   0  -3 2859.26 128.898   2
  -2   0  -4 3092.60 142.810   2
  -2   0  -5 154565. 888.492   2
  -2   0  -6 6671.09 293.182   2
  -2   0  -7 9932.56 365.172   2
  -2   0  -9 3848.04 289.754   2
  -2   0 -10 3112.74 198.099   2
  -2   0 -11 300.599 256.578   2
  -2   0 -12 33194.3 621.448   2
  -2   0 -13 252.638 218.470   2
  -2   0 -14 78.2258 114.288   2
   2   1  -2 12579.8 474.833   2
   2   1  -1 680005. 1073.89   2
  -2  -1   0 558491. 1323.13   2
  -2  -1  -1 327605. 1026.96   2
  -2  -1  -2 15588.6 226.917   2
  -2  -1  -3 12140.3 258.731   2
  -2  -1  -4 23672.8 252.386   2
  -2  -1  -5 9133.78 288.682   2
  -2  -1  -6 63319.4 714.980   2
  -2  -1  -7 38397.0 632.702   2
  -2  -1  -8 201.698 222.879   2
  -2  -1 -10 368.314 251.013   2
  -2  -1 -12 8073.63 254.729   2
  -2  -1 -13 851.116 248.478   2
  -2  -1 -14 4784.53 225.809   2
   2   2  -2 7043.49 412.635   2
   2   2  -1 4111.87 302.216   2
  -2  -2  -2 4875.64 150.803   2
  -2  -2  -3 66445.4 436.380   2
  -2  -2  -4 12026.4 179.638   2
  -2  -2  -5 328118. 1450.79   2
  -2  -2  -6 118047. 967.662   2
  -2  -2  -7 198.670 194.476   2
  -2  -2  -8 39872.8 683.048   2
  -2  -2  -9 8732.65 395.744   2
  -2  -2 -10 11814.7 469.311   2
  -2  -2 -11 19285.9 513.316   2
  -2  -2 -12 3938.54 320.600   2
  -2  -2 -13 5925.93 221.352   2
  -2  -2 -14 915.809 150.621   2
   2   3   1 13997.6 459.788   2
  -2  -3  -2 14395.5 444.834   2
  -2  -3  -3 222.011 211.917   2
  -2  -3  -4 117131. 655.539   2
  -2  -3  -5 2705.87 154.641   2
  -2  -3  -6 7813.19 270.836   2
  -2  -3  -7 25415.1 457.839   2
  -2  -3  -8 136.999 213.030   2
  -2  -3  -9 315.839 222.842   2
  -2  -3 -10 21442.2 386.821   2
  -2  -3 -11 575.401 251.358   2
  -2  -3 -12 729.180 175.662   2
  -2  -3 -13 6164.96 339.578   2
  -2  -3 -14 2829.94 218.549   2
  -2  -4  -3 99181.6 1358.64   2
  -2  -4  -4 64122.7 538.755   2
  -2  -4  -5 82449.8 599.657   2
  -2  -4  -6 40081.7 1097.33   2
  -2  -4  -7 1003.53 194.887   2
  -2  -4  -8 13255.1 384.068   2
  -2  -4  -9 16393.9 302.534   2
  -2  -4 -10 2757.52 200.360   2
  -2  -4 -11 4623.61 340.778   2
  -2  -4 -12 16824.2 528.523   2
  -2  -4 -13 8199.32 370.331   2
  -2  -4 -14 378.382 183.331   2
   2   5   1 60466.7 1295.29   2
   2   5   2 67705.2 1340.24   2
  -2  -5  -3 25493.1 835.293   2
  -2  -5  -4 35455.7 455.257   2
  -2  -5  -5 14692.0 301.619   2
  -2  -5  -6 31813.5 1061.15   2
  -2  -5  -7 92750.4 907.679   2
  -2  -5  -8 27728.3 540.796   2
  -2  -5  -9 4.97776 157.178   2
  -2  -5 -10 35054.9 482.984   2
  -2  -5 -11 7319.57 244.811   2
  -2  -5 -12 1132.88 282.853   2
  -2  -5 -13 226.245 219.264   2
  -2  -5 -14 561.413 118.006   2
   2   6   1 4075.02 514.016   2
   2   6   2 37328.1 1162.43   2
  -2  -6  -3 28342.2 1036.40   2
  -2  -6  -4-32.3369 381.727   2
  -2  -6  -5 35021.8 481.759   2
  -2  -6  -6 58027.1 1527.70   2
  -2  -6  -7 12802.0 290.135   2
  -2  -6  -8 14235.4 336.250   2
  -2  -6  -9 4396.30 228.431   2
   2   6  10 97.5746 152.379   2
   2   6  11 338.498 195.736   2
  -2  -6 -12 1147.63 162.974   2
  -2  -6 -13 12206.1 246.138   2
  -2  -6 -14 5061.92 248.984   2
  -2  -7  -3 5798.51 298.011   2
   2   7   4 17116.1 262.098   2
  -2  -7  -5 10702.5 220.198   2
   2   7   6 1038.98 139.451   2
  -2  -7  -7 1381.26 126.577   2
  -2  -7  -8 11857.3 216.123   2
  -2  -7  -9 7369.13 211.840   2
   2   7  10 5742.20 229.521   2
   2   7  11 4428.16 195.918   2
  -2  -7 -12 11788.7 202.492   2
  -2  -7 -13 2672.81 228.198   2
  -2  -7 -14 320.665 130.660   2
   2   8   3 13921.4 328.036   2
   2   8   4 1963.90 159.884   2
   2   8   5 9518.30 235.504   2
   2   8   6 11817.9 251.234   2
  -2  -8  -7 9912.80 202.046   2
  -2  -8  -8 4877.61 157.210   2
   2   8   9 3371.99 157.730   2
   2   8  10 4495.49 202.986   2
  -2  -8 -11 5769.58 207.136   2
   2   8  12 1443.48 129.771   2
  -2  -8 -13 2579.09 168.501   2
   2   9   1 18922.3 498.112   2
   2   9   2 2175.01 264.804   2
   2   9   3-20.5094 157.921   2
   2   9   4 2348.39 192.553   2
   2   9   5 4878.99 228.776   2
   2   9   6 2131.81 153.508   2
   2   9   7 2475.94 151.202   2
   2   9   8 1050.10 127.577   2
   2   9   9 4218.48 188.470   2
   2   9  10 2435.36 228.000   2
   2   9  11 2125.72 192.751   2
   2  10  -1 30.1857 188.440   2
   2  10   0 9274.05 334.099   2
   2  10   1 493.277 194.379   2
   2  10   2 1187.98 165.355   2
   2  10   3 4954.49 211.229   2
   2  10   4 2186.94 172.592   2
   2  10   5 1565.50 153.899   2
   2  10   6 8431.76 219.164   2
   2  10   7 1709.23 214.493   2
   2  10   8 1418.61 172.260   2
   2  10   9-53.7483 135.736   2
   2  11  -1 3152.30 170.040   2
   2  11   0-3.64332 152.966   2
   2  11   1 1509.38 117.401   2
   2  11   2 3192.83 135.777   2
   2  11   3 3170.55 205.559   2
   2  11   4 282.918 150.732   2
   2  11   5 2359.49 123.373   2
   2  11   6 451.672 145.014   2
   2  11   7 688.008 132.721   2
  -3   9   7 2089.62 150.997   2
  -3   9   6 88.1194 130.391   2
  -3   9   5 410.551 146.369   2
  -3   9   4-35.0159 146.270   2
  -3   9   3 658.264 158.117   2
  -3   9   2 119.692 151.148   2
  -3   9   1 3326.10 216.274   2
  -3   9   0 5527.90 250.286   2
  -3   9  -1 646.504 187.451   2
  -3   9  -2 2549.45 204.477   2
  -3   9  -3 1775.08 172.341   2
  -3   9  -4 1245.36 129.800   2
  -3   8   9 9552.32 249.370   2
  -3   8   8 113.650 148.542   2
  -3   8   7 4496.75 248.390   2
  -3   8   6 5712.78 286.178   2
  -3   8   5 2438.25 161.611   2
  -3   8   4 2434.74 170.536   2
  -3   8   3 590.928 149.882   2
  -3   8   2 10336.6 206.942   2
  -3   8   1 12431.3 282.212   2
  -3   8   0 135.960 223.735   2
  -3   8  -1 7035.71 336.884   2
  -3   8  -2 831.928 237.381   2
  -3   8  -3 83.2756 220.221   2
  -3   8  -4 568.808 192.425   2
  -3   8  -5 731.578 170.642   2
  -3   8  -6 366.234 113.877   2
  -3   7  11 848.312 119.140   2
  -3   7  10 14597.0 224.513   2
  -3   7   9 81.2096 117.347   2
  -3   7   8 3304.83 263.300   2
  -3   7   7 4636.54 203.611   2
  -3   7   6 7460.78 232.071   2
  -3   7   5 1846.79 176.619   2
  -3   7   4 1477.00 168.974   2
  -3   7   3 12982.4 301.641   2
  -3   7   2 147.952 118.749   2
  -3   7   1 11067.3 287.294   2
  -3   7   0 32050.0 448.398   2
  -3   7  -1 2010.02 196.426   2
  -3   7  -2-82.6335 233.926   2
  -3   7  -3 4586.43 324.559   2
  -3   7  -4 5497.31 330.184   2
  -3   7  -5 220.815 223.725   2
  -3   7  -6 683.911 187.583   2
  -3   7  -7 1514.45 115.069   2
  -3   6  11 18894.8 362.899   2
  -3   6  10 2008.12 214.778   2
  -3   6   9 12389.6 398.161   2
  -3   6   8 3595.47 273.672   2
  -3   6   7 4148.81 186.050   2
  -3   6   6 3039.77 173.923   2
  -3   6   5 1111.75 217.602   2
  -3   6   4 32240.8 432.093   2
  -3   6   3 68.2504 143.503   2
  -3   6   2 16737.5 249.938   2
  -3   6   1 39845.3 447.808   2
  -3   6   0 7854.36 251.841   2
  -3   6  -1 772.257 177.607   2
  -3   6  -2 364.168 170.128   2
  -3   6  -3 397.476 251.796   2
  -3   6  -4 1659.03 282.282   2
  -3   6  -5 1813.26 277.628   2
  -3   6  -6 3845.64 283.004   2
  -3   6  -7 242.104 177.356   2
  -3   6  -8 475.870 171.022   2
  -3   6  -9 1227.42 167.663   2
  -3   5  12 5541.26 221.917   2
  -3   5  11 1312.98 214.514   2
  -3   5  10-56.0909 214.378   2
  -3   5   9 1395.71 252.399   2
  -3   5   8 2091.89 157.919   2
  -3   5   7 7406.35 182.996   2
  -3   5   6 6.90817 115.517   2
   3  -5  -5 61936.8 510.294   2
   3  -5  -4 12883.8 259.819   2
  -3   5   3 48741.6 452.456   2
  -3   5   2 11710.9 241.357   2
  -3   5   1 12150.9 245.640   2
  -3   5   0 23802.3 270.890   2
  -3   5  -1 1863.89 168.274   2
  -3   5  -2 757.807 147.660   2
  -3   5  -3 16182.4 306.353   2
  -3   5  -4 7469.30 349.849   2
  -3   5  -5 7199.72 357.376   2
  -3   5  -6 348.727 148.458   2
  -3   5  -7 268.590 148.943   2
  -3   5  -8 2226.33 180.384   2
  -3   5  -9-21.1764 164.984   2
  -3   5 -10 287.533 132.316   2
  -3   4  13 273.824 113.856   2
  -3   4  12 13765.5 360.712   2
  -3   4  11 6751.75 331.073   2
  -3   4  10 4263.27 312.717   2
  -3   4   9 7202.70 265.607   2
  -3   4   8 44242.1 534.315   2
  -3   4   7 695.615 164.056   2
  -3   4   6 37701.6 339.194   2
   3  -4  -5 26105.0 428.430   2
   3  -4  -4 14471.8 548.927   2
   3  -4  -3 36.6919 299.038   2
  -3   4   2 9031.81 455.645   2
  -3   4   1 55593.8 974.850   2
  -3   4   0 1028.33 301.070   2
  -3   4  -1 150.014 492.000   2
  -3   4  -2 19042.1 988.902   2
  -3   4  -3 3084.31 591.570   2
  -3   4  -4 72.7142 132.582   2
  -3   4  -5 12072.5 279.652   2
  -3   4  -6 5715.20 238.174   2
  -3   4  -7 4557.83 220.093   2
  -3   4  -8 1414.55 263.847   2
  -3   4  -9 3797.38 305.573   2
  -3   4 -10 1586.07 233.277   2
  -3   4 -11 790.739 175.403   2
  -3   3  13 6408.52 223.099   2
  -3   3  12 1661.95 215.423   2
  -3   3  11 1569.29 178.712   2
  -3   3  10 995.366 264.743   2
  -3   3   9 15814.9 494.361   2
  -3   3   8-36.8669 251.090   2
   3  -3  -7 15648.3 420.384   2
   3  -3  -6 97521.9 854.149   2
   3  -3  -5 35970.7 1239.15   2
   3  -3  -4 31819.8 699.208   2
   3  -3  -3 89115.1 1125.05   2
  -3   3   2 129450. 1324.88   2
  -3   3   1 12753.4 462.049   2
  -3   3   0 8797.29 404.988   2
  -3   3  -1 91309.0 1131.38   2
  -3   3  -2 25235.8 651.477   2
  -3   3  -3 642.618 431.739   2
  -3   3  -4 24620.0 1048.31   2
  -3   3  -5 14108.9 904.922   2
  -3   3  -6 5214.51 277.737   2
  -3   3  -7 1729.18 175.357   2
  -3   3  -9 551.909 269.618   2
  -3   3 -10 1059.93 154.524   2
  -3   3 -11 4875.83 294.895   2
  -3   3 -12 3841.58 229.418   2
  -3   2  13 42.6010 135.699   2
  -3   2  12 4590.57 281.515   2
  -3   2  11 3649.59 304.521   2
  -3   2  10 5824.07 362.279   2
  -3   2   9 2414.76 294.686   2
  -3   2   8 1161.52 270.100   2
   3  -2  -7 79801.4 820.121   2
   3  -2  -6 8835.97 747.197   2
   3  -2  -5 23466.3 612.802   2
   3  -2  -4 24290.6 589.080   2
   3  -2  -3 79517.8 986.549   2
   3  -2  -2 31020.7 614.389   2
  -3   2   1-16.3855 190.677   2
  -3   2   0 52668.0 603.393   2
  -3   2  -1 6313.32 322.234   2
  -3   2  -2 101.262 208.741   2
  -3   2  -3 2451.45 279.968   2
  -3   2  -4 797.874 393.778   2
  -3   2  -5 97.7270 436.132   2
  -3   2  -6 26127.7 1148.23   2
  -3   2  -7 22231.8 481.467   2
  -3   2  -8 10854.1 279.446   2
  -3   2  -9 845.504 172.747   2
  -3   2 -10 22100.2 372.606   2
  -3   2 -11 4861.76 209.795   2
  -3   2 -12 728.457 155.496   2
  -3   2 -13 4225.28 217.065   2
  -3   1  13 7266.12 240.237   2
  -3   1  12 5697.82 287.542   2
  -3   1  11 263.041 221.576   2
  -3   1  10 1942.37 289.378   2
  -3   1   9 1155.88 275.889   2
   3  -1  -8 39967.1 629.022   2
   3  -1  -7 614.003 209.926   2
   3  -1  -6 51602.3 1475.44   2
   3  -1  -5 18403.4 532.164   2
   3  -1  -4 9846.45 392.984   2
   3  -1  -3 73883.5 918.023   2
   3  -1  -2 119.978 190.936   2
   3  -1  -1 44400.9 628.462   2
  -3   1   0 471.125 153.036   2
  -3   1  -1 65243.2 708.500   2
  -3   1  -2 2902.25 233.473   2
  -3   1  -3 318.336 198.608   2
  -3   1  -4 50639.0 746.234   2
  -3   1  -5 48827.0 1209.69   2
  -3   1  -6-577.989 468.181   2
  -3   1  -7 6548.95 661.419   2
  -3   1  -8 1183.19 135.876   2
  -3   1  -9 14.6879 165.757   2
  -3   1 -10 321.814 178.668   2
  -3   1 -11 4127.43 224.276   2
  -3   1 -12 11780.1 274.636   2
  -3   1 -13 138.221 176.557   2
  -3   1 -14 564.682 117.410   2
  -3   0  13 1225.19 144.366   2
   3   0 -12 3.19414 109.537   2
   3   0 -11 266.506 145.064   2
   3   0 -10 899.539 160.610   2
  -3   0   9 8509.82 392.698   2
   3   0  -8 5018.45 204.671   2
   3   0  -7 21699.0 1061.51   2
   3   0  -6 2307.11 513.169   2
   3   0  -5 2346.98 279.282   2
   3   0  -4 78257.4 999.307   2
   3   0  -3 140.374 199.703   2
  -3   0   2 2584.43 145.340   2
   3   0  -1 65084.7 653.818   2
   3   0   0 79626.7 572.852   2
  -3   0  -1 4195.83 377.227   2
  -3   0  -2 3426.35 113.228   2
  -3   0  -3 48721.0 367.119   2
  -3   0  -4 43865.8 389.655   2
  -3   0  -5 206.099 115.548   2
  -3   0  -6 66.4495 164.831   2
  -3   0  -7 69029.4 749.785   2
  -3   0  -8 7208.66 188.074   2
  -3   0  -9 12291.0 248.260   2
  -3   0 -10 59286.5 492.240   2
  -3   0 -11 24842.0 326.056   2
  -3   0 -12 4147.88 299.790   2
  -3   0 -13 632.328 203.410   2
  -3   0 -14 116.276 132.927   2
  -3  -1  13 1291.91 117.240   2
   3   1 -12 176.726 107.675   2
   3   1 -11 1008.76 152.064   2
   3   1 -10 1096.65 166.734   2
  -3  -1   9 13089.8 446.333   2
   3   1  -8 16182.1 319.793   2
   3   1  -7 49.2577 199.006   2
   3   1  -6 33263.6 471.101   2
   3   1  -5 43978.7 517.331   2
   3   1  -4 303.500 149.638   2
  -3  -1   3 336.204 98.7646   2
   3   1  -2 31005.2 272.912   2
  -3  -1   1 46767.4 493.316   2
  -3  -1   0 1019.79 169.487   2
  -3  -1  -1 2753.89 168.972   2
  -3  -1  -2 86159.4 593.293   2
  -3  -1  -3 17095.9 215.952   2
  -3  -1  -4 63828.0 449.458   2
  -3  -1  -5 4945.95 171.336   2
  -3  -1  -6 101402. 815.808   2
  -3  -1  -7 181.979 188.005   2
  -3  -1  -8 4917.96 277.615   2
  -3  -1  -9 40883.3 356.023   2
  -3  -1 -10 19722.4 309.838   2
  -3  -1 -11 16084.5 347.373   2
  -3  -1 -12 2762.76 194.972   2
  -3  -1 -13 2051.46 151.114   2
  -3  -1 -14 123.037 134.971   2
   3   2 -12 785.845 98.8004   2
   3   2 -11 4692.60 181.324   2
   3   2 -10 9843.76 258.037   2
  -3  -2   9 518.410 241.345   2
   3   2  -8 2557.90 290.653   2
   3   2  -7 14987.7 285.102   2
  -3  -2   6 5000.90 266.065   2
  -3  -2   5 471.797 199.512   2
  -3  -2   4 508.887 119.318   2
  -3  -2   3 72826.5 486.755   2
  -3  -2   2 38487.6 354.147   2
  -3  -2   1 12305.2 220.205   2
  -3  -2   0 61556.5 412.426   2
  -3  -2  -1 111032. 796.537   2
  -3  -2  -2 3646.50 228.666   2
  -3  -2  -3 46642.6 461.743   2
  -3  -2  -4 2877.93 168.006   2
  -3  -2  -5 112330. 915.119   2
  -3  -2  -6 4231.23 265.601   2
  -3  -2  -7 11025.5 382.192   2
  -3  -2  -8 52744.7 813.423   2
  -3  -2  -9 2384.29 162.727   2
  -3  -2 -10 44889.6 547.033   2
  -3  -2 -11 824.992 185.770   2
  -3  -2 -12 2301.69 193.055   2
  -3  -2 -13 49.3699 129.408   2
  -3  -2 -14 58.4181 129.373   2
   3   3 -12 1705.23 137.222   2
   3   3 -11 14804.5 226.686   2
   3   3 -10 9959.13 243.157   2
  -3  -3   9-107.692 204.379   2
   3   3  -8 11871.9 400.588   2
   3   3  -7-13.0597 145.802   2
   3   3  -6 4282.97 205.371   2
  -3  -3   5 16881.7 440.314   2
  -3  -3   4 22782.2 486.649   2
  -3  -3   3-123.797 188.175   2
  -3  -3   2 5223.37 259.850   2
  -3  -3   1 15650.9 354.743   2
  -3  -3   0 4925.89 232.202   2
  -3  -3  -1 2714.60 148.349   2
  -3  -3  -2 68120.3 687.358   2
  -3  -3  -3 282.395 186.606   2
  -3  -3  -4 36387.7 510.220   2
  -3  -3  -5 47118.9 571.503   2
  -3  -3  -6 21146.1 483.348   2
  -3  -3  -7 30904.7 605.759   2
  -3  -3  -8 3980.62 307.549   2
  -3  -3  -9 88558.6 719.001   2
  -3  -3 -10 7276.63 274.597   2
  -3  -3 -11 55.6603 175.048   2
  -3  -3 -12 14449.1 485.621   2
  -3  -3 -13 604.118 224.704   2
  -3  -3 -14 879.122 168.086   2
   3   4 -11 54.2649 146.794   2
   3   4 -10 113.468 180.232   2
  -3  -4   9 65.2306 187.463   2
   3   4  -8 3869.34 165.466   2
   3   4  -7 1364.24 140.849   2
   3   4  -6 10704.2 225.837   2
   3   4  -5 32703.9 335.591   2
  -3  -4   4 1961.41 261.656   2
  -3  -4   3 3617.73 275.248   2
  -3  -4   2 35630.3 566.649   2
  -3  -4   1 4.72022 184.648   2
  -3  -4   0 10954.5 314.573   2
  -3  -4  -1 46137.4 537.759   2
  -3  -4  -2 1211.90 124.011   2
  -3  -4  -3 3412.65 246.247   2
  -3  -4  -4 38853.2 559.416   2
  -3  -4  -5 11799.5 329.902   2
  -3  -4  -6 864.102 171.184   2
  -3  -4  -7 39782.0 697.878   2
  -3  -4  -8 84755.3 1047.61   2
  -3  -4  -9 27945.2 634.573   2
  -3  -4 -10 67.4884 226.000   2
  -3  -4 -11 24621.6 446.492   2
  -3  -4 -12 1230.14 288.616   2
  -3  -4 -13 3265.04 277.027   2
  -3  -4 -14 760.401 189.576   2
   3   5 -10 592.334 157.986   2
   3   5  -9 910.086 142.822   2
   3   5  -8 1093.31 155.727   2
   3   5  -7 1009.99 145.216   2
   3   5  -6 226.559 136.648   2
   3   5  -5 4095.96 181.143   2
   3   5  -4 889.527 163.963   2
  -3  -5   3 509.899 232.702   2
  -3  -5   2 20450.3 489.956   2
  -3  -5   1 20202.2 460.964   2
  -3  -5   0 8647.28 312.584   2
  -3  -5  -1 29527.9 478.685   2
  -3  -5  -2 34968.5 484.359   2
  -3  -5  -3 26835.9 313.684   2
  -3  -5  -4 4704.50 281.410   2
  -3  -5  -5 1700.90 205.731   2
  -3  -5  -6 44213.2 597.493   2
  -3  -5  -7 68798.6 941.467   2
  -3  -5  -8 18372.1 548.812   2
  -3  -5  -9 159.969 241.346   2
  -3  -5 -10 27120.8 461.800   2
  -3  -5 -11 76.1768 166.809   2
  -3  -5 -12 10.1370 233.070   2
  -3  -5 -13 3283.72 281.215   2
  -3  -5 -14 10292.6 310.657   2
   3   6  -9 644.683 107.982   2
   3   6  -8 206.918 130.368   2
   3   6  -7 258.918 158.877   2
   3   6  -6 9223.61 213.445   2
   3   6  -5 8232.65 213.455   2
   3   6  -4 1275.65 178.488   2
   3   6  -3 12304.4 235.804   2
   3   6  -2 10326.8 279.649   2
   3   6  -1 4185.51 204.816   2
  -3  -6   0 3748.22 267.604   2
  -3  -6  -1 25273.1 480.409   2
  -3  -6  -2 29741.1 478.542   2
  -3  -6  -3 24694.4 548.503   2
  -3  -6  -4 10836.8 386.436   2
  -3  -6  -5 39581.5 630.693   2
   3   6   6 2984.85 271.186   2
   3   6   7 88650.6 992.335   2
  -3  -6  -8 9414.39 284.937   2
  -3  -6  -9 6837.97 270.738   2
  -3  -6 -10 6706.27 272.098   2
  -3  -6 -11 887.432 271.757   2
  -3  -6 -12 6068.82 355.387   2
  -3  -6 -13 9760.88 237.350   2
  -3  -6 -14 3922.97 208.378   2
   3   7  -8-58.0279 92.8480   2
   3   7  -7 1023.96 131.181   2
   3   7  -6 695.425 157.225   2
   3   7  -5 1000.12 168.021   2
   3   7  -4 10612.5 226.311   2
   3   7  -3 6896.87 197.747   2
   3   7  -2-125.465 122.398   2
   3   7  -1 12253.5 310.966   2
   3   7   0 12098.0 296.642   2
   3   7   1 160.696 119.588   2
   3   7   2 106.354 157.907   2
   3   7   3 9613.16 276.889   2
   3   7   4 8163.13 263.154   2
   3   7   5 652.748 138.998   2
   3   7   6 26859.1 435.101   2
   3   7   7 12401.4 325.350   2
  -3  -7  -8 25735.1 299.301   2
  -3  -7  -9 1210.65 123.418   2
   3   7  10 1881.30 149.180   2
  -3  -7 -11 8369.33 260.363   2
  -3  -7 -12 970.631 150.646   2
  -3  -7 -13 17192.7 249.718   2
  -3  -7 -14 581.608 117.421   2
   3   8  -7 214.066 152.737   2
   3   8  -6 3061.12 239.697   2
   3   8  -5 4092.89 295.596   2
   3   8  -4 3700.53 304.825   2
   3   8  -3 22.2323 227.295   2
   3   8  -2 92.0103 157.298   2
   3   8  -1 90.3722 170.984   2
   3   8   0 1660.69 179.405   2
   3   8   1 98.7540 170.776   2
   3   8   2 12838.3 327.670   2
   3   8   3 5116.02 199.353   2
   3   8   4 1766.40 158.538   2
   3   8   5 16004.6 496.496   2
   3   8   6 43.8028 159.232   2
   3   8   7 4239.94 234.594   2
  -3  -8  -8 3193.06 171.678   2
   3   8   9 694.195 161.205   2
  -3  -8 -10 307.093 112.316   2
  -3  -8 -11 948.291 106.966   2
  -3  -8 -12 14814.4 229.248   2
  -3  -8 -13 1788.51 134.982   2
   3   9  -6 11.7896 123.777   2
   3   9  -5-5.56077 172.782   2
   3   9  -4 1139.59 123.018   2
   3   9  -3 157.980 211.134   2
   3   9  -2 835.285 235.388   2
   3   9  -1 7033.18 355.635   2
   3   9   0 5738.03 345.900   2
   3   9   1 7319.14 368.589   2
   3   9   2 1118.88 150.400   2
   3   9   3 1817.84 156.352   2
   3   9   4 3335.56 209.677   2
   3   9   5-119.756 153.785   2
   3   9   6 5505.71 325.264   2
   3   9   7 3752.12 287.695   2
   3   9   8 5750.03 303.840   2
   3   9   9 14.8166 185.848   2
   3   9  10 5332.02 242.593   2
   3  10  -4 694.327 136.520   2
   3  10  -3 393.839 100.942   2
   3  10  -2 1249.83 131.226   2
   3  10  -1 550.459 203.802   2
   3  10   0 364.184 203.914   2
   3  10   1-84.6781 198.455   2
   3  10   2 2504.51 255.828   2
   3  10   3 1159.59 229.157   2
   3  10   4 1554.40 163.264   2
   3  10   5 10963.3 250.762   2
   3  10   6 3401.40 162.374   2
   3  10   7 2381.65 216.882   2
   3  10   8 1701.56 186.233   2
   3  10   9 13140.1 271.049   2
   3  11  -1 193.617 112.950   2
   3  11   0 340.619 97.7158   2
   3  11   1 2740.24 189.298   2
   3  11   2 744.975 158.603   2
   3  11   3 295.544 150.165   2
   3  11   4 2716.45 190.340   2
   3  11   5 509.684 142.235   2
   3  11   6 903.531 128.657   2
  -4   8   6 2345.01 157.071   2
  -4   8   5 1254.08 168.530   2
  -4   8   4 4325.83 230.494   2
  -4   8   3 2253.82 212.167   2
  -4   8   2 1053.36 201.381   2
  -4   8   1 127.126 160.191   2
  -4   8   0 231.777 174.390   2
  -4   8  -1 4656.90 251.878   2
  -4   8  -2-117.516 173.306   2
  -4   8  -3 1117.68 179.126   2
  -4   8  -4 4784.78 205.750   2
  -4   7   8 3305.78 178.849   2
  -4   7   7 3120.76 138.546   2
  -4   7   6 1784.72 145.750   2
  -4   7   5 11005.9 347.611   2
  -4   7   4 4861.22 287.894   2
  -4   7   3 19.5707 209.409   2
  -4   7   2 9757.88 245.180   2
  -4   7   1 15756.1 308.208   2
  -4   7   0 6406.51 233.083   2
  -4   7  -1 2408.03 273.337   2
  -4   7  -2 6973.92 340.702   2
  -4   7  -3 2946.82 278.049   2
  -4   7  -4 51.8684 199.310   2
  -4   7  -5 346.178 180.955   2
  -4   7  -6 122.634 147.297   2
  -4   6  10 3092.37 158.457   2
  -4   6   9 3522.28 204.951   2
  -4   6   8 133.326 107.035   2
  -4   6   7 891.692 134.768   2
  -4   6   6 19495.7 321.253   2
  -4   6   5 411.829 136.353   2
  -4   6   4 131.502 204.359   2
  -4   6   3 3677.54 285.876   2
  -4   6   2 4284.21 204.491   2
  -4   6   1 8161.92 255.690   2
  -4   6   0 2059.04 190.882   2
  -4   6  -1 4808.53 232.812   2
  -4   6  -2 3134.02 206.310   2
  -4   6  -3 137.638 250.208   2
  -4   6  -4 7913.83 375.181   2
  -4   6  -5 2563.14 275.735   2
  -4   6  -6 1461.40 218.136   2
  -4   6  -7 6655.65 243.637   2
  -4   5  10 6617.21 235.800   2
  -4   5   9-44.5344 104.471   2
  -4   5   8 5869.30 198.718   2
  -4   5   7 23655.3 478.012   2
  -4   5   6-85.5469 137.320   2
  -4   5   5 6617.79 230.087   2
  -4   5   4 12192.1 282.349   2
  -4   5   3 2884.80 186.002   2
  -4   5   2 3993.11 157.791   2
  -4   5   1 3645.15 161.219   2
  -4   5   0 8874.12 209.716   2
  -4   5  -1 5651.98 234.135   2
  -4   5  -2 6168.71 242.160   2
  -4   5  -3 3218.71 209.534   2
  -4   5  -4 329.600 252.749   2
  -4   5  -5 521.166 259.878   2
  -4   5  -6 2322.71 173.877   2
  -4   5  -7-80.5767 108.253   2
  -4   5  -8 629.698 95.6177   2
  -4   5  -9-42.5812 90.6324   2
  -4   4  11 7452.29 249.080   2
  -4   4  10 2390.61 219.899   2
  -4   4   9 708.380 131.145   2
  -4   4   8 1939.67 156.115   2
  -4   4   7 5535.12 143.686   2
  -4   4   6 27610.0 510.160   2
  -4   4   5 7250.51 325.388   2
  -4   4   4 8.90521 190.298   2
  -4   4   3 9629.12 235.213   2
  -4   4   2 5438.01 191.671   2
  -4   4   1 23646.2 270.017   2
  -4   4   0 15774.6 230.821   2
  -4   4  -1 24683.4 286.797   2
  -4   4  -2 15122.1 233.587   2
  -4   4  -3-50.7432 119.974   2
  -4   4  -4 10816.8 217.511   2
  -4   4  -5 11710.8 296.426   2
  -4   4  -6 295.746 161.985   2
  -4   4  -7 1234.50 138.631   2
  -4   4  -8 4167.20 158.200   2
  -4   4  -9 2031.76 164.042   2
  -4   4 -10 167.031 109.199   2
  -4   3  12 143.990 117.054   2
  -4   3  11 6480.49 272.753   2
  -4   3  10 7187.85 165.343   2
  -4   3   9 3988.63 209.237   2
  -4   3   8 23728.0 392.195   2
  -4   3   7 52807.7 490.742   2
  -4   3   6 378.431 144.981   2
  -4   3   5 22.7861 184.435   2
  -4   3   4 5846.96 250.601   2
  -4   3   3 546.726 168.831   2
  -4   3   2 8388.63 666.354   2
  -4   3   1 31263.9 1074.96   2
  -4   3   0 16418.8 843.263   2
  -4   3  -1 10894.9 726.879   2
  -4   3  -2 604.251 414.512   2
  -4   3  -3 21559.0 491.416   2
  -4   3  -4 8391.47 252.928   2
  -4   3  -5 555.303 173.076   2
  -4   3  -6 11687.3 237.191   2
  -4   3  -7 10257.9 235.108   2
  -4   3  -8 1774.52 142.917   2
  -4   3  -9 926.455 172.640   2
  -4   3 -10 4374.06 198.670   2
  -4   3 -11 4472.32 244.148   2
  -4   3 -12 78.7390 113.683   2
  -4   2  12 3923.66 192.044   2
  -4   2  11 9465.14 234.017   2
  -4   2  10 1302.15 249.000   2
  -4   2   9 5977.33 345.261   2
  -4   2   8 35813.5 671.932   2
  -4   2   7 11004.9 405.753   2
  -4   2   6 9203.86 233.738   2
  -4   2   5 19433.9 286.160   2
  -4   2   4 1655.06 430.116   2
  -4   2   3 1747.61 406.530   2
  -4   2   2 72921.7 1495.53   2
  -4   2   1 35230.6 1076.31   2
  -4   2   0-16.1348 351.910   2
  -4   2  -1 13393.1 714.920   2
  -4   2  -2 61171.8 1384.75   2
  -4   2  -3 489.027 378.077   2
  -4   2  -4-14.2562 401.996   2
  -4   2  -5 20805.1 285.646   2
  -4   2  -6 8507.36 179.733   2
  -4   2  -7 5560.09 162.986   2
  -4   2  -8 169.487 132.854   2
  -4   2  -9 9443.53 289.775   2
  -4   2 -10 2134.04 196.155   2
  -4   2 -11 985.909 236.361   2
  -4   2 -12 1490.72 196.389   2
  -4   1  12 3598.81 194.879   2
  -4   1  11 7692.56 311.997   2
  -4   1  10 6333.94 347.922   2
  -4   1   9 21136.3 539.597   2
  -4   1   8 20071.2 527.823   2
  -4   1   7 3145.43 290.658   2
  -4   1   6 13541.2 268.311   2
  -4   1   5 8648.83 577.670   2
  -4   1   4 957.869 401.652   2
  -4   1   3 19014.5 834.457   2
  -4   1   2 13032.2 711.995   2
  -4   1   1 7799.30 561.670   2
  -4   1   0 11984.8 657.895   2
  -4   1  -1 50190.2 1192.92   2
  -4   1  -2 678.988 325.498   2
  -4   1  -3 480.695 325.602   2
  -4   1  -4 40366.0 1045.20   2
  -4   1  -5 91.0848 372.681   2
  -4   1  -6 7060.05 243.039   2
  -4   1  -7 10921.8 198.741   2
  -4   1  -8 8087.58 184.167   2
  -4   1  -9 6133.07 201.901   2
  -4   1 -10 3844.82 174.336   2
  -4   1 -11 2046.73 280.259   2
  -4   1 -12 611.352 212.002   2
  -4   1 -13 82.1266 143.443   2
  -4   0  12 4446.83 200.642   2
  -4   0  11 466.371 203.686   2
  -4   0  10 2052.60 279.362   2
  -4   0   9 23750.8 560.736   2
  -4   0   8 3177.12 308.127   2
  -4   0   7 3780.35 299.972   2
  -4   0   6 978.847 185.293   2
  -4   0   5 11834.8 716.971   2
  -4   0   4 9560.54 683.442   2
  -4   0   3 35323.1 1108.53   2
  -4   0   2 14929.3 755.188   2
  -4   0   1 45998.3 1175.32   2
  -4   0   0 71283.8 1398.87   2
  -4   0  -1 10558.2 604.117   2
  -4   0  -2 36180.5 985.607   2
  -4   0  -3 44134.1 1046.33   2
  -4   0  -4 12263.3 256.104   2
  -4   0  -5 19419.7 339.795   2
  -4   0  -6 16552.3 405.634   2
  -4   0  -7 11135.4 194.601   2
  -4   0  -8 12486.3 217.528   2
  -4   0  -9 3471.19 155.908   2
  -4   0 -10 3056.60 174.514   2
  -4   0 -11 578.390 156.440   2
  -4   0 -12 3822.91 177.263   2
  -4   0 -13 1811.97 194.608   2
  -4  -1  12 244.007 121.095   2
   4   1 -11-48.9716 103.262   2
   4   1 -10 21840.7 312.539   2
  -4  -1   9 342.154 251.397   2
   4   1  -8 639.090 166.374   2
   4   1  -7 6210.54 306.649   2
   4   1  -6 35749.5 539.510   2
  -4  -1   5 2831.48 538.965   2
  -4  -1   3 15279.2 793.440   2
  -4  -1   2 29601.5 410.384   2
  -4  -1   1 60481.4 575.844   2
  -4  -1   0 63094.7 590.832   2
  -4  -1  -1 22874.2 823.654   2
  -4  -1  -2 14067.8 649.142   2
  -4  -1  -3 15448.0 277.832   2
  -4  -1  -4 23781.7 356.889   2
  -4  -1  -5 35658.6 448.412   2
  -4  -1  -6 1332.95 208.246   2
  -4  -1  -7 59138.7 582.237   2
  -4  -1  -8 11033.4 207.139   2
  -4  -1  -9 5762.44 259.313   2
  -4  -1 -10 1750.54 202.458   2
  -4  -1 -11 8501.61 273.214   2
  -4  -1 -12 6597.48 224.921   2
  -4  -1 -13 1246.43 123.719   2
   4   2 -11 9489.59 178.628   2
   4   2 -10 2393.52 214.169   2
   4   2  -7 7360.87 333.394   2
   4   2  -6 190.297 232.046   2
   4   2  -5 405.964 212.379   2
  -4  -2   4 61997.8 764.446   2
  -4  -2   3 9819.88 225.270   2
  -4  -2   2 20051.7 415.914   2
  -4  -2   1 210206. 1254.18   2
  -4  -2   0 297578. 1502.53   2
  -4  -2  -1 7547.39 298.321   2
  -4  -2  -2 48103.9 549.169   2
  -4  -2  -3 9604.69 283.254   2
  -4  -2  -4 793.644 147.605   2
  -4  -2  -5 42564.4 618.015   2
  -4  -2  -6 45810.0 679.792   2
  -4  -2  -7-5.51330 193.291   2
  -4  -2  -8 24.9826 128.129   2
  -4  -2  -9 3654.75 181.966   2
  -4  -2 -10 2333.52 169.528   2
  -4  -2 -11 851.389 182.598   2
  -4  -2 -12 331.774 149.903   2
  -4  -2 -13 12116.0 230.098   2
  -4  -2 -14 458.601 122.887   2
   4   3 -11 2801.22 157.527   2
   4   3 -10 348.379 172.350   2
  -4  -3   6 2491.52 250.107   2
   4   3  -5 29646.9 394.352   2
  -4  -3   4 163.897 143.262   2
  -4  -3   3 5743.32 208.753   2
  -4  -3   2 7478.20 224.233   2
  -4  -3   1 21954.6 329.123   2
  -4  -3   0 3018.57 250.866   2
  -4  -3  -1 17715.5 431.544   2
  -4  -3  -2 10242.8 350.288   2
  -4  -3  -3 4258.63 269.740   2
  -4  -3  -4 86860.6 732.944   2
  -4  -3  -5 71112.3 822.553   2
  -4  -3  -6 10686.0 383.342   2
  -4  -3  -7 755.321 217.789   2
  -4  -3  -8 15990.2 356.156   2
  -4  -3  -9 7216.51 276.822   2
  -4  -3 -10 3110.39 221.627   2
  -4  -3 -11 3790.60 223.217   2
  -4  -3 -12 21560.4 545.493   2
  -4  -3 -13 66.2161 194.149   2
  -4  -3 -14 1093.29 160.700   2
  -4  -4   7 2284.15 236.552   2
  -4  -4   6 10107.9 390.196   2
  -4  -4   5 2358.76 286.361   2
  -4  -4   4 6258.68 228.339   2
  -4  -4   3 4288.33 209.210   2
  -4  -4   2 1388.77 162.751   2
  -4  -4   1 39774.5 458.443   2
  -4  -4   0 15549.9 303.997   2
  -4  -4  -1 163.136 142.298   2
  -4  -4  -2 154.363 202.288   2
  -4  -4  -3 39074.2 637.439   2
  -4  -4  -4 1600.59 232.394   2
  -4  -4  -5 1950.08 233.951   2
  -4  -4  -6 7487.64 351.788   2
  -4  -4  -7 5028.28 227.120   2
  -4  -4  -8 147.036 158.733   2
  -4  -4  -9 348.986 174.417   2
  -4  -4 -10 14118.6 357.923   2
  -4  -4 -11 4779.09 240.472   2
  -4  -4 -12 6569.95 365.650   2
  -4  -4 -13 7442.18 328.131   2
  -4  -4 -14 3426.16 204.453   2
  -4  -5   6 4945.55 312.209   2
   4   5  -5 5000.11 231.885   2
   4   5  -4 942.726 166.303   2
  -4  -5   3 1692.78 143.019   2
   4   5  -2 26389.8 269.262   2
  -4  -5   1 4424.55 220.282   2
  -4  -5   0 8078.51 253.592   2
  -4  -5  -1 21228.6 348.927   2
  -4  -5  -2 77803.2 947.917   2
  -4  -5  -3 11382.5 410.115   2
  -4  -5  -4 11492.4 409.621   2
  -4  -5  -5 23120.6 516.024   2
  -4  -5  -6 181.267 192.207   2
  -4  -5  -7 2485.71 200.043   2
  -4  -5  -8 882.947 255.868   2
  -4  -5  -9 27402.9 464.459   2
  -4  -5 -10 2557.86 219.172   2
  -4  -5 -11 9490.20 429.279   2
  -4  -5 -12 21119.1 532.084   2
  -4  -5 -13 5698.24 292.580   2
  -4  -5 -14 401.473 107.582   2
   4   6  -5 49.0181 150.934   2
   4   6  -4 3384.91 172.221   2
   4   6  -3 9335.43 197.151   2
   4   6  -2 171.336 113.036   2
   4   6  -1 9692.12 191.118   2
   4   6   0 14047.6 211.732   2
   4   6   1 30273.6 349.375   2
   4   6   2 7911.06 202.711   2
   4   6   3 1236.89 174.464   2
   4   6   4 10002.6 285.401   2
   4   6   5 1017.65 178.024   2
   4   6   6 23076.6 385.033   2
  -4  -6  -7 10715.2 288.802   2
  -4  -6  -8 73411.6 575.949   2
  -4  -6  -9 3614.50 232.411   2
  -4  -6 -10 19385.4 384.823   2
  -4  -6 -11 15218.9 334.101   2
  -4  -6 -12-28.0238 154.615   2
  -4  -6 -13 2803.05 158.414   2
  -4  -6 -14 2823.89 114.520   2
   4   7  -6 1050.70 198.219   2
   4   7  -5 4819.61 271.285   2
   4   7  -4 1179.56 166.976   2
  -4  -7   3 16.7589 107.985   2
   4   7  -2 4181.50 155.910   2
   4   7  -1 2330.43 172.413   2
   4   7   0 6493.81 247.990   2
   4   7   1 11021.7 285.845   2
   4   7   2 3382.67 224.011   2
   4   7   3 3724.10 228.384   2
   4   7   4 3302.30 216.904   2
   4   7   5 10416.6 299.566   2
  -4  -7  -6 2005.47 186.636   2
  -4  -7  -7 69241.3 701.545   2
  -4  -7  -8 327.254 188.447   2
  -4  -7  -9 1467.02 154.782   2
  -4  -7 -10 6653.88 242.605   2
  -4  -7 -11 2810.85 185.573   2
  -4  -7 -12 17469.3 285.745   2
  -4  -7 -13 5220.63 154.038   2
   4   8  -6 1029.62 118.454   2
   4   8  -4 1782.33 149.663   2
   4   8  -3 11222.0 247.813   2
   4   8  -2 2073.40 167.514   2
  -4  -8   1 410.043 122.295   2
   4   8   0 16527.4 286.156   2
   4   8   1 1800.00 212.836   2
  -4  -8  -2 237.802 179.676   2
   4   8   3 2732.50 216.982   2
   4   8   4 1607.31 197.349   2
  -4  -8  -5 106.481 167.156   2
   4   8   6 18884.4 538.952   2
  -4  -8  -7 18897.6 385.561   2
   4   8   8 1720.00 277.092   2
   4   8   9 57.9180 233.021   2
   4   8  10 16313.0 446.176   2
  -4  -8 -11 12547.3 234.288   2
  -4  -8 -12 135.442 96.3829   2
   4   9  -3 941.927 199.624   2
   4   9  -2 2143.95 252.579   2
   4   9  -1 361.124 216.780   2
   4   9   0 362.045 242.258   2
   4   9   1 80.8430 227.115   2
   4   9   2 2994.03 299.924   2
   4   9   3 2455.02 295.760   2
   4   9   4 163.236 227.970   2
   4   9   5 696.978 240.005   2
   4   9   6 28315.0 593.079   2
   4   9   7 1884.54 259.957   2
   4   9   8 886.059 239.653   2
   4   9   9 19722.1 441.157   2
   4   9  10 7189.06 277.447   2
   4   9  11 3353.96 187.708   2
   4  10  -3 1689.06 144.183   2
   4  10  -2 499.873 99.2799   2
   4  10  -1 1172.79 193.087   2
   4  10   0 7272.21 305.260   2
   4  10   1 1329.95 225.900   2
   4  10   2 85.7358 205.509   2
   4  10   3 62.8278 204.538   2
   4  10   4 1380.27 233.606   2
   4  10   5 11185.0 365.910   2
   4  10   6 352.633 193.827   2
   4  10   7 623.181 194.459   2
   4  10   8 10634.4 305.966   2
   4  10   9 1831.93 173.848   2
   4  10  10 2281.42 135.361   2
   4  11   0 249.488 79.8268   2
   4  11   1 51.3595 128.742   2
   4  11   2 949.047 156.157   2
   4  11   3 132.769 145.056   2
   4  11   4 3311.68 195.430   2
   4  11   5 685.318 149.377   2
   4  11   6 6136.28 208.059   2
   4  11   7 5285.13 174.708   2
  -5   7   6 15283.4 272.723   2
  -5   7   5 8332.77 252.800   2
  -5   7   4 127.179 159.447   2
  -5   7   3 1189.61 190.007   2
  -5   7   2 5134.60 257.955   2
  -5   7   1 965.838 125.171   2
  -5   7   0 1638.41 139.635   2
  -5   7  -1-92.3960 178.100   2
  -5   7  -2 2994.78 225.661   2
  -5   7  -3 354.040 180.557   2
  -5   7  -4 483.816 154.502   2
  -5   7  -5 1316.96 140.139   2
  -5   6   7 20461.5 342.551   2
  -5   6   6 4862.71 234.625   2
  -5   6   5 892.173 197.887   2
  -5   6   4 2961.69 252.456   2
  -5   6   3 262.734 205.818   2
  -5   6   2 4974.38 298.246   2
  -5   6   1 17389.1 307.213   2
  -5   6   0 1661.16 171.390   2
  -5   6  -1 9270.66 252.626   2
  -5   6  -2 628.570 230.480   2
  -5   6  -3 2174.57 257.349   2
  -5   5   8 18181.6 330.620   2
  -5   5   7 664.678 173.032   2
  -5   5   6 6425.10 297.634   2
  -5   5   5 5337.99 206.016   2
  -5   5   4-30.8162 142.920   2
  -5   5   3 2356.07 183.390   2
  -5   5   2 7751.57 245.131   2
  -5   5   1 1264.36 135.887   2
  -5   5   0 18918.9 344.984   2
  -5   5  -1-4.08920 156.704   2
  -5   5  -2-156.374 157.848   2
  -5   5  -3 937.686 214.363   2
  -5   4   9 3011.54 166.715   2
  -5   4   8 5629.54 244.854   2
  -5   4   7 7476.70 204.782   2
  -5   4   6 14119.4 281.165   2
  -5   4   5 411.641 156.613   2
  -5   4   4 9526.65 262.139   2
  -5   4   3 10246.7 268.854   2
  -5   4   2 1188.55 167.612   2
  -5   4   1 300.495 124.677   2
  -5   4   0 13947.9 240.725   2
  -5   4  -1 1652.91 116.900   2
  -5   4  -2 59.1278 109.233   2
  -5   4  -3 6944.50 222.644   2
  -5   4  -4 21866.7 502.559   2
  -5   3  10-60.8493 102.660   2
  -5   3   9 26543.0 293.321   2
  -5   3   8 7583.90 296.826   2
  -5   3   7 1888.67 153.283   2
  -5   3   6 8805.86 319.231   2
  -5   3   5 1720.27 241.651   2
  -5   3   4 280.844 212.377   2
  -5   3   3 2237.88 244.727   2
  -5   3   2 1939.28 135.679   2
  -5   3   1 7742.86 157.266   2
  -5   3   0 4770.70 138.526   2
  -5   3  -1 702.882 119.674   2
  -5   3  -2 11436.6 254.172   2
  -5   3  -3 14181.8 444.511   2
  -5   3  -4 15503.7 470.284   2
  -5   2  10 12824.4 164.751   2
  -5   2   9 2639.23 159.591   2
  -5   2   8 381.636 146.809   2
  -5   2   7 17581.6 297.408   2
  -5   2   6 12641.8 269.150   2
  -5   2   5-111.024 192.079   2
  -5   2   4 11695.0 352.594   2
  -5   2   3 32282.1 378.074   2
  -5   2   2 8661.42 223.032   2
  -5   2   1 1962.87 126.557   2
  -5   2   0 21145.0 308.373   2
  -5   2  -1 57235.5 387.096   2
  -5   2  -2 27494.2 500.979   2
  -5   2  -3 19417.6 443.843   2
  -5   2  -4 3566.06 623.331   2
  -5   1  11 5065.04 169.910   2
  -5   1  10 227.313 115.298   2
  -5   1   9 964.420 229.864   2
  -5   1   8 8735.28 362.225   2
  -5   1   7 3247.10 181.027   2
  -5   1   6 679.585 149.326   2
  -5   1   5 2479.19 177.088   2
  -5   1   4 21256.1 425.440   2
  -5   1   3 541.862 137.773   2
  -5   1   2 3030.27 163.609   2
  -5   1   1 26879.0 338.399   2
  -5   1   0 25383.7 1020.61   2
  -5   1  -1 2682.86 471.664   2
  -5   1  -2 5233.33 266.682   2
  -5   1  -3 203.594 189.799   2
  -5   1  -4 7292.25 301.003   2
  -5   1  -5 15717.7 750.034   2
  -5   0  11-73.1078 81.5925   2
  -5   0  10 4317.09 251.948   2
  -5   0   9 4896.08 302.712   2
  -5   0   8 1676.67 260.315   2
  -5   0   7 5607.49 206.943   2
  -5   0   6 5059.06 209.018   2
  -5   0   5 8232.20 336.260   2
  -5   0   4 1682.93 621.473   2
  -5   0   3 824.127 177.591   2
  -5   0   2 18199.5 396.982   2
  -5   0   1 11824.4 778.780   2
  -5   0   0 6936.17 585.365   2
  -5   0  -1 28687.0 1039.94   2
  -5   0  -2 10224.5 694.788   2
  -5   0  -3 5714.88 589.241   2
  -5   0  -4 56033.0 671.152   2
  -5   0 -12 3419.09 225.750   2
  -5   0 -13 1100.55 122.299   2
  -5  -1  11 2591.44 155.560   2
  -5  -1  10-4.32163 180.228   2
  -5  -1   9 115.955 219.242   2
  -5  -1   8 4629.09 310.827   2
  -5  -1   7 645.843 115.436   2
  -5  -1   6 329.498 138.085   2
   5   1  -5 8527.08 309.598   2
  -5  -1   4 2616.71 237.748   2
  -5  -1   3 17592.4 379.854   2
  -5  -1   2 717.474 195.818   2
  -5  -1   1 55662.5 1500.15   2
  -5  -1   0 23470.7 1026.99   2
  -5  -1  -1 7956.15 650.544   2
  -5  -1  -2 19853.7 881.918   2
  -5  -1  -3 25473.2 919.725   2
  -5  -1  -4 17555.2 727.961   2
  -5  -1  -5 4130.28 299.326   2
  -5  -1 -10 16461.6 491.183   2
  -5  -1 -11 3115.65 278.448   2
  -5  -1 -12 160.389 123.803   2
  -5  -1 -13-26.5194 123.551   2
   5   2 -10 168.953 89.7800   2
   5   2  -9 6961.25 194.000   2
   5   2  -8 1551.58 166.489   2
   5   2  -7 1009.16 224.812   2
   5   2  -6 11934.1 375.480   2
   5   2  -5 5364.24 297.175   2
  -5  -2   4 1977.47 247.277   2
  -5  -2   3 1906.90 239.945   2
  -5  -2   2 28889.7 475.189   2
  -5  -2   1 1754.32 194.219   2
  -5  -2   0 393.578 180.444   2
  -5  -2  -1 54891.8 1446.00   2
  -5  -2  -2 19138.8 862.939   2
  -5  -2  -3 1517.38 390.540   2
  -5  -2  -4 42026.3 1092.69   2
  -5  -2  -5 61280.8 726.172   2
  -5  -2  -6 634.160 133.837   2
  -5  -2  -7 1528.87 167.587   2
  -5  -2  -8 4687.62 227.547   2
  -5  -2  -9 11548.0 296.115   2
  -5  -2 -10 2754.25 209.958   2
  -5  -2 -11 1123.58 166.369   2
  -5  -2 -12 7679.59 209.830   2
  -5  -2 -13 6149.05 238.445   2
   5   3 -10 4197.83 116.340   2
   5   3  -9 107.637 118.762   2
   5   3  -8 2087.40 171.219   2
   5   3  -7 1423.91 240.017   2
   5   3  -6 1667.18 249.260   2
   5   3  -5-58.5789 233.624   2
  -5  -3   3 36970.5 423.826   2
  -5  -3   2 3084.29 250.011   2
  -5  -3   1 3279.10 189.242   2
  -5  -3   0 73142.4 892.347   2
  -5  -3  -1 10628.7 347.473   2
  -5  -3  -2 236.074 187.576   2
  -5  -3  -3 33941.8 554.306   2
  -5  -3  -4 31578.2 479.418   2
  -5  -3  -5 4543.75 203.279   2
  -5  -3  -6 206.732 181.125   2
  -5  -3  -7 12537.6 420.794   2
  -5  -3  -8 2337.95 192.293   2
  -5  -3  -9 267.514 167.368   2
  -5  -3 -10 689.708 166.544   2
  -5  -3 -11 3875.62 311.969   2
  -5  -3 -12 2037.62 257.002   2
  -5  -3 -13 288.024 163.790   2
   5   4  -9 573.037 110.039   2
   5   4  -8 688.677 139.482   2
   5   4  -7 269.816 227.969   2
   5   4  -6 9784.94 370.450   2
   5   4  -5 6020.27 327.615   2
   5   4  -4 8354.46 360.486   2
  -5  -4   3 2100.73 229.605   2
  -5  -4   2 4715.25 315.782   2
  -5  -4   1 10670.5 412.160   2
  -5  -4   0 851.540 244.719   2
  -5  -4  -1 6272.28 349.981   2
  -5  -4  -2 34726.7 432.975   2
  -5  -4  -3 8843.80 336.877   2
  -5  -4  -4 17269.5 499.720   2
  -5  -4  -5 1635.78 162.234   2
  -5  -4  -6 15497.8 332.677   2
  -5  -4  -7 247.089 156.894   2
  -5  -4  -8 1565.28 187.380   2
  -5  -4  -9 4637.81 232.975   2
  -5  -4 -10 5604.81 239.843   2
  -5  -4 -11 3684.81 312.335   2
  -5  -4 -12 6984.38 336.823   2
  -5  -4 -13 9973.47 313.741   2
  -5  -4 -14 259.985 75.7989   2
   5   5  -9 362.872 110.429   2
   5   5  -7 3684.85 254.794   2
   5   5  -6 2706.83 260.585   2
   5   5  -5 10135.7 376.026   2
   5   5  -4 245.518 231.691   2
  -5  -5   3 4617.66 307.959   2
  -5  -5   2 5308.66 336.754   2
  -5  -5   1 152.103 240.643   2
   5   5   0 4563.83 177.254   2
   5   5   1 18545.4 347.799   2
   5   5   2 208.529 167.343   2
   5   5   3 13736.2 311.563   2
  -5  -5  -4 1177.05 174.531   2
   5   5   5 4318.53 222.665   2
  -5  -5  -6 12415.5 250.213   2
  -5  -5  -7 12181.4 259.558   2
  -5  -5  -8 5240.20 246.382   2
  -5  -5  -9 510.682 169.401   2
  -5  -5 -10 10697.5 428.411   2
  -5  -5 -11 6456.09 344.714   2
  -5  -5 -12 13483.6 278.445   2
  -5  -5 -13 1646.76 134.458   2
   5   6  -8 1195.29 127.514   2
   5   6  -7 243.086 164.333   2
   5   6  -6 144.216 195.499   2
   5   6  -5 2267.85 248.804   2
   5   6  -4 794.683 153.929   2
   5   6  -3 1474.75 147.105   2
   5   6  -2 5719.60 234.610   2
   5   6  -1 7915.12 267.784   2
   5   6   0 998.819 186.836   2
   5   6   1 21665.7 511.216   2
   5   6   2 27639.0 394.339   2
   5   6   3 2651.56 170.220   2
   5   6   4 382.631 142.614   2
   5   6   5 5393.02 253.739   2
   5   6   6 5860.57 363.611   2
  -5  -6  -7 9731.41 306.038   2
  -5  -6  -8 1996.45 158.770   2
  -5  -6  -9 11086.2 246.104   2
  -5  -6 -10 5505.45 231.572   2
  -5  -6 -11 4929.80 210.002   2
  -5  -6 -12 10029.9 230.576   2
  -5  -6 -13 9646.10 182.372   2
   5   7  -7 267.332 102.648   2
   5   7  -6 3052.77 191.324   2
   5   7  -5 1230.26 200.642   2
   5   7  -4 886.456 223.024   2
   5   7  -3 2203.13 179.462   2
   5   7  -2 3112.47 161.895   2
   5   7  -1 791.758 181.175   2
   5   7   0 6775.21 200.084   2
   5   7   1 7686.97 211.392   2
   5   7   2 10038.7 230.775   2
   5   7   3 263.245 137.721   2
   5   7   4 8223.65 220.133   2
   5   7   5 3665.03 177.167   2
   5   7   6 1179.26 177.089   2
  -5  -7  -7 27765.2 450.896   2
  -5  -7  -8 20966.5 397.250   2
  -5  -7  -9 74.6847 149.094   2
  -5  -7 -10 73.2385 138.074   2
  -5  -7 -11 13118.8 253.080   2
  -5  -7 -12 5650.52 163.281   2
   5   7  13 263.534 113.594   2
   5   8  -4 2770.83 187.283   2
   5   8  -3 2738.71 152.259   2
   5   8  -2 307.314 137.482   2
   5   8  -1 8158.68 229.053   2
   5   8   0 1209.02 248.213   2
  -5  -8  -1 172.437 166.072   2
   5   8   2 3141.24 224.033   2
   5   8   3 2746.63 217.366   2
  -5  -8  -4 1026.07 182.070   2
   5   8   5 204.153 146.162   2
   5   8   6 9711.37 255.450   2
   5   8   7 10543.5 254.927   2
   5   8   8 7374.77 224.736   2
   5   8   9 354.576 213.606   2
   5   8  10 9716.48 207.363   2
   5   8  11 1631.24 116.040   2
   5   8  12 7472.72 212.477   2
   5   9  -2 291.642 165.483   2
   5   9  -1 1080.15 207.359   2
   5   9   0 228.238 198.643   2
   5   9   1 4153.58 288.334   2
   5   9   2 2946.51 264.568   2
   5   9   3 443.847 224.469   2
   5   9   4 664.303 227.986   2
   5   9   5 9691.42 379.014   2
   5   9   6 999.711 226.826   2
   5   9   7 1053.05 231.177   2
   5   9   8 3371.74 252.968   2
   5   9   9 2554.84 221.096   2
   5   9  10 18.7927 158.938   2
   5   9  11 4885.81 176.251   2
   5  10  -1 819.413 138.970   2
   5  10   0 4448.23 216.167   2
   5  10   1 1102.65 181.214   2
   5  10   2 39.7760 163.436   2
   5  10   3 244.458 168.693   2
   5  10   4 2629.15 225.164   2
   5  10   5 4466.56 249.506   2
   5  10   6 703.763 179.283   2
   5  10   7 3885.96 230.286   2
   5  10   8 545.913 161.584   2
   5  10   9 1401.78 141.241   2
   5  11   2 577.345 110.665   2
   5  11   3 664.312 126.791   2
   5  11   4 6211.36 194.316   2
   5  11   5 901.682 126.964   2
   5  11   6 3214.19 145.189   2
  -6   6   5 3446.01 167.338   2
  -6   6   4 4033.78 200.179   2
  -6   6   3 256.526 152.545   2
  -6   6   2 11585.1 300.998   2
  -6   6   1 10119.5 288.463   2
  -6   6   0 621.198 162.088   2
  -6   6  -1 3650.64 208.584   2
  -6   6  -2 2653.07 200.774   2
  -6   6  -3 54.9499 156.481   2
  -6   5   7 1734.77 126.954   2
  -6   5   6 1562.68 163.177   2
  -6   5   5 1273.80 174.554   2
  -6   5   4 1672.52 196.693   2
  -6   5   3 2855.62 238.809   2
  -6   5   2 3173.10 240.486   2
  -6   5   1 2779.64 241.777   2
  -6   5   0 760.647 133.080   2
  -6   5  -1 781.317 135.972   2
  -6   5  -2 417.688 129.258   2
  -6   5  -3 96.7225 204.665   2
  -6   5  -4 4470.35 259.865   2
  -6   5  -5 5837.95 257.920   2
  -6   4   8 1875.97 128.079   2
  -6   4   7 1277.62 157.740   2
  -6   4   6 1032.03 124.941   2
  -6   4   5 7427.46 209.881   2
  -6   4   4 5159.43 200.538   2
  -6   4   3 259.739 142.490   2
  -6   4   2 1043.22 159.517   2
  -6   4   1 12407.3 270.933   2
  -6   4   0 1945.60 111.022   2
  -6   4  -1 1429.26 105.606   2
  -6   4  -2 1082.79 117.900   2
  -6   4  -3 607.633 142.928   2
  -6   4  -4 1153.05 151.971   2
  -6   4  -5 209.984 127.830   2
  -6   4  -6 5163.07 173.695   2
  -6   4  -7 395.918 131.154   2
  -6   3   8 308.390 132.476   2
  -6   3   7 674.977 167.420   2
  -6   3   6 14303.2 256.185   2
  -6   3   5 4792.37 195.381   2
  -6   3   4 175.873 146.356   2
  -6   3   3 4265.27 201.772   2
  -6   3   2 27386.4 388.258   2
  -6   3   1 4340.13 162.779   2
  -6   3   0 4830.08 143.420   2
  -6   3  -1 16917.9 217.455   2
  -6   3  -2 4574.58 138.005   2
  -6   3  -3 827.295 168.380   2
  -6   3  -4 2982.76 197.428   2
  -6   3  -5 17946.0 333.925   2
  -6   3  -6 984.427 167.623   2
  -6   3  -7 4859.17 268.617   2
  -6   3  -8 2647.91 207.423   2
  -6   3  -9 33.3021 137.286   2
  -6   2   9 2062.47 138.385   2
  -6   2   8 5896.54 236.339   2
  -6   2   7 12214.8 293.828   2
  -6   2   6 1940.56 217.160   2
  -6   2   5 592.777 212.485   2
  -6   2   4 2016.27 242.058   2
  -6   2   3 10552.8 384.403   2
  -6   2   2 17248.0 317.594   2
  -6   2   1 1140.48 131.430   2
  -6   2   0 11234.8 218.228   2
  -6   2  -1 1814.96 119.266   2
  -6   2  -2 1377.19 132.861   2
  -6   2  -3 2172.71 201.561   2
  -6   2  -4 31246.4 454.161   2
  -6   2  -5 14119.9 325.943   2
  -6   2  -6 14468.1 318.637   2
  -6   2  -7 7046.94 344.420   2
  -6   2  -8 583.697 223.942   2
  -6   2  -9 1830.63 211.980   2
  -6   2 -10 2405.60 185.793   2
  -6   1   9 2497.24 162.848   2
  -6   1   8 2812.39 202.991   2
  -6   1   7 36.6703 115.542   2
  -6   1   6 12679.4 249.741   2
  -6   1   5 12175.7 371.782   2
  -6   1   4 5829.06 317.125   2
  -6   1   3 37842.5 629.749   2
  -6   1   2 10625.3 271.551   2
  -6   1   1 11021.5 278.549   2
  -6   1   0 1433.51 175.107   2
  -6   1  -1 20108.1 265.460   2
  -6   1  -2 3128.79 156.823   2
  -6   1  -3 29775.0 439.068   2
  -6   1  -4 32765.6 463.833   2
  -6   1  -5 2185.80 208.340   2
  -6   1  -6 4955.06 339.748   2
  -6   1  -7 89.7688 240.320   2
  -6   1  -8 124.823 230.358   2
  -6   1  -9 1039.67 225.914   2
  -6   1 -10 1196.96 199.165   2
  -6   1 -11 1163.14 150.922   2
  -6   0   9 2216.46 176.905   2
  -6   0   8 217.523 177.002   2
  -6   0   7 8653.62 203.476   2
  -6   0   6 9242.28 234.886   2
  -6   0   5 595.189 152.043   2
  -6   0   4 22753.1 343.587   2
  -6   0   3 1310.74 242.638   2
  -6   0   2 7.66396 115.675   2
  -6   0   1 9362.36 263.997   2
  -6   0   0 11244.7 263.600   2
  -6   0  -1 26.3388 147.478   2
  -6   0  -2 17269.6 297.129   2
  -6   0  -3 63177.7 757.837   2
  -6   0  -4-76.3523 241.270   2
  -6   0  -5-71.1053 233.979   2
  -6   0  -6 12103.2 460.984   2
  -6   0  -7 7698.37 285.849   2
  -6   0  -8 228.080 165.075   2
  -6   0  -9-6.70980 222.954   2
  -6   0 -10 6527.75 303.573   2
  -6   0 -11 1326.66 175.392   2
  -6   0 -12 394.626 107.122   2
  -6  -1   9-30.7426 151.467   2
  -6  -1   8 460.292 191.841   2
  -6  -1   7 238.332 120.985   2
  -6  -1   6 4609.72 196.881   2
  -6  -1   5 18377.4 444.760   2
  -6  -1   4 6210.25 317.652   2
  -6  -1   3 468.998 208.880   2
  -6  -1   2 2737.46 255.204   2
  -6  -1   1 17980.4 301.284   2
  -6  -1   0 839.292 148.766   2
  -6  -1  -1 723.855 154.277   2
  -6  -1  -2 96961.6 627.448   2
  -6  -1  -3 3655.27 194.099   2
  -6  -1  -4 3468.37 201.604   2
  -6  -1  -5 14362.5 339.904   2
  -6  -1  -6 5300.02 250.530   2
  -6  -1  -7 2120.42 211.193   2
  -6  -1  -8 141.485 170.216   2
  -6  -1  -9 13244.0 314.271   2
  -6  -1 -10-101.906 138.078   2
  -6  -1 -11 1911.99 197.136   2
  -6  -1 -12 4072.21 165.575   2
  -6  -2   9 1672.66 164.449   2
  -6  -2   8 292.681 183.488   2
  -6  -2   7 12355.0 178.095   2
  -6  -2   6 12554.9 236.113   2
   6   2  -5 38.2617 188.933   2
   6   2  -4 9343.34 321.943   2
  -6  -2   3 46.0274 220.100   2
  -6  -2   2 17604.2 455.007   2
  -6  -2   1 38149.4 422.009   2
  -6  -2   0 5711.85 215.999   2
  -6  -2  -1 46845.0 458.978   2
  -6  -2  -2 5970.06 218.897   2
  -6  -2  -3 459.230 155.623   2
  -6  -2  -4 14889.2 257.362   2
  -6  -2  -5 8605.07 286.634   2
  -6  -2  -6 4378.89 232.990   2
  -6  -2  -7 2490.14 200.225   2
  -6  -2  -8 38653.1 507.562   2
  -6  -2  -9 89.8584 156.924   2
  -6  -2 -10 2654.30 180.137   2
  -6  -2 -11 7795.40 202.338   2
  -6  -2 -12 1791.40 103.535   2
  -6  -3   9 200.557 116.462   2
   6   3  -8 4039.06 135.984   2
   6   3  -7 1325.80 140.748   2
  -6  -3   6 420.671 135.713   2
   6   3  -5 12720.6 366.902   2
   6   3  -4 3933.45 275.514   2
  -6  -3   3 143.035 235.404   2
  -6  -3   2 13836.6 434.382   2
  -6  -3   1 46962.4 697.789   2
  -6  -3   0 62688.7 525.077   2
  -6  -3  -1 6630.43 227.549   2
  -6  -3  -2 7116.63 227.394   2
  -6  -3  -3 1057.73 166.590   2
  -6  -3  -4 5174.83 180.155   2
  -6  -3  -5 24358.3 387.025   2
  -6  -3  -6 1857.33 184.834   2
  -6  -3  -7 15862.8 330.284   2
  -6  -3  -8 7464.77 257.301   2
  -6  -3  -9 4563.79 208.532   2
  -6  -3 -10 1416.81 258.741   2
  -6  -3 -11 41.3764 196.316   2
  -6  -3 -12 6557.94 166.449   2
   6   4  -8-27.7438 82.8917   2
   6   4  -7 2714.60 149.177   2
   6   4  -6 9960.81 317.393   2
   6   4  -5 207.371 217.176   2
   6   4  -4 794.977 234.596   2
  -6  -4   3 954.488 247.243   2
  -6  -4   2 3414.58 189.046   2
  -6  -4   1 2664.63 199.625   2
  -6  -4   0 4490.34 225.864   2
  -6  -4  -1 7260.57 261.526   2
  -6  -4  -2 4625.93 299.699   2
  -6  -4  -3 756.508 262.998   2
  -6  -4  -4 19139.5 499.833   2
  -6  -4  -5 17930.6 488.052   2
  -6  -4  -6 16577.5 490.628   2
  -6  -4  -7 16520.4 336.607   2
  -6  -4  -8 9966.04 281.045   2
  -6  -4  -9 3228.23 200.770   2
  -6  -4 -10 299.485 155.275   2
  -6  -4 -11 9855.01 238.449   2
  -6  -4 -12 727.739 115.723   2
  -6  -4 -13 91.8168 113.118   2
   6   5  -6 366.409 184.231   2
   6   5  -5 1857.15 236.508   2
   6   5  -4 234.376 212.260   2
  -6  -5   2 547.845 175.381   2
  -6  -5   1 5374.07 230.745   2
  -6  -5   0 1546.30 185.232   2
  -6  -5  -1 572.730 247.431   2
  -6  -5  -2 1399.63 271.095   2
  -6  -5  -3 837.132 182.542   2
  -6  -5  -4 1689.66 167.170   2
  -6  -5  -5 46.7330 129.332   2
  -6  -5  -6 21450.9 297.996   2
  -6  -5  -7 6235.60 193.093   2
  -6  -5  -8 244.407 153.352   2
  -6  -5  -9 6743.44 240.316   2
  -6  -5 -10 6311.25 216.125   2
  -6  -5 -11 2990.68 165.000   2
  -6  -5 -12 4031.65 148.976   2
  -6  -5 -13 769.483 117.949   2
   6   6  -6 1349.89 161.237   2
   6   6  -5 174.813 175.963   2
   6   6  -4 354.520 210.722   2
   6   6  -3 1776.62 232.543   2
  -6  -6   2 2146.05 262.584   2
  -6  -6   1 137.915 157.655   2
  -6  -6   0 4622.83 226.057   2
  -6  -6  -1 10422.8 291.214   2
   6   6   2 4365.23 177.605   2
   6   6   3 836.666 142.901   2
  -6  -6  -4 7594.22 213.929   2
  -6  -6  -5 11417.4 240.524   2
  -6  -6  -6-118.947 132.640   2
   6   6   7 5951.29 333.046   2
  -6  -6  -8 6877.14 225.399   2
  -6  -6  -9 1385.29 160.234   2
  -6  -6 -10 2230.92 160.208   2
  -6  -6 -11 5092.46 170.487   2
  -6  -6 -12 3299.41 123.601   2
   6   7  -5 70.1892 135.281   2
   6   7  -4 1853.98 190.052   2
   6   7  -3 1134.83 209.025   2
   6   7  -2 177.709 208.904   2
   6   7  -1 5031.39 186.284   2
   6   7   0 3587.07 185.797   2
   6   7   1 921.418 156.728   2
  -6  -7  -2 594.170 132.545   2
   6   7   3 7277.09 200.801   2
  -6  -7  -4 6043.87 196.079   2
   6   7   5 945.248 174.633   2
   6   7   6 28285.2 392.768   2
   6   7   7 35594.2 425.622   2
   6   7   8 1957.01 173.566   2
   6   7   9 4877.66 191.372   2
   6   7  10 6186.00 186.469   2
   6   7  11-42.8173 102.129   2
   6   7  12 294.030 97.1135   2
   6   8  -4 136.134 103.467   2
   6   8  -3 24.3547 140.805   2
   6   8  -2 728.873 166.124   2
   6   8  -1 312.695 113.366   2
   6   8   0 186.959 167.979   2
   6   8   1 32.1367 119.740   2
   6   8   2 7462.06 209.474   2
   6   8   3 1336.56 148.904   2
   6   8   4 1912.43 161.992   2
   6   8   5 13887.8 263.111   2
   6   8   6 8577.89 222.810   2
   6   8   7-1.55896 135.185   2
   6   8   8 31.7717 124.626   2
   6   8   9 333.261 177.065   2
   6   8  10 732.620 99.8210   2
   6   8  11 188.817 105.893   2
   6   9  -1 502.782 81.9770   2
   6   9   0 1727.91 110.558   2
   6   9   1 2133.18 126.115   2
   6   9   2 53.1501 106.582   2
   6   9   3 1629.44 197.634   2
   6   9   4 3591.99 234.912   2
   6   9   5 45.7477 164.604   2
   6   9   6 2739.43 222.880   2
   6   9   7 385.602 164.548   2
   6   9   8 66.6402 152.311   2
   6   9   9 3391.08 174.744   2
   6  10   2 2678.29 154.979   2
   6  10   3 2578.18 161.717   2
   6  10   4 1055.20 145.289   2
   6  10   5 6008.28 210.748   2
   6  10   6 1419.70 150.290   2
   6  10   7-0.78796 107.277   2
   7   3  -6 1832.34 139.281   2
   7   4  -6 2388.08 143.736   2
  -8   2   3 5226.34 173.522   2
  -8   2   2 2106.00 100.894   2
  -8   2   1-86.4426 129.763   2
  -8   2   0 12980.4 259.973   2
  -8   2  -1 11987.7 230.605   2
  -8   2  -3 2255.87 166.262   2
  -8   2  -4 1837.33 158.231   2
  -8   2  -5 176.062 110.563   2
  -8   1   4 1047.36 83.2382   2
  -8   1   3 131.583 87.0565   2
  -8   1   2 172.085 93.4720   2
  -8   1   1 10241.8 277.111   2
  -8   1   0 1952.29 172.074   2
  -8   1  -1 474.379 145.801   2
  -8   1  -2 1839.30 200.778   2
  -8   1  -3 4073.78 225.811   2
  -8   1  -4-37.7276 160.085   2
  -8   1  -5 3617.40 206.280   2
  -8   1  -6 6894.40 224.745   2
  -8   1  -7 1348.40 129.830   2
  -8   0   4 95.5017 81.9994   2
  -8   0   3 2029.10 112.659   2
  -8   0   2 17623.9 226.897   2
  -8   0   1 106.428 165.150   2
  -8   0   0 3835.79 219.201   2
  -8   0  -1 5776.97 238.205   2
  -8   0  -2 4901.38 162.667   2
  -8   0  -3 360.032 192.962   2
  -8   0  -4 614.424 189.525   2
  -8   0  -5 2240.21 207.017   2
  -8   0  -6 711.026 170.477   2
  -8   0  -7 1411.28 158.662   2
  -8   0  -8 1801.57 132.934   2
  -8  -1   5 646.540 100.201   2
  -8  -1   4 2252.15 106.911   2
  -8  -1   3 3689.25 133.734   2
  -8  -1   2 3785.52 141.489   2
  -8  -1   1 5673.00 258.251   2
  -8  -1   0 1654.01 198.788   2
  -8  -1  -1 718.363 172.942   2
  -8  -1  -2 2757.11 146.967   2
  -8  -1  -3 780.505 199.061   2
  -8  -1  -4 2081.55 225.801   2
  -8  -1  -5 1380.28 204.603   2
  -8  -1  -6 2055.72 198.108   2
  -8  -1  -7 4500.60 215.805   2
  -8  -1  -8 265.374 124.535   2
  -8  -2   4 4931.14 190.156   2
  -8  -2   3 78.4944 154.218   2
  -8  -2   2 1038.61 187.355   2
  -8  -2   1 2487.16 221.128   2
  -8  -2   0 221.642 122.897   2
  -8  -2  -1 8983.24 203.008   2
  -8  -2  -2 3237.65 122.801   2
  -8  -2  -3 188.923 117.268   2
  -8  -2  -4 7923.40 193.347   2
  -8  -2  -5 3174.90 227.031   2
  -8  -2  -6 685.931 173.165   2
  -8  -2  -7 39.3185 144.809   2
  -8  -2  -8 5825.57 191.696   2
  -8  -3   4 1096.47 132.333   2
  -8  -3   3 396.449 156.996   2
  -8  -3   2 7533.70 266.281   2
  -8  -3   1 10808.4 195.591   2
  -8  -3   0 8048.93 198.498   2
  -8  -3  -1 2226.79 151.722   2
  -8  -3  -2 227.211 117.946   2
  -8  -3  -3 3652.54 234.050   2
  -8  -3  -4 2713.90 153.072   2
  -8  -3  -5 640.421 120.225   2
  -8  -3  -6 337.304 103.655   2
  -8  -3  -7 16620.3 207.657   2
  -8  -3  -8 2707.50 140.559   2
  -8  -4   4 1144.93 108.986   2
  -8  -4   3 242.701 66.8259   2
  -8  -4   2 8896.09 168.567   2
  -8  -4   1 13093.7 213.275   2
  -8  -4   0 5014.54 175.425   2
  -8  -4  -1 2453.62 150.499   2
  -8  -4  -2 4739.84 171.307   2
  -8  -4  -3 214.751 113.970   2
  -8  -4  -4 6319.46 274.150   2
  -8  -4  -5 4755.22 240.838   2
  -8  -4  -6 9939.06 286.979   2
  -8  -4  -7 695.762 163.930   2
  -8  -4  -8 1790.50 159.632   2
  -8  -4  -9 2453.87 128.108   2
  -8  -5   3 1620.29 127.938   2
  -8  -5   2 468.462 96.0853   2
  -8  -5   1 1619.05 121.747   2
  -8  -5   0 4559.79 236.764   2
  -8  -5  -1 3182.53 224.105   2
  -8  -5  -2 407.951 193.196   2
  -8  -5  -3 2535.56 135.266   2
  -8  -5  -4 5344.73 260.575   2
  -8  -5  -5 8785.55 286.371   2
  -8  -5  -6 999.975 185.956   2
  -8  -5  -7 2410.36 189.844   2
  -8  -5  -8 2698.44 174.218   2
  -8  -5  -9 349.065 107.558   2
  -8  -6   2-3.81209 72.0145   2
  -8  -6   1 5917.19 136.752   2
   8   6   0 237.356 144.613   2
  -8  -6  -1 613.743 170.886   2
  -8  -6  -2 1416.77 188.142   2
  -8  -6  -3 177.944 171.146   2
  -8  -6  -4 277.662 174.348   2
  -8  -6  -5 2103.82 194.637   2
  -8  -6  -6 3439.37 201.943   2
  -8  -6  -7 1115.09 163.126   2
  -8  -6  -8 280.045 126.161   2
   8   7   0 2316.06 140.967   2
   8   7   1 4324.57 175.714   2
  -8  -7  -2 536.373 139.659   2
  -8  -7  -3 661.780 153.363   2
  -8  -7  -4 1069.64 158.824   2
  -8  -7  -5 92.2273 140.612   2
  -8  -7  -6 1906.63 149.763   2
  -8  -7  -7 1373.94 127.271   2
;
_shelx_hkl_checksum              88743
loop_
_space_group_symop_operation_xyz
'x, y, z'
'-x, -y, -z'
loop_
_atom_site_label
_atom_site_type_symbol
_atom_site_fract_x
_atom_site_fract_y
_atom_site_fract_z
_atom_site_U_iso_or_equiv
_atom_site_adp_type
_atom_site_occupancy
_atom_site_site_symmetry_order
_atom_site_calc_flag
_atom_site_refinement_flags_posn
_atom_site_refinement_flags_adp
_atom_site_refinement_flags_occupancy
_atom_site_disorder_assembly
_atom_site_disorder_group
O100 O 1.177(3) 0.034(2) 0.9882(16) 0.168(6) Uiso 0.5 1 d . . P A 1
C100 C 1.0000 0.0000 1.0000 0.130(9) Uiso 0.5 2 d S . P A 1
O101 O 1.549(3) -0.042(2) 0.9495(17) 0.189(7) Uiso 0.5 1 d . . P B 2
C101 C 1.317(4) 0.041(3) 0.006(2) 0.138(7) Uiso 0.5 1 d . . P C 2
C102 C 1.024(5) 0.020(5) 0.079(3) 0.120(11) Uiso 0.25 1 d . . P D 2
Cu1 Cu 1.16924(6) 0.21854(6) 0.64404(4) 0.03107(19) Uani 1 1 d . . . . .
F1 F 0.8588(2) 0.3691(2) 0.94596(17) 0.0370(5) Uani 1 1 d . . . . .
F2 F 0.7843(2) 0.5125(3) 1.10966(18) 0.0394(5) Uani 1 1 d . . . . .
N1 N 0.9152(4) 0.2541(3) 0.7227(2) 0.0330(6) Uani 1 1 d . . . . .
N3 N 1.1565(3) 0.2422(3) 0.4720(2) 0.0294(6) Uani 1 1 d . . . . .
C11 C 1.1888(4) 0.1128(4) 0.4377(3) 0.0304(7) Uani 1 1 d . . . . .
N2 N 0.3414(4) 0.2974(4) 0.7050(3) 0.0367(7) Uani 1 1 d . . . . .
C5 C 0.6778(4) 0.4345(4) 0.9699(3) 0.0282(6) Uani 1 1 d . . . . .
N4 N 1.2722(4) 0.0022(3) 0.6249(2) 0.0309(6) Uani 1 1 d . . . . .
C1 C 0.7675(4) 0.2974(4) 0.7651(3) 0.0298(7) Uani 1 1 d . . . . .
C6 C 0.6388(4) 0.5099(4) 1.0558(3) 0.0287(7) Uani 1 1 d . . . . .
C2 C 0.4457(4) 0.3219(4) 0.7563(3) 0.0301(7) Uani 1 1 d . . . . .
C4 C 0.5419(4) 0.4212(4) 0.9071(3) 0.0264(6) Uani 1 1 d . . . . .
C12 C 1.2599(4) -0.0204(4) 0.5223(3) 0.0310(7) Uani 1 1 d . . . . .
C3 C 0.5838(4) 0.3478(4) 0.8118(3) 0.0282(6) Uani 1 1 d . . . . .
C9 C 1.0979(5) 0.2379(5) 0.2546(3) 0.0430(9) Uani 1 1 d . . . . .
H9 H 1.0762 0.2363 0.1806 0.052 Uiso 1 1 calc R U . . .
C13 C 1.3154(5) -0.1613(4) 0.4977(3) 0.0390(8) Uani 1 1 d . . . . .
H13 H 1.3031 -0.1759 0.4255 0.047 Uiso 1 1 calc R U . . .
C7 C 1.1002(5) 0.3666(4) 0.3979(3) 0.0353(7) Uani 1 1 d . . . . .
H7 H 1.0807 0.4577 0.4214 0.042 Uiso 1 1 calc R U . . .
C16 C 1.3456(5) -0.1123(4) 0.7026(3) 0.0396(8) Uani 1 1 d . . . . .
H16 H 1.3571 -0.0960 0.7744 0.048 Uiso 1 1 calc R U . . .
C15 C 1.4056(5) -0.2539(4) 0.6828(4) 0.0438(9) Uani 1 1 d . . . . .
H15 H 1.4582 -0.3328 0.7397 0.053 Uiso 1 1 calc R U . . .
C8 C 1.0682(5) 0.3711(5) 0.2886(3) 0.0397(8) Uani 1 1 d . . . . .
H8 H 1.0273 0.4624 0.2386 0.048 Uiso 1 1 calc R U . . .
C14 C 1.3874(5) -0.2778(4) 0.5790(4) 0.0458(9) Uani 1 1 d . . . . .
H14 H 1.4245 -0.3742 0.5639 0.055 Uiso 1 1 calc R U . . .
C10 C 1.1588(5) 0.1084(4) 0.3290(3) 0.0380(8) Uani 1 1 d . . . . .
H10 H 1.1805 0.0165 0.3066 0.046 Uiso 1 1 calc R U . . .
loop_
_atom_site_aniso_label
_atom_site_aniso_U_11
_atom_site_aniso_U_22
_atom_site_aniso_U_33
_atom_site_aniso_U_23
_atom_site_aniso_U_13
_atom_site_aniso_U_12
Cu1 0.0235(3) 0.0446(3) 0.0319(3) -0.0239(2) -0.00305(18) -0.00348(19)
F1 0.0184(9) 0.0607(13) 0.0386(11) -0.0305(10) -0.0047(7) 0.0016(8)
F2 0.0203(9) 0.0680(14) 0.0406(11) -0.0346(10) -0.0076(8) -0.0024(8)
N1 0.0245(14) 0.0504(17) 0.0314(14) -0.0256(13) -0.0023(11) -0.0044(12)
N3 0.0225(12) 0.0403(15) 0.0298(14) -0.0167(12) -0.0026(10) -0.0055(10)
C11 0.0226(15) 0.0434(18) 0.0318(16) -0.0210(14) 0.0022(12) -0.0099(12)
N2 0.0257(14) 0.0552(18) 0.0385(16) -0.0311(14) -0.0031(12) -0.0039(12)
C5 0.0171(14) 0.0435(18) 0.0264(15) -0.0172(13) -0.0004(11) -0.0017(12)
N4 0.0229(13) 0.0398(15) 0.0326(14) -0.0152(12) 0.0004(11) -0.0061(11)
C1 0.0301(17) 0.0400(18) 0.0264(15) -0.0182(14) -0.0048(13) -0.0080(13)
C6 0.0201(14) 0.0438(18) 0.0281(15) -0.0176(14) -0.0054(11) -0.0054(12)
C2 0.0254(15) 0.0394(17) 0.0288(16) -0.0201(14) 0.0010(12) -0.0021(12)
C4 0.0227(14) 0.0360(16) 0.0240(14) -0.0140(12) -0.0020(11) -0.0050(12)
C12 0.0208(14) 0.0422(18) 0.0348(16) -0.0192(14) 0.0030(12) -0.0089(12)
C3 0.0227(14) 0.0400(17) 0.0266(15) -0.0176(13) -0.0025(12) -0.0044(12)
C9 0.042(2) 0.062(2) 0.0332(18) -0.0181(17) -0.0081(15) -0.0163(17)
C13 0.0360(18) 0.0415(19) 0.044(2) -0.0230(16) 0.0037(15) -0.0083(14)
C7 0.0306(17) 0.0416(19) 0.0368(18) -0.0167(15) -0.0041(13) -0.0041(13)
C16 0.0325(18) 0.048(2) 0.0388(19) -0.0115(16) -0.0006(14) -0.0076(14)
C15 0.0315(18) 0.040(2) 0.053(2) -0.0047(17) 0.0023(16) -0.0029(14)
C8 0.0342(18) 0.051(2) 0.0363(18) -0.0110(16) -0.0083(14) -0.0087(15)
C14 0.039(2) 0.038(2) 0.060(3) -0.0213(18) 0.0059(17) -0.0050(15)
C10 0.0365(18) 0.049(2) 0.0372(19) -0.0241(16) -0.0019(14) -0.0121(15)
loop_
_atom_type_symbol
_atom_type_description
_atom_type_scat_dispersion_real
_atom_type_scat_dispersion_imag
_atom_type_scat_source
C C 0.0181 0.0091 'International Tables Vol C Tables 4.2.6.8 and 6.1.1.4'
H H 0.0000 0.0000 'International Tables Vol C Tables 4.2.6.8 and 6.1.1.4'
N N 0.0311 0.0180 'International Tables Vol C Tables 4.2.6.8 and 6.1.1.4'
O O 0.0492 0.0322 'International Tables Vol C Tables 4.2.6.8 and 6.1.1.4'
F F 0.0727 0.0534 'International Tables Vol C Tables 4.2.6.8 and 6.1.1.4'
Cu Cu -1.9646 0.5888 'International Tables Vol C Tables 4.2.6.8 and 6.1.1.4'
loop_
_geom_angle_atom_site_label_1
_geom_angle_atom_site_label_2
_geom_angle_atom_site_label_3
_geom_angle
_geom_angle_site_symmetry_1
_geom_angle_site_symmetry_3
O100 C100 O100 180.0 . 2_757
C101 O101 O101 78(2) 2_856 2_857
C101 O101 C101 119.0(19) 2_856 1_556
O101 O101 C101 40.8(11) 2_857 1_556
O101 C101 O101 61.0(19) 2_856 1_554
N2 Cu1 N1 111.60(11) 1_655 .
N2 Cu1 N3 124.66(12) 1_655 .
N1 Cu1 N3 109.57(11) . .
N2 Cu1 N4 113.10(12) 1_655 .
N1 Cu1 N4 115.40(12) . .
N3 Cu1 N4 79.04(11) . .
C1 N1 Cu1 169.6(3) . .
C7 N3 C11 118.1(3) . .
C7 N3 Cu1 127.1(2) . .
C11 N3 Cu1 114.2(2) . .
N3 C11 C10 121.2(3) . .
N3 C11 C12 115.4(3) . .
C10 C11 C12 123.4(3) . .
C2 N2 Cu1 167.8(3) . 1_455
F1 C5 C6 117.2(3) . .
F1 C5 C4 118.9(3) . .
C6 C5 C4 123.9(3) . .
C16 N4 C12 118.5(3) . .
C16 N4 Cu1 127.1(2) . .
C12 N4 Cu1 114.4(2) . .
N1 C1 C3 176.7(3) . .
F2 C6 C5 117.3(3) . .
F2 C6 C4 118.8(3) . 2_667
C5 C6 C4 123.9(3) . 2_667
N2 C2 C3 175.4(3) . .
C6 C4 C5 112.2(3) 2_667 .
C6 C4 C3 123.6(3) 2_667 .
C5 C4 C3 124.2(3) . .
N4 C12 C13 121.4(3) . .
N4 C12 C11 115.8(3) . .
C13 C12 C11 122.8(3) . .
C2 C3 C1 112.9(3) . .
C2 C3 C4 123.9(3) . .
C1 C3 C4 123.2(3) . .
C10 C9 C8 119.3(3) . .
C14 C13 C12 119.3(4) . .
N3 C7 C8 123.9(3) . .
N4 C16 C15 122.8(4) . .
C14 C15 C16 118.6(4) . .
C7 C8 C9 117.8(4) . .
C13 C14 C15 119.4(3) . .
C9 C10 C11 119.6(3) . .
loop_
_geom_bond_atom_site_label_1
_geom_bond_atom_site_label_2
_geom_bond_distance
_geom_bond_site_symmetry_2
O100 C100 1.38(2) .
C100 O100 1.38(2) 2_757
O101 C101 1.21(3) 2_856
O101 O101 1.62(4) 2_857
O101 C101 1.81(3) 1_556
C101 O101 1.21(3) 2_856
C101 O101 1.81(3) 1_554
Cu1 N2 1.926(3) 1_655
Cu1 N1 1.946(3) .
Cu1 N3 2.079(3) .
Cu1 N4 2.082(3) .
F1 C5 1.352(3) .
F2 C6 1.352(4) .
N1 C1 1.154(4) .
N3 C7 1.333(5) .
N3 C11 1.353(4) .
C11 C10 1.397(5) .
C11 C12 1.481(5) .
N2 C2 1.158(4) .
N2 Cu1 1.926(3) 1_455
C5 C6 1.370(4) .
C5 C4 1.399(4) .
N4 C16 1.336(5) .
N4 C12 1.346(4) .
C1 C3 1.400(4) .
C6 C4 1.397(4) 2_667
C2 C3 1.403(4) .
C4 C6 1.397(4) 2_667
C4 C3 1.458(4) .
C12 C13 1.400(5) .
C9 C10 1.374(6) .
C9 C8 1.387(6) .
C13 C14 1.368(6) .
C7 C8 1.386(5) .
C16 C15 1.385(6) .
C15 C14 1.377(6) .
loop_
_geom_torsion_atom_site_label_1
_geom_torsion_atom_site_label_2
_geom_torsion_atom_site_label_3
_geom_torsion_atom_site_label_4
_geom_torsion
_geom_torsion_site_symmetry_4
C1 C3 C4 C5 -7.5(5) .
C2 C3 C4 C6 -8.4(5) 2_667
