#------------------------------------------------------------------------------
#$Date: 2015-06-04 06:08:14 +0300 (Thu, 04 Jun 2015) $
#$Revision: 137794 $
#$URL: svn://www.crystallography.net/cod/cif/4/51/30/4513078.cif $
#------------------------------------------------------------------------------
#
# This file is available in the Crystallography Open Database (COD),
# http://www.crystallography.net/
#
# All data on this site have been placed in the public domain by the
# contributors.
#
data_4513078
loop_
_publ_author_name
'Yutronkie, Nathan J.'
'Leitch, Alicea A.'
'Korobkov, Ilia'
'Brusso, Jaclyn L.'
_publ_section_title
;
 1,2,4,6-Thiatriazinyl Radicals and Dimers: Structural and Electronic
 Tuning through Heteroaromatic Substituent Modification
;
_journal_issue                   5
_journal_name_full               'Crystal Growth &amp; Design'
_journal_page_first              2524
_journal_paper_doi               10.1021/acs.cgd.5b00296
_journal_volume                  15
_journal_year                    2015
_chemical_formula_sum            'C12 H9 N5 O S'
_chemical_formula_weight         271.30
_chemical_name_systematic
; 
 ? 
;
_space_group_crystal_system      triclinic
_space_group_IT_number           2
_space_group_name_Hall           '-P 1'
_space_group_name_H-M_alt        'P -1'
_symmetry_space_group_name_Hall  '-P 1'
_symmetry_space_group_name_H-M   'P -1'
_atom_sites_solution_hydrogens   geom
_audit_creation_method           SHELXL-2013
_cell_angle_alpha                82.682(2)
_cell_angle_beta                 82.181(2)
_cell_angle_gamma                76.697(2)
_cell_formula_units_Z            2
_cell_length_a                   6.4045(3)
_cell_length_b                   7.6170(4)
_cell_length_c                   12.4324(6)
_cell_measurement_reflns_used    5423
_cell_measurement_temperature    200(2)
_cell_measurement_theta_max      28.15
_cell_measurement_theta_min      2.76
_cell_volume                     581.82(5)
_computing_cell_refinement       'APEX II, Bruker (2009)'
_computing_data_collection       'APEX II, Bruker (2009)'
_computing_data_reduction        'XPREP, Bruker (2009)'
_computing_molecular_graphics    'SHELXTL, Bruker (2004)'
_computing_publication_material  'SHELXTL, Bruker (2004)'
_computing_structure_refinement  'SHELXL-2013 (Sheldrick, 2013)'
_computing_structure_solution    'SHELXS-03 (Sheldrick, 2003)'
_diffrn_ambient_temperature      200(2)
_diffrn_measured_fraction_theta_full 0.988
_diffrn_measured_fraction_theta_max 0.984
_diffrn_measurement_device_type  'Bruker APEX-II CCD'
_diffrn_measurement_method       '\f and \w scans'
_diffrn_radiation_type           MoK\a
_diffrn_radiation_wavelength     0.71073
_diffrn_reflns_av_unetI/netI     0.0326
_diffrn_reflns_laue_measured_fraction_full 0.988
_diffrn_reflns_laue_measured_fraction_max 0.984
_diffrn_reflns_limit_h_max       8
_diffrn_reflns_limit_h_min       -8
_diffrn_reflns_limit_k_max       10
_diffrn_reflns_limit_k_min       -9
_diffrn_reflns_limit_l_max       16
_diffrn_reflns_limit_l_min       0
_diffrn_reflns_number            4276
_diffrn_reflns_point_group_measured_fraction_full 0.988
_diffrn_reflns_point_group_measured_fraction_max 0.984
_diffrn_reflns_theta_full        25.242
_diffrn_reflns_theta_max         28.246
_diffrn_reflns_theta_min         1.662
_exptl_absorpt_coefficient_mu    0.277
_exptl_absorpt_correction_T_max  0.745684
_exptl_absorpt_correction_T_min  0.631482
_exptl_absorpt_correction_type   multi-scan
_exptl_absorpt_process_details   'SADABS, Bruker (2003)'
_exptl_crystal_colour            pink
_exptl_crystal_density_diffrn    1.549
_exptl_crystal_density_meas      ?
_exptl_crystal_description       block
_exptl_crystal_F_000             280
_exptl_crystal_size_max          0.120
_exptl_crystal_size_mid          0.110
_exptl_crystal_size_min          0.090
_refine_diff_density_max         0.873
_refine_diff_density_min         -0.466
_refine_diff_density_rms         0.086
_refine_ls_extinction_method     none
_refine_ls_goodness_of_fit_ref   1.060
_refine_ls_hydrogen_treatment    constr
_refine_ls_matrix_type           full
_refine_ls_number_parameters     173
_refine_ls_number_reflns         2831
_refine_ls_number_restraints     0
_refine_ls_restrained_S_all      1.060
_refine_ls_R_factor_all          0.0785
_refine_ls_R_factor_gt           0.0575
_refine_ls_shift/su_max          0.000
_refine_ls_shift/su_mean         0.000
_refine_ls_structure_factor_coef Fsqd
_refine_ls_weighting_details
'w=1/[\s^2^(Fo^2^)+(0.0877P)^2^+0.4452P] where P=(Fo^2^+2Fc^2^)/3'
_refine_ls_weighting_scheme      calc
_refine_ls_wR_factor_gt          0.1618
_refine_ls_wR_factor_ref         0.1751
_reflns_Friedel_coverage         0.000
_reflns_number_gt                2234
_reflns_number_total             2831
_reflns_threshold_expression     'I > 2\s(I)'
_cod_data_source_file            cg5b00296_si_002.cif
_cod_data_source_block           jb018_5
_cod_depositor_comments
;
The following automatic conversions were performed:

'_exptl_crystal_density_meas' value 'n/a' was changed to '?' - the
value is perceived as not measured.

Automatic conversion script
Id: cif_fix_values 3271 2015-04-21 07:52:19Z andrius 
;
_cod_database_code               4513078
_shelx_space_group_comment
; 
The symmetry employed for this shelxl refinement is uniquely defined 
by the following loop, which should always be used as a source of 
symmetry information in preference to the above space-group names. 
They are only intended as comments. 
;
_shelx_estimated_absorpt_t_min   0.968
_shelx_estimated_absorpt_t_max   0.975
_shelxl_version_number           2013-4
_shelx_res_file
; 
TITL jb018_4 in P-1 
CELL 0.71073   6.40450   7.61700  12.43240  82.6822  82.1812  76.6973 
ZERR    2.00   0.00030   0.00040   0.00060   0.0023   0.0020   0.0021 
LATT  1 
SFAC C H N O S 
UNIT 24 18 10 2 2 
LIST 0 
TEMP -73.15C 
SIZE 0.09 0.11 0.12 
  
L.S. 80 
ACTA 
CONF 
BOND 
FMAP 2 
PLAN 5 
OMIT    -3   1   0 
OMIT    -2   1   3 
OMIT     2   3   3 
OMIT    -7   0   2 
OMIT    -3   0   1 
OMIT    -4  -1   1 
OMIT    -5   1   1 
OMIT    -3   1   2 
OMIT     3   0   1 
OMIT    -5   0   2 
OMIT    -2   2   0 
OMIT     4   4  14 
OMIT     5   4  14 
OMIT     2   0   4 
OMIT     5   5   9 
OMIT     2   2   2 
OMIT     4   1   2 
OMIT     8   3   1 
OMIT    -2  -1  10 
OMIT     0  -1   1 
OMIT     0  -1   6 
OMIT     5   5  13 
OMIT     8   2   0 
OMIT    -1   1   0 
OMIT     0  -1   8 
OMIT    -7  -1   5 
OMIT     5   9   5 
OMIT    -3   1   3 
  
WGHT    0.087700    0.445200 
BASF   0.41020 
FVAR       1.14641 
S1    5    0.044865    0.270841    0.760236    11.00000    0.02259    0.04255 = 
         0.02810    0.00432   -0.00005   -0.00366 
O1    4    0.057732    0.107031    0.708053    11.00000    0.04627    0.04518 = 
         0.04088   -0.00211    0.00244    0.00026 
C1    1   -0.312280    0.472457    0.706249    11.00000    0.02577    0.02622 = 
         0.01919   -0.00174    0.00038   -0.01052 
N1    3   -0.105944    0.437833    0.683914    11.00000    0.02740    0.03815 = 
         0.02384    0.00422    0.00120   -0.00979 
N2    3   -0.111208    0.245442    0.879360    11.00000    0.02643    0.03811 = 
         0.02573    0.00205   -0.00046   -0.00773 
C2    1   -0.316499    0.300903    0.881345    11.00000    0.02664    0.02812 = 
         0.02183   -0.00050   -0.00320   -0.00922 
N3    3   -0.421854    0.401307    0.797843    11.00000    0.02158    0.03997 = 
         0.02218    0.00636   -0.00063   -0.00925 
AFIX  43 
H3A   2   -0.563557    0.420814    0.802954    11.00000   -1.20000 
AFIX   0 
C3    1   -0.450441    0.600167    0.631493    11.00000    0.02117    0.02378 = 
         0.02377   -0.00295   -0.00027   -0.00688 
C6    1   -0.718179    0.820115    0.497706    11.00000    0.04348    0.02973 = 
         0.02504    0.00118   -0.00543   -0.00299 
AFIX  43 
H6A   2   -0.816740    0.895909    0.451894    11.00000   -1.20000 
AFIX   0 
C5    1   -0.502476    0.789167    0.465880    11.00000    0.04245    0.02983 = 
         0.02428    0.00104   -0.00112   -0.00756 
AFIX  43 
H5A   2   -0.448581    0.844789    0.398287    11.00000   -1.20000 
AFIX   0 
N5    3   -0.667785    0.333391    0.978833    11.00000    0.02650    0.03771 = 
         0.02631   -0.00157    0.00088   -0.01114 
N4    3   -0.665598    0.632401    0.665214    11.00000    0.02677    0.03017 = 
         0.02643    0.00108   -0.00279   -0.00769 
C4    1   -0.362073    0.675600    0.533112    11.00000    0.02845    0.02974 = 
         0.02471   -0.00087    0.00246   -0.00956 
AFIX  43 
H4A   2   -0.210582    0.650179    0.512647    11.00000   -1.20000 
AFIX   0 
C11   1   -0.736697    0.178388    1.156060    11.00000    0.04209    0.03967 = 
         0.02555   -0.00738    0.01006   -0.01597 
AFIX  43 
H11A  2   -0.838417    0.150214    1.215045    11.00000   -1.20000 
AFIX   0 
C12   1   -0.805099    0.293122    1.065084    11.00000    0.03272    0.04201 = 
         0.02840   -0.00650    0.00430   -0.01232 
AFIX  43 
H12A  2   -0.954772    0.344855    1.064076    11.00000   -1.20000 
AFIX   0 
C10   1   -0.516775    0.105582    1.159213    11.00000    0.05415    0.04017 = 
         0.02148    0.00675    0.00070   -0.00938 
AFIX  43 
H10A  2   -0.464862    0.030369    1.221214    11.00000   -1.20000 
AFIX   0 
C9    1   -0.375743    0.145986    1.069297    11.00000    0.03540    0.03118 = 
         0.02445    0.00091   -0.00244   -0.00400 
AFIX  43 
H9A   2   -0.224799    0.097808    1.067388    11.00000   -1.20000 
AFIX   0 
C8    1   -0.462046    0.258707    0.982505    11.00000    0.03368    0.02328 = 
         0.01925   -0.00170   -0.00267   -0.01328 
C7    1   -0.792780    0.740933    0.596705    11.00000    0.02552    0.03129 = 
         0.03162   -0.00251   -0.00050   -0.00352 
AFIX  43 
H7A   2   -0.944176    0.765133    0.617460    11.00000   -1.20000 
  
AFIX   0 
HKLF 5 
  
REM  jb018_4 in P-1 
REM R1 =  0.0575 for    2234 Fo > 4sig(Fo)  and  0.0785 for all    2831 data 
REM    173 parameters refined using      0 restraints 
  
END 
  
WGHT      0.0663      0.5043 
  
REM Highest difference peak  0.873,  deepest hole -0.466,  1-sigma level  0.086 
Q1    1  -0.0355  0.2305  0.7358  11.00000  0.05    0.87 
Q2    1   0.1991  0.2978  0.7715  11.00000  0.05    0.87 
Q3    1  -0.5041 -0.0064  1.2584  11.00000  0.05    0.36 
Q4    1   0.0829  0.2574  0.7826  11.00000  0.05    0.34 
Q5    1  -0.7275  0.6895  0.6438  11.00000  0.05    0.34 
;
_shelx_res_checksum              68193
_shelx_hkl_file
; 
   1   0   0 716.084 6.59391  -1 
   1   0   0 716.084 6.59391   2 
   2   0   0 426.365 3.93158  -1 
   2   0   0 426.365 3.93158   2 
   3   0   0 394.676 3.72035  -1 
   3   0   0 394.676 3.72035   2 
   4   0   0 3.83370 0.96657  -1 
   4   0   0 3.83370 0.96657   2 
   5   0   0 104.769 2.53462  -1 
   5   0   0 104.769 2.53462   2 
   6   0   0 5.04565 2.45657  -1 
   6   0   0 5.04565 2.45657   2 
   7   0   0 62.2438 4.41958  -1 
   7   0   0 62.2438 4.41958   2 
   8   0   0 84.7250 5.33120  -1 
   8   0   0 84.7250 5.33120   2 
  -8   1   0 49.3061 5.47310   2 
  -7   1   0 21.7356 2.73991   2 
  -6   1   0 84.5417 3.16171   2 
  -5   1   0 108.853 1.81575   2 
  -4   1   0 261.161 2.95297   2 
  -3   1   0 9.60104 0.58321   2 
  -2   1   0 232.871 2.48444   2 
  -1   1   0 2.46266 0.37205   2 
   0   1   0 424.112 3.62080   2 
   1   1   0 224.281 3.10749   2 
   2   1   0 21.0518 0.59809   2 
   3   1   0 156.380 1.71213   2 
   4   1   0 1.74992 0.48286   2 
   5   1   0 75.5272 1.68841   2 
   6   1   0 160.572 2.90610   2 
   7   1   0 73.8557 3.22258   2 
   8   1   0 2.04024 1.42691   2 
  -7   2   0 18.7364 3.45085  -1 
  -7   1   3 18.7364 3.45085   2 
  -6   2   0 58.5990 2.68399  -1 
  -6   1   3 58.5990 2.68399   2 
  -5   2   0 16.4398 2.32895  -1 
  -5   1   3 16.4398 2.32895   2 
  -4   2   0 18.7467 1.40664  -1 
  -4   1   3 18.7467 1.40664   2 
  -3   2   0 41.9231 1.25673  -1 
  -3   1   3 41.9231 1.25673   2 
  -2   2   0 29.1204 1.10392  -1 
  -2   1   3 29.1204 1.10392   2 
  -1   2   0 156.781 1.95004  -1 
  -1   1   3 156.781 1.95004   2 
   0   2   0 7441.82 59.7694  -1 
   0   1   3 7441.82 59.7694   2 
   1   2   0 347.090 2.82140  -1 
   1   1   3 347.090 2.82140   2 
   2   2   0 116.248 1.13454  -1 
   2   1   3 116.248 1.13454   2 
   3   2   0 150.413 1.74046  -1 
   3   1   3 150.413 1.74046   2 
   4   2   0 325.149 3.85478  -1 
   4   1   3 325.149 3.85478   2 
   5   2   0 16.5749 1.29894  -1 
   5   1   3 16.5749 1.29894   2 
   6   2   0 27.9226 1.83219  -1 
   6   1   3 27.9226 1.83219   2 
   7   2   0 95.7677 4.10653  -1 
   7   1   3 95.7677 4.10653   2 
   8   2   0 14.2021 3.82066  -1 
   8   1   3 14.2021 3.82066   2 
  -7   3   0 7.95789 3.03502   2 
  -6   3   0 8.69619 2.64228   2 
  -5   3   0 7.44119 1.56647   2 
  -4   3   0 125.235 2.41727   2 
  -3   3   0 6.98502 0.81331   2 
  -2   3   0 1.06600 0.60142   2 
  -1   3   0 20.2860 0.80054   2 
   0   3   0 16.3262 0.62309   2 
   1   3   0 11.0768 0.54745   2 
   2   3   0 2.54456 0.35767   2 
   3   3   0 137.772 2.05322   2 
   4   3   0 13.5527 0.72663   2 
   5   3   0 26.5002 1.01965   2 
   6   3   0 195.503 2.75756   2 
   7   3   0 2.87806 0.89346   2 
   8   3   0 3.24302 1.83149   2 
  -6   4   0 33.3106 4.52673  -1 
  -6   2   6 33.3106 4.52673   2 
  -5   4   0 15.3322 4.93707  -1 
  -5   2   6 15.3322 4.93707   2 
  -4   4   0 207.203 4.13651  -1 
  -4   2   6 207.203 4.13651   2 
  -3   4   0 66.7927 2.00616  -1 
  -3   2   6 66.7927 2.00616   2 
  -2   4   0 41.3852 1.63830  -1 
  -2   2   6 41.3852 1.63830   2 
  -1   4   0 1887.30 17.4767  -1 
  -1   2   6 1887.30 17.4767   2 
   0   4   0 12.8792 0.88416  -1 
   0   2   6 12.8792 0.88416   2 
   1   4   0 47.3095 0.94375  -1 
   1   2   6 47.3095 0.94375   2 
   2   4   0 1.27652 0.65003  -1 
   2   2   6 1.27652 0.65003   2 
   3   4   0 624.986 6.96566  -1 
   3   2   6 624.986 6.96566   2 
   4   4   0 9.03166 1.13451  -1 
   4   2   6 9.03166 1.13451   2 
   5   4   0 1.74980 1.32435  -1 
   5   2   6 1.74980 1.32435   2 
   6   4   0 61.9187 2.24273  -1 
   6   2   6 61.9187 2.24273   2 
   7   4   0 16.7853 3.02620  -1 
   7   2   6 16.7853 3.02620   2 
   8   4   0 25.0291 3.54845  -1 
   8   2   6 25.0291 3.54845   2 
  -6   5   0 -4.0013 3.21560   2 
  -5   5   0 3.36338 1.86692   2 
  -4   5   0 9.55718 1.97104   2 
  -3   5   0 23.1107 2.18431   2 
  -2   5   0 2.67879 1.19396   2 
  -1   5   0 222.684 3.45985   2 
   0   5   0 52.3110 1.55428   2 
   1   5   0 12.5972 0.89287   2 
   2   5   0 3.71219 0.66764   2 
   3   5   0 67.3849 1.29051   2 
   4   5   0 16.1173 0.87448   2 
   5   5   0 17.5795 1.13052   2 
   6   5   0 172.497 2.48563   2 
   7   5   0 8.71126 0.92063   2 
   8   5   0 4.82925 1.99755   2 
  -5   6   0 73.9548 6.87547  -1 
  -5   3   9 73.9548 6.87547   2 
  -4   6   0 60.7140 3.78675  -1 
  -4   3   9 60.7140 3.78675   2 
  -3   6   0 35.8310 3.60159  -1 
  -3   3   9 35.8310 3.60159   2 
  -2   6   0 543.919 10.2628  -1 
  -2   3   9 543.919 10.2628   2 
  -1   6   0 182.404 3.89455  -1 
  -1   3   9 182.404 3.89455   2 
   0   6   0 167.193 2.55371  -1 
   0   3   9 167.193 2.55371   2 
   1   6   0 75.0752 1.71482  -1 
   1   3   9 75.0752 1.71482   2 
   2   6   0 327.882 3.71373  -1 
   2   3   9 327.882 3.71373   2 
   3   6   0 641.171 8.31355  -1 
   3   3   9 641.171 8.31355   2 
   4   6   0 2.12759 1.42422  -1 
   4   3   9 2.12759 1.42422   2 
   5   6   0 37.1813 1.80835  -1 
   5   3   9 37.1813 1.80835   2 
   6   6   0 254.320 4.81970  -1 
   6   3   9 254.320 4.81970   2 
   7   6   0 20.4536 3.18878  -1 
   7   3   9 20.4536 3.18878   2 
  -4   7   0 12.4190 2.19317   2 
  -3   7   0 0.27544 1.97985   2 
  -2   7   0 -0.2676 1.80095   2 
  -1   7   0 32.9153 2.15826   2 
   0   7   0 39.3716 2.36527   2 
   1   7   0 5.26822 1.06741   2 
   2   7   0 28.5162 1.53668   2 
   3   7   0 2.95960 0.89894   2 
   4   7   0 38.3212 1.48679   2 
   5   7   0 50.2385 1.48264   2 
   6   7   0 15.8632 1.15758   2 
   7   7   0 2.36934 5.71400   2 
  -3   8   0 1.76958 3.90540  -1 
  -3   4  12 1.76958 3.90540   2 
  -2   8   0 106.840 4.52842  -1 
  -2   4  12 106.840 4.52842   2 
  -1   8   0 17.7133 4.84922  -1 
  -1   4  12 17.7133 4.84922   2 
   0   8   0 38.4348 4.88459  -1 
   0   4  12 38.4348 4.88459   2 
   1   8   0 -0.2461 3.06714  -1 
   1   4  12 -0.2461 3.06714   2 
   2   8   0 7.42145 2.62506  -1 
   2   4  12 7.42145 2.62506   2 
   3   8   0 24.7467 2.55162  -1 
   3   4  12 24.7467 2.55162   2 
   4   8   0 13.4153 2.37479  -1 
   4   4  12 13.4153 2.37479   2 
   5   8   0 14.1755 2.54474  -1 
   5   4  12 14.1755 2.54474   2 
   6   8   0 12.8076 3.80149  -1 
   6   4  12 12.8076 3.80149   2 
  -2   9   0 7.71362 3.10416   2 
  -1   9   0 8.92825 2.91806   2 
   0   9   0 6.92775 2.85960   2 
   1   9   0 4.93950 1.63900   2 
   2   9   0 1.08451 1.46160   2 
   3   9   0 -0.9061 1.31117   2 
   4   9   0 21.0443 2.01433   2 
   5   9   0 12.2498 2.24421   2 
   1  10   0 38.9254 6.16451  -1 
   1   5  15 38.9254 6.16451   2 
   2  10   0 75.1373 6.31690  -1 
   2   5  15 75.1373 6.31690   2 
  -5  -9   1 59.1580 11.9256  -1 
   5   4  14 59.1580 11.9256   2 
  -4  -9   1 27.3117 3.06512  -1 
   4   4  14 27.3117 3.06512   2 
  -3  -9   1 48.7507 3.61963  -1 
   3   4  14 48.7507 3.61963   2 
  -2  -9   1 2.88379 3.25492  -1 
   2   4  14 2.88379 3.25492   2 
  -1  -9   1 0.76873 4.99054  -1 
   1   4  14 0.76873 4.99054   2 
   0  -9   1 2.74874 5.24582  -1 
   0   4  14 2.74874 5.24582   2 
   1  -9   1 10.2428 5.54074  -1 
  -1   4  14 10.2428 5.54074   2 
  -6  -8   1 27.5482 2.96703   2 
  -5  -8   1 12.3238 1.34262   2 
  -4  -8   1 25.3403 1.89614   2 
  -3  -8   1 2.64749 1.24570   2 
  -2  -8   1 22.8968 2.00670   2 
  -1  -8   1 40.9463 2.38157   2 
   0  -8   1 -0.0532 1.49999   2 
   1  -8   1 2.88120 2.65926   2 
   2  -8   1 10.7189 2.85253   2 
   3  -8   1 11.9289 3.08879   2 
  -7  -7   1 38.8076 9.79444  -1 
   7   3  11 38.8076 9.79444   2 
  -6  -7   1 9.58963 2.47659  -1 
   6   3  11 9.58963 2.47659   2 
  -5  -7   1 54.8473 2.72576  -1 
   5   3  11 54.8473 2.72576   2 
  -4  -7   1 27.5529 2.45275  -1 
   4   3  11 27.5529 2.45275   2 
  -3  -7   1 6.22775 2.27290  -1 
   3   3  11 6.22775 2.27290   2 
  -2  -7   1 5.73838 2.32338  -1 
   2   3  11 5.73838 2.32338   2 
  -1  -7   1 4.65173 2.38940  -1 
   1   3  11 4.65173 2.38940   2 
   0  -7   1 95.8005 3.03669  -1 
   0   3  11 95.8005 3.03669   2 
   1  -7   1 32.0307 3.35377  -1 
  -1   3  11 32.0307 3.35377   2 
   2  -7   1 64.2513 3.81640  -1 
  -2   3  11 64.2513 3.81640   2 
   3  -7   1 173.013 5.25814  -1 
  -3   3  11 173.013 5.25814   2 
   4  -7   1 23.3716 6.58783  -1 
  -4   3  11 23.3716 6.58783   2 
  -7  -6   1 3.28843 1.13977   2 
  -6  -6   1 56.1133 1.49056   2 
  -5  -6   1 6.72126 0.82781   2 
  -4  -6   1 7.09356 0.81542   2 
  -3  -6   1 42.8853 1.49585   2 
  -2  -6   1 50.9917 1.70228   2 
  -1  -6   1 62.1625 1.61781   2 
   0  -6   1 87.4901 1.88319   2 
   1  -6   1 46.3910 2.14358   2 
   2  -6   1 58.4441 2.33367   2 
   3  -6   1 70.9374 3.36497   2 
   4  -6   1 4.16847 1.96033   2 
   5  -6   1 15.1942 3.87939   2 
  -7  -5   1 19.0822 3.32077  -1 
   7   2   8 19.0822 3.32077   2 
  -6  -5   1 70.9062 3.72365  -1 
   6   2   8 70.9062 3.72365   2 
  -5  -5   1 960.968 12.0981  -1 
   5   2   8 960.968 12.0981   2 
  -4  -5   1 1.48810 1.63591  -1 
   4   2   8 1.48810 1.63591   2 
  -3  -5   1 38.5685 1.65710  -1 
   3   2   8 38.5685 1.65710   2 
  -2  -5   1 17.6570 1.16852  -1 
   2   2   8 17.6570 1.16852   2 
  -1  -5   1 24.9228 1.18772  -1 
   1   2   8 24.9228 1.18772   2 
   0  -5   1 1634.15 15.9602  -1 
   0   2   8 1634.15 15.9602   2 
   1  -5   1 8.02160 1.41462  -1 
  -1   2   8 8.02160 1.41462   2 
   2  -5   1 121.229 2.45195  -1 
  -2   2   8 121.229 2.45195   2 
   3  -5   1 452.143 7.05856  -1 
  -3   2   8 452.143 7.05856   2 
   4  -5   1 51.8251 3.50264  -1 
  -4   2   8 51.8251 3.50264   2 
   5  -5   1 9.20321 5.32796  -1 
  -5   2   8 9.20321 5.32796   2 
   6  -5   1 3.76533 5.99226  -1 
  -6   2   8 3.76533 5.99226   2 
  -8  -4   1 2.95740 2.17540   2 
  -7  -4   1 6.71456 0.93217   2 
  -6  -4   1 62.6227 1.58026   2 
  -5  -4   1 177.648 2.52979   2 
  -4  -4   1 16.3089 0.91395   2 
  -3  -4   1 268.277 3.05412   2 
  -2  -4   1 6.77374 0.55641   2 
  -1  -4   1 9.89922 0.56241   2 
   0  -4   1 4.28504 0.51602   2 
   1  -4   1 69.6930 1.33386   2 
   2  -4   1 21.8051 1.31176   2 
   3  -4   1 0.77741 0.87667   2 
   4  -4   1 116.397 3.53490   2 
   5  -4   1 24.1804 2.29031   2 
   6  -4   1 17.8992 3.12694   2 
  -8  -3   1 31.1042 9.63237  -1 
   8   1   5 31.1042 9.63237   2 
  -7  -3   1 17.3850 2.97583  -1 
   7   1   5 17.3850 2.97583   2 
  -6  -3   1 252.049 4.69270  -1 
   6   1   5 252.049 4.69270   2 
  -5  -3   1 106.224 2.71472  -1 
   5   1   5 106.224 2.71472   2 
  -4  -3   1 17.5998 1.09685  -1 
   4   1   5 17.5998 1.09685   2 
  -3  -3   1 18.4303 0.66468  -1 
   3   1   5 18.4303 0.66468   2 
  -2  -3   1 118.968 1.28138  -1 
   2   1   5 118.968 1.28138   2 
  -1  -3   1 35.8069 0.73368  -1 
   1   1   5 35.8069 0.73368   2 
   0  -3   1 631.030 6.27557  -1 
   0   1   5 631.030 6.27557   2 
   1  -3   1 117.736 1.56515  -1 
  -1   1   5 117.736 1.56515   2 
   2  -3   1 229.496 2.86003  -1 
  -2   1   5 229.496 2.86003   2 
   3  -3   1 122.253 2.13205  -1 
  -3   1   5 122.253 2.13205   2 
   4  -3   1 850.183 9.64524  -1 
  -4   1   5 850.183 9.64524   2 
   5  -3   1 116.922 3.61861  -1 
  -5   1   5 116.922 3.61861   2 
   6  -3   1 7.65881 2.82681  -1 
  -6   1   5 7.65881 2.82681   2 
   7  -3   1 4.76832 5.25278  -1 
  -7   1   5 4.76832 5.25278   2 
  -8  -2   1 15.3836 1.68161   2 
  -7  -2   1 49.0785 2.08950   2 
  -6  -2   1 52.7369 1.53998   2 
  -5  -2   1 29.3674 1.29022   2 
  -4  -2   1 289.424 3.16023   2 
  -3  -2   1 88.1846 1.18941   2 
  -2  -2   1 52.7080 0.71371   2 
  -1  -2   1 15.0573 0.45605   2 
   0  -2   1 2.60078 0.36337   2 
   1  -2   1 344.853 3.62743   2 
   2  -2   1 39.8938 1.04975   2 
   3  -2   1 188.490 2.65472   2 
   4  -2   1 37.4269 1.44033   2 
   5  -2   1 2.33633 1.08234   2 
   6  -2   1 110.425 4.75141   2 
   7  -2   1 22.2710 3.07050   2 
  -8  -1   1 60.0424 5.16867  -1 
   8   0   2 60.0424 5.16867   2 
  -7  -1   1 5.43326 3.77141  -1 
   7   0   2 5.43326 3.77141   2 
  -6  -1   1 36.7293 2.31471  -1 
   6   0   2 36.7293 2.31471   2 
  -5  -1   1 0.26999 1.79295  -1 
   5   0   2 0.26999 1.79295   2 
  -4  -1   1 43.4617 0.94538  -1 
   4   0   2 43.4617 0.94538   2 
  -3  -1   1 59.4607 0.79652  -1 
   3   0   2 59.4607 0.79652   2 
  -2  -1   1 2560.04 20.5534  -1 
   2   0   2 2560.04 20.5534   2 
   0  -1   1 326.886 2.72185  -1 
   0   0   2 326.886 2.72185   2 
   1  -1   1 509.372 4.08500  -1 
  -1   0   2 509.372 4.08500   2 
   2  -1   1 563.714 4.98022  -1 
  -2   0   2 563.714 4.98022   2 
   3  -1   1 631.396 6.67493  -1 
  -3   0   2 631.396 6.67493   2 
   4  -1   1 0.77141 1.22340  -1 
  -4   0   2 0.77141 1.22340   2 
   5  -1   1 21.9969 2.03306  -1 
  -5   0   2 21.9969 2.03306   2 
   6  -1   1 48.2964 2.38889  -1 
  -6   0   2 48.2964 2.38889   2 
   7  -1   1 30.8407 4.83777  -1 
  -7   0   2 30.8407 4.83777   2 
   8  -1   1 42.7477 5.67124  -1 
  -8   0   2 42.7477 5.67124   2 
  -8   0   1 16.9668 2.25017   2 
  -7   0   1 27.4486 2.27568   2 
  -6   0   1 211.568 4.31817   2 
  -5   0   1 40.3273 1.57840   2 
  -4   0   1 278.436 3.08188   2 
  -3   0   1 7.12325 0.48040   2 
  -2   0   1 113.585 1.32326   2 
  -1   0   1 122.571 1.10373   2 
   0   0   1 38.7691 0.52299   2 
   1   0   1 210.456 1.57816   2 
   2   0   1 105.962 1.00386   2 
   3   0   1 20.8159 0.58202   2 
   4   0   1 102.249 1.34775   2 
   5   0   1 54.9626 1.84971   2 
   6   0   1 238.619 4.10178   2 
   7   0   1 63.9880 3.90224   2 
   8   0   1 6.30017 2.69968   2 
  -7   1   1 28.6032 8.96458  -1 
  -7   1   1 28.6032 8.96458   2 
  -6   1   1 8.98421 3.04581  -1 
  -6   1   1 8.98421 3.04581   2 
  -5   1   1 18.0385 1.76931  -1 
  -5   1   1 18.0385 1.76931   2 
  -4   1   1 -1.2195 1.49838  -1 
  -4   1   1 -1.2195 1.49838   2 
  -3   1   1 883.643 9.70415  -1 
  -3   1   1 883.643 9.70415   2 
  -2   1   1 2443.87 27.6513  -1 
  -2   1   1 2443.87 27.6513   2 
  -1   1   1 1234.76 11.5843  -1 
  -1   1   1 1234.76 11.5843   2 
   0   1   1 1977.31 17.3634  -1 
   0   1   1 1977.31 17.3634   2 
   1   1   1 1655.05 21.5247  -1 
   1   1   1 1655.05 21.5247   2 
   2   1   1 956.753 11.5542  -1 
   2   1   1 956.753 11.5542   2 
   3   1   1 4426.98 45.0731  -1 
   3   1   1 4426.98 45.0731   2 
   4   1   1 113.508 1.68054  -1 
   4   1   1 113.508 1.68054   2 
   5   1   1 3.72644 1.28479  -1 
   5   1   1 3.72644 1.28479   2 
   6   1   1 161.393 2.97417  -1 
   6   1   1 161.393 2.97417   2 
   7   1   1 36.2125 2.93287  -1 
   7   1   1 36.2125 2.93287   2 
   8   1   1 54.7660 10.5166  -1 
   8   1   1 54.7660 10.5166   2 
  -7   2   1 0.93008 2.60320   2 
  -6   2   1 17.0047 2.60838   2 
  -5   2   1 187.508 3.22318   2 
  -4   2   1 42.4689 1.40261   2 
  -3   2   1 46.4300 1.30411   2 
  -2   2   1 0.09539 0.56889   2 
  -1   2   1 19.6886 0.81818   2 
   0   2   1 592.665 5.79067   2 
   1   2   1 8.32491 0.41286   2 
   2   2   1 0.42571 0.98073   2 
   3   2   1 38.6279 1.90599   2 
   4   2   1 4.86909 0.53259   2 
   5   2   1 83.3739 1.63043   2 
   6   2   1 -0.2518 0.91891   2 
   7   2   1 71.2704 2.11964   2 
   8   2   1 8.29505 1.60830   2 
  -7   3   1 2.94644 5.81103  -1 
  -7   2   4 2.94644 5.81103   2 
  -6   3   1 79.2701 5.93410  -1 
  -6   2   4 79.2701 5.93410   2 
  -5   3   1 36.0621 2.90197  -1 
  -5   2   4 36.0621 2.90197   2 
  -4   3   1 29.5026 1.93815  -1 
  -4   2   4 29.5026 1.93815   2 
  -3   3   1 2.13135 1.26265  -1 
  -3   2   4 2.13135 1.26265   2 
  -2   3   1 415.104 4.63029  -1 
  -2   2   4 415.104 4.63029   2 
  -1   3   1 153.517 1.92399  -1 
  -1   2   4 153.517 1.92399   2 
   0   3   1 5.81160 0.70668  -1 
   0   2   4 5.81160 0.70668   2 
   1   3   1 564.673 4.78672  -1 
   1   2   4 564.673 4.78672   2 
   2   3   1 350.729 3.95424  -1 
   2   2   4 350.729 3.95424   2 
   3   3   1 505.560 5.33465  -1 
   3   2   4 505.560 5.33465   2 
   4   3   1 5.85523 0.79227  -1 
   4   2   4 5.85523 0.79227   2 
   5   3   1 12.0745 1.31436  -1 
   5   2   4 12.0745 1.31436   2 
   6   3   1 33.5235 1.70366  -1 
   6   2   4 33.5235 1.70366   2 
   7   3   1 114.575 2.93039  -1 
   7   2   4 114.575 2.93039   2 
   8   3   1 4.55376 3.49216  -1 
   8   2   4 4.55376 3.49216   2 
  -6   4   1 4.88519 2.96244   2 
  -5   4   1 78.0766 3.26867   2 
  -4   4   1 1.55357 1.50190   2 
  -3   4   1 6.65778 1.03065   2 
  -2   4   1 3.22169 0.84253   2 
  -1   4   1 63.4551 1.33050   2 
   0   4   1 19.1798 0.90033   2 
   1   4   1 80.3717 1.11743   2 
   2   4   1 38.6257 0.93222   2 
   3   4   1 62.7493 3.21094   2 
   4   4   1 22.9851 2.69422   2 
   5   4   1 98.4775 4.23524   2 
   6   4   1 2.16195 0.62917   2 
   7   4   1 2.32068 0.73535   2 
   8   4   1 4.56586 1.83671   2 
  -6   5   1 46.0567 6.47573  -1 
  -6   3   7 46.0567 6.47573   2 
  -5   5   1 54.1136 5.90980  -1 
  -5   3   7 54.1136 5.90980   2 
  -4   5   1 53.1324 3.58439  -1 
  -4   3   7 53.1324 3.58439   2 
  -3   5   1 578.766 10.7226  -1 
  -3   3   7 578.766 10.7226   2 
  -2   5   1 239.221 3.37151  -1 
  -2   3   7 239.221 3.37151   2 
  -1   5   1 326.244 5.22513  -1 
  -1   3   7 326.244 5.22513   2 
   0   5   1 81.2843 1.74187  -1 
   0   3   7 81.2843 1.74187   2 
   1   5   1 235.638 2.74789  -1 
   1   3   7 235.638 2.74789   2 
   2   5   1 62.4458 1.26408  -1 
   2   3   7 62.4458 1.26408   2 
   3   5   1 8.38653 1.13152  -1 
   3   3   7 8.38653 1.13152   2 
   4   5   1 29.0944 1.37876  -1 
   4   3   7 29.0944 1.37876   2 
   5   5   1 165.070 2.65999  -1 
   5   3   7 165.070 2.65999   2 
   6   5   1 405.590 5.53610  -1 
   6   3   7 405.590 5.53610   2 
   7   5   1 3.41072 1.78934  -1 
   7   3   7 3.41072 1.78934   2 
   8   5   1 19.3528 3.05542  -1 
   8   3   7 19.3528 3.05542   2 
  -5   6   1 19.2383 4.24714   2 
  -4   6   1 46.4270 3.07645   2 
  -3   6   1 56.7657 3.13944   2 
  -2   6   1 19.8056 1.56239   2 
  -1   6   1 1.34046 1.08401   2 
   0   6   1 112.525 2.41053   2 
   1   6   1 70.0697 1.68553   2 
   2   6   1 4.53601 0.96632   2 
   3   6   1 8.43828 0.87774   2 
   4   6   1 143.963 2.18886   2 
   5   6   1 19.2903 3.23503   2 
   6   6   1 26.4313 3.88486   2 
   7   6   1 4.92852 5.75964   2 
  -4   7   1 5.14134 4.16305  -1 
  -4   4  10 5.14134 4.16305   2 
  -3   7   1 9.03118 3.64026  -1 
  -3   4  10 9.03118 3.64026   2 
  -2   7   1 157.373 4.90076  -1 
  -2   4  10 157.373 4.90076   2 
  -1   7   1 71.8064 2.86051  -1 
  -1   4  10 71.8064 2.86051   2 
   0   7   1 39.0042 2.54779  -1 
   0   4  10 39.0042 2.54779   2 
   1   7   1 435.964 7.32694  -1 
   1   4  10 435.964 7.32694   2 
   2   7   1 6.27882 1.75277  -1 
   2   4  10 6.27882 1.75277   2 
   3   7   1 9.88303 1.64124  -1 
   3   4  10 9.88303 1.64124   2 
   4   7   1 17.3073 1.74156  -1 
   4   4  10 17.3073 1.74156   2 
   5   7   1 9.81100 1.69476  -1 
   5   4  10 9.81100 1.69476   2 
   6   7   1 601.704 9.58934  -1 
   6   4  10 601.704 9.58934   2 
   7   7   1 15.1863 9.69729  -1 
   7   4  10 15.1863 9.69729   2 
  -3   8   1 6.35642 3.13965   2 
  -2   8   1 59.7409 4.46956   2 
  -1   8   1 8.26725 2.56414   2 
   0   8   1 3.69966 1.54457   2 
   1   8   1 20.6725 1.80048   2 
   2   8   1 13.5832 1.45290   2 
   3   8   1 7.94346 1.09705   2 
   4   8   1 11.5305 1.00882   2 
   5   8   1 1.64897 0.84839   2 
   6   8   1 5.40259 1.29883   2 
  -2   9   1 30.3608 5.79142  -1 
  -2   5  13 30.3608 5.79142   2 
  -1   9   1 8.92657 5.25188  -1 
  -1   5  13 8.92657 5.25188   2 
   0   9   1 3.48049 4.99629  -1 
   0   5  13 3.48049 4.99629   2 
   1   9   1 -2.9000 3.30845  -1 
   1   5  13 -2.9000 3.30845   2 
   2   9   1 3.64616 3.13199  -1 
   2   5  13 3.64616 3.13199   2 
   3   9   1 7.54291 2.74406  -1 
   3   5  13 7.54291 2.74406   2 
   4   9   1 14.9069 2.75034  -1 
   4   5  13 14.9069 2.75034   2 
   5   9   1 20.0677 3.95672  -1 
   5   5  13 20.0677 3.95672   2 
   1  10   1 1.58385 1.85177   2 
   2  10   1 5.49570 1.93664   2 
   3  10   1 2.88130 2.71730   2 
  -4  -9   2 14.0726 2.58814   2 
  -3  -9   2 113.823 3.31283   2 
  -2  -9   2 6.44755 1.59112   2 
  -1  -9   2 11.2530 1.67636   2 
   0  -9   2 2.72242 2.69096   2 
   1  -9   2 -1.5648 2.93917   2 
  -6  -8   2 0.65798 4.00733  -1 
   6   3  13 0.65798 4.00733   2 
  -5  -8   2 11.6310 2.89797  -1 
   5   3  13 11.6310 2.89797   2 
  -4  -8   2 30.8307 2.90476  -1 
   4   3  13 30.8307 2.90476   2 
  -3  -8   2 8.47964 2.67003  -1 
   3   3  13 8.47964 2.67003   2 
  -2  -8   2 8.28905 3.04500  -1 
   2   3  13 8.28905 3.04500   2 
  -1  -8   2 152.704 4.70773  -1 
   1   3  13 152.704 4.70773   2 
   0  -8   2 127.690 6.52497  -1 
   0   3  13 127.690 6.52497   2 
   1  -8   2 36.3433 5.34478  -1 
  -1   3  13 36.3433 5.34478   2 
   2  -8   2 59.8327 4.36237  -1 
  -2   3  13 59.8327 4.36237   2 
   3  -8   2 54.9080 4.53840  -1 
  -3   3  13 54.9080 4.53840   2 
  -6  -7   2 10.6949 1.40065   2 
  -5  -7   2 1.62603 0.90050   2 
  -4  -7   2 51.5535 1.70772   2 
  -3  -7   2 133.952 2.49260   2 
  -2  -7   2 63.8821 2.25880   2 
  -1  -7   2 47.6861 2.30087   2 
   0  -7   2 2.86628 1.32520   2 
   1  -7   2 -0.4102 1.26020   2 
   2  -7   2 15.6940 2.18152   2 
   3  -7   2 11.7831 2.21767   2 
   4  -7   2 5.55703 2.33280   2 
  -7  -6   2 17.9704 4.01869  -1 
   7   2  10 17.9704 4.01869   2 
  -6  -6   2 135.115 3.66032  -1 
   6   2  10 135.115 3.66032   2 
  -5  -6   2 8.68112 2.27310  -1 
   5   2  10 8.68112 2.27310   2 
  -4  -6   2 2.54575 1.80633  -1 
   4   2  10 2.54575 1.80633   2 
  -3  -6   2 5.16786 1.73280  -1 
   3   2  10 5.16786 1.73280   2 
  -2  -6   2 8.73108 1.72652  -1 
   2   2  10 8.73108 1.72652   2 
  -1  -6   2 12.4984 1.30568  -1 
   1   2  10 12.4984 1.30568   2 
   0  -6   2 33.0993 1.96637  -1 
   0   2  10 33.0993 1.96637   2 
   1  -6   2 119.636 3.28408  -1 
  -1   2  10 119.636 3.28408   2 
   2  -6   2 68.7224 3.54247  -1 
  -2   2  10 68.7224 3.54247   2 
   3  -6   2 352.464 7.54902  -1 
  -3   2  10 352.464 7.54902   2 
   4  -6   2 16.4147 3.61719  -1 
  -4   2  10 16.4147 3.61719   2 
   5  -6   2 33.1194 6.32155  -1 
  -5   2  10 33.1194 6.32155   2 
  -7  -5   2 1.13441 1.23421   2 
  -6  -5   2 94.3107 1.98860   2 
  -5  -5   2 17.0575 1.14991   2 
  -4  -5   2 106.885 1.98459   2 
  -3  -5   2 107.561 1.80159   2 
  -2  -5   2 3.27076 0.65387   2 
  -1  -5   2 42.4034 1.27008   2 
   0  -5   2 -0.3972 0.78137   2 
   1  -5   2 11.2554 1.00415   2 
   2  -5   2 39.0842 1.59065   2 
   3  -5   2 3.53007 1.61443   2 
   4  -5   2 1.65706 1.77790   2 
   5  -5   2 38.3976 5.13268   2 
   6  -5   2 0.45722 3.92141   2 
  -8  -4   2 11.4395 10.8411  -1 
   8   1   7 11.4395 10.8411   2 
  -7  -4   2 14.3357 3.29836  -1 
   7   1   7 14.3357 3.29836   2 
  -6  -4   2 5.98521 2.98665  -1 
   6   1   7 5.98521 2.98665   2 
  -5  -4   2 170.827 3.71802  -1 
   5   1   7 170.827 3.71802   2 
  -4  -4   2 5.55111 1.60443  -1 
   4   1   7 5.55111 1.60443   2 
  -3  -4   2 279.021 3.14012  -1 
   3   1   7 279.021 3.14012   2 
  -2  -4   2 1628.32 15.8159  -1 
   2   1   7 1628.32 15.8159   2 
  -1  -4   2 413.465 3.97785  -1 
   1   1   7 413.465 3.97785   2 
   0  -4   2 125.222 1.79037  -1 
   0   1   7 125.222 1.79037   2 
   1  -4   2 249.309 2.83514  -1 
  -1   1   7 249.309 2.83514   2 
   2  -4   2 130.531 2.04615  -1 
  -2   1   7 130.531 2.04615   2 
   3  -4   2 1196.85 14.1159  -1 
  -3   1   7 1196.85 14.1159   2 
   4  -4   2 56.5038 2.64403  -1 
  -4   1   7 56.5038 2.64403   2 
   5  -4   2 2.01825 3.20160  -1 
  -5   1   7 2.01825 3.20160   2 
   6  -4   2 27.1905 4.64558  -1 
  -6   1   7 27.1905 4.64558   2 
  -8  -3   2 0.37410 2.58028   2 
  -7  -3   2 32.0433 1.86081   2 
  -6  -3   2 1.92229 0.85730   2 
  -5  -3   2 386.608 4.69930   2 
  -4  -3   2 110.262 1.65680   2 
  -3  -3   2 62.5465 1.16414   2 
  -2  -3   2 132.863 1.51892   2 
  -1  -3   2 149.985 1.53327   2 
   0  -3   2 325.467 3.24739   2 
   1  -3   2 279.304 3.13127   2 
   2  -3   2 2.62382 0.58952   2 
   3  -3   2 66.2801 1.70716   2 
   4  -3   2 3.34542 1.22173   2 
   5  -3   2 34.4499 2.44120   2 
   6  -3   2 5.96723 2.66024   2 
   7  -3   2 -1.3417 3.00530   2 
  -8  -2   2 3.14116 4.59448  -1 
   8   0   4 3.14116 4.59448   2 
  -7  -2   2 18.5315 3.97174  -1 
   7   0   4 18.5315 3.97174   2 
  -6  -2   2 7.57381 3.03934  -1 
   6   0   4 7.57381 3.03934   2 
  -5  -2   2 7.78701 1.86617  -1 
   5   0   4 7.78701 1.86617   2 
  -4  -2   2 198.638 2.33949  -1 
   4   0   4 198.638 2.33949   2 
  -3  -2   2 1050.87 9.08102  -1 
   3   0   4 1050.87 9.08102   2 
  -2  -2   2 188.259 1.85723  -1 
   2   0   4 188.259 1.85723   2 
  -1  -2   2 405.844 3.64893  -1 
   1   0   4 405.844 3.64893   2 
   0  -2   2 579.531 5.49752  -1 
   0   0   4 579.531 5.49752   2 
   1  -2   2 16.5640 0.80771  -1 
  -1   0   4 16.5640 0.80771   2 
   2  -2   2 2758.46 24.3237  -1 
  -2   0   4 2758.46 24.3237   2 
   3  -2   2 144.763 1.96872  -1 
  -3   0   4 144.763 1.96872   2 
   4  -2   2 15.9374 1.37000  -1 
  -4   0   4 15.9374 1.37000   2 
   5  -2   2 62.8213 2.58429  -1 
  -5   0   4 62.8213 2.58429   2 
   6  -2   2 13.4459 2.61642  -1 
  -6   0   4 13.4459 2.61642   2 
   7  -2   2 -3.2736 3.09046  -1 
  -7   0   4 -3.2736 3.09046   2 
  -8  -1   2 24.5800 2.49002   2 
  -7  -1   2 40.6070 2.18759   2 
  -6  -1   2 2.59403 0.90057   2 
  -5  -1   2 383.889 4.69001   2 
  -4  -1   2 151.666 1.81013   2 
  -3  -1   2 44.9382 0.80529   2 
  -2  -1   2 495.417 4.37233   2 
  -1  -1   2 0.91654 0.33779   2 
   0  -1   2 10.3308 0.47209   2 
   1  -1   2 104.538 1.26683   2 
   2  -1   2 437.546 4.22573   2 
   3  -1   2 256.956 2.78336   2 
   4  -1   2 28.5652 1.15050   2 
   5  -1   2 323.359 4.07236   2 
   6  -1   2 13.9355 2.32878   2 
   7  -1   2 10.1958 2.50095   2 
   8  -1   2 -2.3228 2.79400   2 
  -8   0   2 42.9021 5.35117  -1 
   8  -1   1 42.9021 5.35117   2 
  -7   0   2 8.54039 9.31688  -1 
   7  -1   1 8.54039 9.31688   2 
  -6   0   2 41.9447 2.95123  -1 
   6  -1   1 41.9447 2.95123   2 
  -5   0   2 20.3608 1.72604  -1 
   5  -1   1 20.3608 1.72604   2 
  -4   0   2 5.46744 1.11639  -1 
   4  -1   1 5.46744 1.11639   2 
  -3   0   2 607.697 6.76267  -1 
   3  -1   1 607.697 6.76267   2 
  -2   0   2 541.680 5.44935  -1 
   2  -1   1 541.680 5.44935   2 
  -1   0   2 501.465 4.82216  -1 
   1  -1   1 501.465 4.82216   2 
   0   0   2 329.313 2.84874  -1 
   0  -1   1 329.313 2.84874   2 
   2   0   2 2583.28 24.0509  -1 
  -2  -1   1 2583.28 24.0509   2 
   3   0   2 59.5680 0.96153  -1 
  -3  -1   1 59.5680 0.96153   2 
   4   0   2 45.9038 1.01639  -1 
  -4  -1   1 45.9038 1.01639   2 
   5   0   2 -0.0161 2.01627  -1 
  -5  -1   1 -0.0161 2.01627   2 
   6   0   2 41.5261 2.63416  -1 
  -6  -1   1 41.5261 2.63416   2 
   7   0   2 18.3040 3.17046  -1 
  -7  -1   1 18.3040 3.17046   2 
   8   0   2 54.4350 5.25275  -1 
  -8  -1   1 54.4350 5.25275   2 
  -7   1   2 0.11155 1.47540   2 
  -6   1   2 59.8182 2.54343   2 
  -5   1   2 167.454 2.65964   2 
  -4   1   2 169.615 2.35279   2 
  -3   1   2 13.3979 0.86955   2 
  -2   1   2 129.804 2.00988   2 
  -1   1   2 35.5286 0.73493   2 
   0   1   2 544.182 4.14443   2 
   1   1   2 53.7243 0.61716   2 
   2   1   2 8.98429 0.42149   2 
   3   1   2 115.972 1.43927   2 
   4   1   2 15.6035 0.87491   2 
   5   1   2 85.3844 1.70832   2 
   6   1   2 56.6467 1.81940   2 
   7   1   2 47.1387 2.81295   2 
   8   1   2 2.38947 2.47948   2 
  -7   2   2 -4.5049 5.89091  -1 
  -7   2   2 -4.5049 5.89091   2 
  -6   2   2 11.5411 8.30836  -1 
  -6   2   2 11.5411 8.30836   2 
  -5   2   2 161.112 4.17208  -1 
  -5   2   2 161.112 4.17208   2 
  -4   2   2 2.00706 1.56122  -1 
  -4   2   2 2.00706 1.56122   2 
  -3   2   2 -2.0852 1.25077  -1 
  -3   2   2 -2.0852 1.25077   2 
  -2   2   2 112.713 1.91803  -1 
  -2   2   2 112.713 1.91803   2 
  -1   2   2 1.55225 0.99731  -1 
  -1   2   2 1.55225 0.99731   2 
   0   2   2 9999.99 101.009  -1 
   0   2   2 9999.99 101.009   2 
   2   2   2 4.67324 1.61756  -1 
   2   2   2 4.67324 1.61756   2 
   3   2   2 87.7222 2.42324  -1 
   3   2   2 87.7222 2.42324   2 
   4   2   2 137.691 1.88326  -1 
   4   2   2 137.691 1.88326   2 
   5   2   2 6.78915 1.08497  -1 
   5   2   2 6.78915 1.08497   2 
   6   2   2 190.093 3.09591  -1 
   6   2   2 190.093 3.09591   2 
   7   2   2 1.27496 1.65075  -1 
   7   2   2 1.27496 1.65075   2 
   8   2   2 61.0221 3.23838  -1 
   8   2   2 61.0221 3.23838   2 
  -7   3   2 26.3537 2.90944   2 
  -6   3   2 15.5545 2.77247   2 
  -5   3   2 21.1009 2.00979   2 
  -4   3   2 11.6340 1.26305   2 
  -3   3   2 80.5618 1.83330   2 
  -2   3   2 116.748 2.24277   2 
  -1   3   2 1.28563 0.55376   2 
   0   3   2 103.869 1.29062   2 
   1   3   2 1069.70 9.51410   2 
   2   3   2 17.6710 1.68147   2 
   3   3   2 38.0840 2.46437   2 
   4   3   2 85.4002 3.61202   2 
   5   3   2 2.43007 0.85870   2 
   6   3   2 2.29637 0.86559   2 
   7   3   2 19.0060 1.35964   2 
   8   3   2 10.1252 1.54127   2 
  -6   4   2 -4.9680 5.70216  -1 
  -6   3   5 -4.9680 5.70216   2 
  -5   4   2 152.006 7.07494  -1 
  -5   3   5 152.006 7.07494   2 
  -4   4   2 205.862 4.16505  -1 
  -4   3   5 205.862 4.16505   2 
  -3   4   2 213.768 3.15848  -1 
  -3   3   5 213.768 3.15848   2 
  -2   4   2 265.856 3.40681  -1 
  -2   3   5 265.856 3.40681   2 
  -1   4   2 3.16022 1.02014  -1 
  -1   3   5 3.16022 1.02014   2 
   0   4   2 203.981 2.50858  -1 
   0   3   5 203.981 2.50858   2 
   1   4   2 1073.21 9.68068  -1 
   1   3   5 1073.21 9.68068   2 
   2   4   2 0.56230 0.62224  -1 
   2   3   5 0.56230 0.62224   2 
   3   4   2 49.0894 1.01494  -1 
   3   3   5 49.0894 1.01494   2 
   4   4   2 99.1883 1.46103  -1 
   4   3   5 99.1883 1.46103   2 
   5   4   2 5.48093 1.03930  -1 
   5   3   5 5.48093 1.03930   2 
   6   4   2 9.55873 1.44521  -1 
   6   3   5 9.55873 1.44521   2 
   7   4   2 37.2958 1.88431  -1 
   7   3   5 37.2958 1.88431   2 
   8   4   2 66.9816 3.74260  -1 
   8   3   5 66.9816 3.74260   2 
  -6   5   2 13.1820 2.89601   2 
  -5   5   2 27.4807 2.63779   2 
  -4   5   2 36.8047 2.85906   2 
  -3   5   2 34.4243 4.27655   2 
  -2   5   2 22.4477 1.79011   2 
  -1   5   2 54.6422 1.79379   2 
   0   5   2 47.8327 1.40319   2 
   1   5   2 167.779 2.13550   2 
   2   5   2 112.011 1.95503   2 
   3   5   2 31.4187 1.04699   2 
   4   5   2 74.6431 4.12937   2 
   5   5   2 14.4820 2.61494   2 
   6   5   2 0.40913 2.59133   2 
   7   5   2 53.9155 4.27257   2 
   8   5   2 2.29636 4.47955   2 
  -5   6   2 52.6051 6.58721  -1 
  -5   4   8 52.6051 6.58721   2 
  -4   6   2 16.6072 3.51692  -1 
  -4   4   8 16.6072 3.51692   2 
  -3   6   2 154.460 4.83185  -1 
  -3   4   8 154.460 4.83185   2 
  -2   6   2 74.8430 3.52481  -1 
  -2   4   8 74.8430 3.52481   2 
  -1   6   2 0.14991 2.32296  -1 
  -1   4   8 0.14991 2.32296   2 
   0   6   2 636.446 7.83422  -1 
   0   4   8 636.446 7.83422   2 
   1   6   2 59.7825 1.65707  -1 
   1   4   8 59.7825 1.65707   2 
   2   6   2 52.1722 1.94057  -1 
   2   4   8 52.1722 1.94057   2 
   3   6   2 6.20250 1.49835  -1 
   3   4   8 6.20250 1.49835   2 
   4   6   2 190.180 2.95988  -1 
   4   4   8 190.180 2.95988   2 
   5   6   2 109.934 2.09296  -1 
   5   4   8 109.934 2.09296   2 
   6   6   2 32.2882 1.42780  -1 
   6   4   8 32.2882 1.42780   2 
   7   6   2 68.8496 2.26628  -1 
   7   4   8 68.8496 2.26628   2 
  -4   7   2 -1.3418 1.87545   2 
  -3   7   2 3.85121 1.88315   2 
  -2   7   2 2.70668 1.90288   2 
  -1   7   2 -0.1850 1.45839   2 
   0   7   2 85.6059 2.89410   2 
   1   7   2 56.8769 2.43343   2 
   2   7   2 33.9498 1.96583   2 
   3   7   2 0.70715 0.95043   2 
   4   7   2 15.4371 1.07050   2 
   5   7   2 -0.4408 0.73981   2 
   6   7   2 0.51241 5.35264   2 
   7   7   2 27.9147 6.80370   2 
  -3   8   2 36.4750 5.79763  -1 
  -3   5  11 36.4750 5.79763   2 
  -2   8   2 79.8361 5.87240  -1 
  -2   5  11 79.8361 5.87240   2 
  -1   8   2 39.6914 5.14367  -1 
  -1   5  11 39.6914 5.14367   2 
   0   8   2 4.09166 3.20857  -1 
   0   5  11 4.09166 3.20857   2 
   1   8   2 2.58093 3.12810  -1 
   1   5  11 2.58093 3.12810   2 
   2   8   2 -1.0655 2.50766  -1 
   2   5  11 -1.0655 2.50766   2 
   3   8   2 131.683 3.50940  -1 
   3   5  11 131.683 3.50940   2 
   4   8   2 160.446 3.72871  -1 
   4   5  11 160.446 3.72871   2 
   5   8   2 4.77503 2.10044  -1 
   5   5  11 4.77503 2.10044   2 
   6   8   2 30.1404 9.85182  -1 
   6   5  11 30.1404 9.85182   2 
  -2   9   2 3.52035 3.04619   2 
  -1   9   2 4.27546 2.78865   2 
   0   9   2 8.29459 1.77879   2 
   1   9   2 21.1741 1.99771   2 
   2   9   2 3.51359 1.53343   2 
   3   9   2 4.66781 1.41309   2 
   4   9   2 2.46971 1.29407   2 
   5   9   2 3.20498 1.82979   2 
   1  10   2 5.20712 5.18793  -1 
   1   6  14 5.20712 5.18793   2 
   2  10   2 9.45746 3.76506  -1 
   2   6  14 9.45746 3.76506   2 
   3  10   2 -4.3558 5.05889  -1 
   3   6  14 -4.3558 5.05889   2 
  -4  -9   3 10.6179 3.41956  -1 
   4   3  15 10.6179 3.41956   2 
  -3  -9   3 30.3980 5.59100  -1 
   3   3  15 30.3980 5.59100   2 
  -2  -9   3 219.152 8.45704  -1 
   2   3  15 219.152 8.45704   2 
  -1  -9   3 76.6983 6.57718  -1 
   1   3  15 76.6983 6.57718   2 
   0  -9   3 22.9775 6.07608  -1 
   0   3  15 22.9775 6.07608   2 
   1  -9   3 0.22682 6.11664  -1 
  -1   3  15 0.22682 6.11664   2 
  -5  -8   3 27.1228 3.23081   2 
  -4  -8   3 45.1578 2.22167   2 
  -3  -8   3 32.9828 2.17452   2 
  -2  -8   3 60.5166 2.47191   2 
  -1  -8   3 30.8708 2.31322   2 
   0  -8   3 76.3462 2.96535   2 
   1  -8   3 0.43551 2.46291   2 
   2  -8   3 17.9171 3.29803   2 
   3  -8   3 1.38816 2.89781   2 
  -6  -7   3 0.73088 3.90318  -1 
   6   2  12 0.73088 3.90318   2 
  -5  -7   3 5.87257 2.58283  -1 
   5   2  12 5.87257 2.58283   2 
  -4  -7   3 0.95790 2.67747  -1 
   4   2  12 0.95790 2.67747   2 
  -3  -7   3 17.5019 2.71703  -1 
   3   2  12 17.5019 2.71703   2 
  -2  -7   3 69.3554 3.07668  -1 
   2   2  12 69.3554 3.07668   2 
  -1  -7   3 3.04109 2.64480  -1 
   1   2  12 3.04109 2.64480   2 
   0  -7   3 44.9675 3.44994  -1 
   0   2  12 44.9675 3.44994   2 
   1  -7   3 26.8124 3.48484  -1 
  -1   2  12 26.8124 3.48484   2 
   2  -7   3 31.0840 3.80817  -1 
  -2   2  12 31.0840 3.80817   2 
   3  -7   3 185.815 5.60167  -1 
  -3   2  12 185.815 5.60167   2 
   4  -7   3 80.5224 6.98531  -1 
  -4   2  12 80.5224 6.98531   2 
  -7  -6   3 -2.3023 2.07781   2 
  -6  -6   3 8.92561 1.26409   2 
  -5  -6   3 44.6455 1.63702   2 
  -4  -6   3 50.3160 1.71312   2 
  -3  -6   3 97.7782 2.07040   2 
  -2  -6   3 14.9607 1.12564   2 
  -1  -6   3 55.5378 1.65782   2 
   0  -6   3 120.781 2.18000   2 
   1  -6   3 10.1354 1.23192   2 
   2  -6   3 0.14034 1.73771   2 
   3  -6   3 55.1168 3.37369   2 
   4  -6   3 -1.4925 1.90071   2 
   5  -6   3 11.6853 3.79222   2 
  -7  -5   3 18.9310 3.71163  -1 
   7   1   9 18.9310 3.71163   2 
  -6  -5   3 27.5526 3.69936  -1 
   6   1   9 27.5526 3.69936   2 
  -5  -5   3 0.83553 2.22254  -1 
   5   1   9 0.83553 2.22254   2 
  -4  -5   3 4.05931 1.71035  -1 
   4   1   9 4.05931 1.71035   2 
  -3  -5   3 17.1783 1.43008  -1 
   3   1   9 17.1783 1.43008   2 
  -2  -5   3 6.37916 1.37337  -1 
   2   1   9 6.37916 1.37337   2 
  -1  -5   3 34.4005 1.41627  -1 
   1   1   9 34.4005 1.41627   2 
   0  -5   3 5.05499 1.56101  -1 
   0   1   9 5.05499 1.56101   2 
   1  -5   3 215.166 2.77431  -1 
  -1   1   9 215.166 2.77431   2 
   2  -5   3 37.5441 2.21936  -1 
  -2   1   9 37.5441 2.21936   2 
   3  -5   3 48.5571 3.24772  -1 
  -3   1   9 48.5571 3.24772   2 
   4  -5   3 157.598 4.78977  -1 
  -4   1   9 157.598 4.78977   2 
   5  -5   3 15.6800 5.54838  -1 
  -5   1   9 15.6800 5.54838   2 
   6  -5   3 123.056 7.62526  -1 
  -6   1   9 123.056 7.62526   2 
  -7  -4   3 1.22611 1.27616   2 
  -6  -4   3 18.9724 1.43778   2 
  -5  -4   3 136.246 2.36960   2 
  -4  -4   3 39.5493 1.55552   2 
  -3  -4   3 7.48085 0.76185   2 
  -2  -4   3 0.40596 0.60247   2 
  -1  -4   3 0.85265 0.63479   2 
   0  -4   3 3.00487 0.61998   2 
   1  -4   3 4.50840 0.63680   2 
   2  -4   3 28.5990 1.32337   2 
   3  -4   3 219.424 3.00888   2 
   4  -4   3 24.9642 2.18064   2 
   5  -4   3 -2.6551 2.83208   2 
   6  -4   3 8.56656 3.03069   2 
  -8  -3   3 3.78054 2.88723   2 
  -7  -3   3 43.6348 4.07484  -1 
   7   0   6 43.6348 4.07484   2 
  -6  -3   3 9.69120 3.63926  -1 
   6   0   6 9.69120 3.63926   2 
  -5  -3   3 838.757 12.8178  -1 
   5   0   6 838.757 12.8178   2 
  -4  -3   3 277.464 3.07340  -1 
   4   0   6 277.464 3.07340   2 
  -3  -3   3 78.0061 1.48992  -1 
   3   0   6 78.0061 1.48992   2 
  -2  -3   3 67.7915 1.21126  -1 
   2   0   6 67.7915 1.21126   2 
  -1  -3   3 171.650 2.00689  -1 
   1   0   6 171.650 2.00689   2 
   0  -3   3 238.015 2.58601  -1 
   0   0   6 238.015 2.58601   2 
   1  -3   3 3636.67 33.2900  -1 
  -1   0   6 3636.67 33.2900   2 
   2  -3   3 38.9908 1.33220  -1 
  -2   0   6 38.9908 1.33220   2 
   3  -3   3 17.4206 1.41726  -1 
  -3   0   6 17.4206 1.41726   2 
   4  -3   3 350.294 4.85991  -1 
  -4   0   6 350.294 4.85991   2 
   5  -3   3 11.1370 2.74786  -1 
  -5   0   6 11.1370 2.74786   2 
   6  -3   3 6.88358 2.88181  -1 
  -6   0   6 6.88358 2.88181   2 
   7  -3   3 38.0743 4.71856  -1 
  -7   0   6 38.0743 4.71856   2 
  -8  -2   3 -0.7761 2.89671   2 
  -7  -2   3 20.3877 1.74020   2 
  -6  -2   3 29.8843 1.53872   2 
  -5  -2   3 123.045 2.25237   2 
  -4  -2   3 506.675 4.85772   2 
  -3  -2   3 0.79718 0.43899   2 
  -2  -2   3 611.152 5.01497   2 
  -1  -2   3 24.6544 0.63495   2 
   0  -2   3 97.1060 1.31076   2 
   1  -2   3 695.404 6.27104   2 
   2  -2   3 42.0487 1.01942   2 
   3  -2   3 389.181 4.33509   2 
   4  -2   3 248.516 3.49270   2 
   5  -2   3 21.9415 1.72959   2 
   6  -2   3 17.9592 2.66218   2 
   7  -2   3 3.34535 2.78670   2 
  -8  -1   3 28.1383 5.41244  -1 
   8  -1   3 28.1383 5.41244   2 
  -7  -1   3 38.2624 4.56440  -1 
   7  -1   3 38.2624 4.56440   2 
  -6  -1   3 77.1460 4.45268  -1 
   6  -1   3 77.1460 4.45268   2 
  -5  -1   3 826.443 12.6762  -1 
   5  -1   3 826.443 12.6762   2 
  -4  -1   3 35.3740 1.35909  -1 
   4  -1   3 35.3740 1.35909   2 
  -3  -1   3 162.028 1.95635  -1 
   3  -1   3 162.028 1.95635   2 
  -2  -1   3 440.738 4.69375  -1 
   2  -1   3 440.738 4.69375   2 
  -1  -1   3 1682.49 15.5365  -1 
   1  -1   3 1682.49 15.5365   2 
   0  -1   3 232.589 2.22682  -1 
   0  -1   3 232.589 2.22682   2 
   1  -1   3 1746.73 14.9463  -1 
  -1  -1   3 1746.73 14.9463   2 
   2  -1   3 436.589 3.91290  -1 
  -2  -1   3 436.589 3.91290   2 
   3  -1   3 166.419 1.80794  -1 
  -3  -1   3 166.419 1.80794   2 
   4  -1   3 37.9245 1.17273  -1 
  -4  -1   3 37.9245 1.17273   2 
   5  -1   3 830.274 9.33011  -1 
  -5  -1   3 830.274 9.33011   2 
   6  -1   3 79.8955 2.60598  -1 
  -6  -1   3 79.8955 2.60598   2 
   7  -1   3 44.2859 2.66137  -1 
  -7  -1   3 44.2859 2.66137   2 
   8  -1   3 26.7441 5.16056  -1 
  -8  -1   3 26.7441 5.16056   2 
  -7   0   3 19.3052 1.98561   2 
  -6   0   3 62.8290 2.26525   2 
  -5   0   3 73.0553 1.89601   2 
  -4   0   3 13.4513 0.81640   2 
  -3   0   3 307.785 3.29160   2 
  -2   0   3 322.395 3.18716   2 
  -1   0   3 207.529 2.05044   2 
   0   0   3 0.33742 0.35658   2 
   1   0   3 4.89527 0.37289   2 
   2   0   3 326.297 2.73501   2 
   3   0   3 35.3546 0.66440   2 
   4   0   3 315.147 3.27062   2 
   5   0   3 135.319 2.81054   2 
   6   0   3 2.96404 1.26451   2 
   7   0   3 63.7410 3.84467   2 
   8   0   3 28.8537 3.25750   2 
  -7   1   3 17.4006 4.85062  -1 
  -7   2   0 17.4006 4.85062   2 
  -6   1   3 49.4643 4.68648  -1 
  -6   2   0 49.4643 4.68648   2 
  -5   1   3 14.8744 2.08047  -1 
  -5   2   0 14.8744 2.08047   2 
  -4   1   3 19.7320 1.48763  -1 
  -4   2   0 19.7320 1.48763   2 
  -3   1   3 38.5782 1.24534  -1 
  -3   2   0 38.5782 1.24534   2 
  -2   1   3 24.6349 1.11679  -1 
  -2   2   0 24.6349 1.11679   2 
  -1   1   3 157.388 2.02916  -1 
  -1   2   0 157.388 2.02916   2 
   0   1   3 7422.13 65.6558  -1 
   0   2   0 7422.13 65.6558   2 
   1   1   3 345.443 3.35546  -1 
   1   2   0 345.443 3.35546   2 
   2   1   3 117.700 1.63647  -1 
   2   2   0 117.700 1.63647   2 
   3   1   3 150.218 1.85874  -1 
   3   2   0 150.218 1.85874   2 
   4   1   3 323.890 3.83870  -1 
   4   2   0 323.890 3.83870   2 
   5   1   3 15.6025 1.18609  -1 
   5   2   0 15.6025 1.18609   2 
   6   1   3 31.4909 2.00777  -1 
   6   2   0 31.4909 2.00777   2 
   7   1   3 100.535 2.60357  -1 
   7   2   0 100.535 2.60357   2 
   8   1   3 30.6039 2.86706  -1 
   8   2   0 30.6039 2.86706   2 
  -7   2   3 12.7214 3.22921   2 
  -6   2   3 5.14728 1.54167   2 
  -5   2   3 116.563 2.55259   2 
  -4   2   3 0.96084 0.85795   2 
  -3   2   3 82.9893 1.73929   2 
  -2   2   3 7.38168 0.64009   2 
  -1   2   3 7.14049 0.50000   2 
   0   2   3 632.779 5.31698   2 
   1   2   3 362.700 3.29640   2 
   2   2   3 4.60504 0.40440   2 
   3   2   3 48.5589 1.00837   2 
   4   2   3 3.82034 0.54729   2 
   5   2   3 15.4168 1.05140   2 
   6   2   3 1.54577 0.96845   2 
   7   2   3 45.1993 2.08520   2 
   8   2   3 7.33294 2.37434   2 
  -7   3   3 2.66844 5.97692  -1 
  -7   3   3 2.66844 5.97692   2 
  -6   3   3 99.3974 7.08373  -1 
  -6   3   3 99.3974 7.08373   2 
  -5   3   3 229.627 4.53334  -1 
  -5   3   3 229.627 4.53334   2 
  -4   3   3 160.563 4.53251  -1 
  -4   3   3 160.563 4.53251   2 
  -3   3   3 194.824 3.19049  -1 
  -3   3   3 194.824 3.19049   2 
  -2   3   3 432.520 5.44341  -1 
  -2   3   3 432.520 5.44341   2 
  -1   3   3 355.924 4.47910  -1 
  -1   3   3 355.924 4.47910   2 
   0   3   3 52.2936 1.09756  -1 
   0   3   3 52.2936 1.09756   2 
   1   3   3 27.9838 0.72191  -1 
   1   3   3 27.9838 0.72191   2 
   2   3   3 15.9901 0.62180  -1 
   2   3   3 15.9901 0.62180   2 
   3   3   3 125.395 4.83415  -1 
   3   3   3 125.395 4.83415   2 
   4   3   3 828.841 19.3317  -1 
   4   3   3 828.841 19.3317   2 
   5   3   3 44.0618 1.70358  -1 
   5   3   3 44.0618 1.70358   2 
   6   3   3 21.6639 1.32584  -1 
   6   3   3 21.6639 1.32584   2 
   7   3   3 197.962 3.53867  -1 
   7   3   3 197.962 3.53867   2 
   8   3   3 31.5297 3.58802  -1 
   8   3   3 31.5297 3.58802   2 
  -6   4   3 1.15317 2.47275   2 
  -5   4   3 -0.2566 1.59117   2 
  -4   4   3 50.7495 2.40114   2 
  -3   4   3 5.12367 0.97668   2 
  -2   4   3 0.97638 0.76306   2 
  -1   4   3 62.6859 1.37084   2 
   0   4   3 42.5505 1.00405   2 
   1   4   3 714.755 7.82874   2 
   2   4   3 165.221 2.37709   2 
   3   4   3 104.065 5.05100   2 
   4   4   3 119.783 6.11648   2 
   5   4   3 2.72616 3.31002   2 
   6   4   3 18.1258 3.60556   2 
   7   4   3 19.1904 1.26604   2 
   8   4   3 2.68970 1.16564   2 
  -6   5   3 12.7032 6.34465  -1 
  -6   4   6 12.7032 6.34465   2 
  -5   5   3 128.583 7.03532  -1 
  -5   4   6 128.583 7.03532   2 
  -4   5   3 152.547 4.67937  -1 
  -4   4   6 152.547 4.67937   2 
  -3   5   3 165.471 4.58126  -1 
  -3   4   6 165.471 4.58126   2 
  -2   5   3 23.4492 2.08147  -1 
  -2   4   6 23.4492 2.08147   2 
  -1   5   3 411.409 5.38327  -1 
  -1   4   6 411.409 5.38327   2 
   0   5   3 166.785 2.70684  -1 
   0   4   6 166.785 2.70684   2 
   1   5   3 53.3512 1.33213  -1 
   1   4   6 53.3512 1.33213   2 
   2   5   3 254.217 3.25265  -1 
   2   4   6 254.217 3.25265   2 
   3   5   3 37.2627 1.22790  -1 
   3   4   6 37.2627 1.22790   2 
   4   5   3 18.5834 0.99429  -1 
   4   4   6 18.5834 0.99429   2 
   5   5   3 55.5102 1.52838  -1 
   5   4   6 55.5102 1.52838   2 
   6   5   3 43.7979 2.08169  -1 
   6   4   6 43.7979 2.08169   2 
   7   5   3 45.0951 1.77961  -1 
   7   4   6 45.0951 1.77961   2 
   8   5   3 104.099 2.68390  -1 
   8   4   6 104.099 2.68390   2 
  -5   6   3 -1.2564 2.67782   2 
  -4   6   3 42.0883 2.77303   2 
  -3   6   3 -0.0782 1.53436   2 
  -2   6   3 2.41470 1.07223   2 
  -1   6   3 18.9878 1.56799   2 
   0   6   3 36.8894 1.61445   2 
   1   6   3 42.9485 1.74799   2 
   2   6   3 37.6674 1.93498   2 
   3   6   3 31.0231 1.55404   2 
   4   6   3 29.0181 1.62094   2 
   5   6   3 3.84710 3.66989   2 
   6   6   3 22.2591 4.29687   2 
   7   6   3 1.03820 4.20615   2 
  -4   7   3 61.4416 4.47915  -1 
  -4   5   9 61.4416 4.47915   2 
  -3   7   3 77.7292 4.30175  -1 
  -3   5   9 77.7292 4.30175   2 
  -2   7   3 92.0005 4.07059  -1 
  -2   5   9 92.0005 4.07059   2 
  -1   7   3 23.6104 2.49391  -1 
  -1   5   9 23.6104 2.49391   2 
   0   7   3 49.5751 2.94991  -1 
   0   5   9 49.5751 2.94991   2 
   1   7   3 2.20408 2.50843  -1 
   1   5   9 2.20408 2.50843   2 
   2   7   3 67.9664 2.26476  -1 
   2   5   9 67.9664 2.26476   2 
   3   7   3 18.7963 1.62889  -1 
   3   5   9 18.7963 1.62889   2 
   4   7   3 4.72623 1.44132  -1 
   4   5   9 4.72623 1.44132   2 
   5   7   3 6.18303 1.29323  -1 
   5   5   9 6.18303 1.29323   2 
   6   7   3 34.6960 1.42580  -1 
   6   5   9 34.6960 1.42580   2 
   7   7   3 185.227 3.69826  -1 
   7   5   9 185.227 3.69826   2 
  -3   8   3 29.1961 4.30009   2 
  -1   8   3 28.3632 3.88882   2 
   0   8   3 -0.1162 1.49866   2 
   1   8   3 24.4867 2.34772   2 
   2   8   3 31.2911 2.20208   2 
   3   8   3 1.63198 1.21593   2 
   4   8   3 0.04447 0.86234   2 
   5   8   3 24.3237 1.45774   2 
   6   8   3 24.7233 6.26747   2 
  -1   9   3 12.8682 5.38101  -1 
  -1   6  12 12.8682 5.38101   2 
   0   9   3 -1.3290 4.99950  -1 
   0   6  12 -1.3290 4.99950   2 
   1   9   3 141.911 4.72450  -1 
   1   6  12 141.911 4.72450   2 
   2   9   3 17.6094 3.07341  -1 
   2   6  12 17.6094 3.07341   2 
   3   9   3 2.10455 2.87773  -1 
   3   6  12 2.10455 2.87773   2 
   4   9   3 8.92667 2.57921  -1 
   4   6  12 8.92667 2.57921   2 
   5   9   3 13.9859 3.61288  -1 
   5   6  12 13.9859 3.61288   2 
   1  10   3 1.59298 1.66558   2 
   2  10   3 7.39564 2.82150   2 
   3  10   3 1.36565 2.53645   2 
  -3  -9   4 4.42603 1.56053   2 
  -2  -9   4 22.5221 2.40398   2 
  -1  -9   4 14.4882 2.67887   2 
   0  -9   4 4.65664 2.94917   2 
  -5  -8   4 0.36510 4.48161  -1 
   5   2  14 0.36510 4.48161   2 
  -4  -8   4 63.3609 3.62286  -1 
   4   2  14 63.3609 3.62286   2 
  -3  -8   4 10.2695 3.10180  -1 
   3   2  14 10.2695 3.10180   2 
  -2  -8   4 10.4426 4.62495  -1 
   2   2  14 10.4426 4.62495   2 
  -1  -8   4 6.16161 4.53775  -1 
   1   2  14 6.16161 4.53775   2 
   0  -8   4 22.4350 5.48333  -1 
   0   2  14 22.4350 5.48333   2 
   1  -8   4 4.26728 5.42794  -1 
  -1   2  14 4.26728 5.42794   2 
   2  -8   4 100.802 5.00972  -1 
  -2   2  14 100.802 5.00972   2 
  -6  -7   4 0.24236 2.34943   2 
  -5  -7   4 18.8423 1.72022   2 
  -4  -7   4 96.9271 2.74295   2 
  -3  -7   4 27.3691 2.01790   2 
  -2  -7   4 277.374 4.81691   2 
  -1  -7   4 132.141 3.07619   2 
   0  -7   4 1.03538 1.45603   2 
   1  -7   4 2.63558 2.07014   2 
   2  -7   4 6.08250 2.03930   2 
   3  -7   4 3.59374 2.90964   2 
   4  -7   4 4.23731 2.40767   2 
  -6  -6   4 32.5371 4.63150  -1 
   6   1  11 32.5371 4.63150   2 
  -5  -6   4 -1.6553 2.47554  -1 
   5   1  11 -1.6553 2.47554   2 
  -4  -6   4 1.35782 2.65598  -1 
   4   1  11 1.35782 2.65598   2 
  -3  -6   4 10.8649 2.50652  -1 
   3   1  11 10.8649 2.50652   2 
  -2  -6   4 11.2859 2.07605  -1 
   2   1  11 11.2859 2.07605   2 
  -1  -6   4 129.214 3.04506  -1 
   1   1  11 129.214 3.04506   2 
   0  -6   4 223.470 3.94277  -1 
   0   1  11 223.470 3.94277   2 
   1  -6   4 91.8793 3.74883  -1 
  -1   1  11 91.8793 3.74883   2 
   2  -6   4 41.9710 3.58838  -1 
  -2   1  11 41.9710 3.58838   2 
   3  -6   4 73.8632 4.01389  -1 
  -3   1  11 73.8632 4.01389   2 
   4  -6   4 61.6142 5.96466  -1 
  -4   1  11 61.6142 5.96466   2 
   5  -6   4 235.164 9.59833  -1 
  -5   1  11 235.164 9.59833   2 
  -7  -5   4 3.44685 2.30703   2 
  -6  -5   4 5.76259 1.25637   2 
  -5  -5   4 55.6904 1.76860   2 
  -4  -5   4 10.7575 1.00041   2 
  -3  -5   4 10.7790 1.07688   2 
  -2  -5   4 114.365 2.02329   2 
  -1  -5   4 110.096 1.99923   2 
   0  -5   4 83.8716 1.84807   2 
   1  -5   4 0.35227 0.94193   2 
   2  -5   4 21.1757 1.47564   2 
   3  -5   4 9.77229 1.79964   2 
   4  -5   4 15.4719 2.04532   2 
   5  -5   4 21.2966 3.81876   2 
   6  -5   4 5.70389 3.62630   2 
  -7  -4   4 -2.7303 4.26895  -1 
   7   0   8 -2.7303 4.26895   2 
  -6  -4   4 4.18236 3.67656  -1 
   6   0   8 4.18236 3.67656   2 
  -5  -4   4 84.4980 4.05405  -1 
   5   0   8 84.4980 4.05405   2 
  -4  -4   4 17.3698 1.92806  -1 
   4   0   8 17.3698 1.92806   2 
  -3  -4   4 74.0083 1.72811  -1 
   3   0   8 74.0083 1.72811   2 
  -2  -4   4 123.897 2.05905  -1 
   2   0   8 123.897 2.05905   2 
  -1  -4   4 144.260 2.00625  -1 
   1   0   8 144.260 2.00625   2 
   0  -4   4 116.161 1.81830  -1 
   0   0   8 116.161 1.81830   2 
   1  -4   4 53.0607 1.43868  -1 
  -1   0   8 53.0607 1.43868   2 
   2  -4   4 55.9904 1.57600  -1 
  -2   0   8 55.9904 1.57600   2 
   3  -4   4 11.4134 2.34447  -1 
  -3   0   8 11.4134 2.34447   2 
   4  -4   4 242.193 4.54796  -1 
  -4   0   8 242.193 4.54796   2 
   5  -4   4 4.00240 3.24163  -1 
  -5   0   8 4.00240 3.24163   2 
   6  -4   4 6.16347 4.69278  -1 
  -6   0   8 6.16347 4.69278   2 
  -7  -3   4 12.9569 1.51929   2 
  -6  -3   4 14.8323 1.43115   2 
  -5  -3   4 371.587 4.88454   2 
  -4  -3   4 14.1543 1.07304   2 
  -3  -3   4 124.768 1.59143   2 
  -2  -3   4 151.021 1.86931   2 
  -1  -3   4 6.59690 0.53824   2 
   0  -3   4 1.79701 0.49092   2 
   1  -3   4 255.868 2.76777   2 
   2  -3   4 167.578 2.17066   2 
   3  -3   4 26.6337 1.83559   2 
   4  -3   4 19.2792 1.92923   2 
   5  -3   4 1.07896 2.40509   2 
   6  -3   4 44.9083 4.26346   2 
   7  -3   4 3.63567 2.93478   2 
  -7  -2   4 2.59816 4.16417  -1 
   7  -1   5 2.59816 4.16417   2 
  -6  -2   4 -0.8779 3.35629  -1 
   6  -1   5 -0.8779 3.35629   2 
  -5  -2   4 189.025 4.47098  -1 
   5  -1   5 189.025 4.47098   2 
  -4  -2   4 12.3053 1.26178  -1 
   4  -1   5 12.3053 1.26178   2 
  -3  -2   4 164.138 2.28634  -1 
   3  -1   5 164.138 2.28634   2 
  -2  -2   4 3053.04 28.0026  -1 
   2  -1   5 3053.04 28.0026   2 
  -1  -2   4 736.445 6.99515  -1 
   1  -1   5 736.445 6.99515   2 
   0  -2   4 1055.24 9.86531  -1 
   0  -1   5 1055.24 9.86531   2 
   1  -2   4 429.705 4.66921  -1 
  -1  -1   5 429.705 4.66921   2 
   2  -2   4 392.103 3.94152  -1 
  -2  -1   5 392.103 3.94152   2 
   3  -2   4 24.8186 1.22649  -1 
  -3  -1   5 24.8186 1.22649   2 
   4  -2   4 1520.88 14.9572  -1 
  -4  -1   5 1520.88 14.9572   2 
   5  -2   4 38.2617 2.64760  -1 
  -5  -1   5 38.2617 2.64760   2 
   6  -2   4 34.0263 2.79826  -1 
  -6  -1   5 34.0263 2.79826   2 
   7  -2   4 13.4294 2.95782  -1 
  -7  -1   5 13.4294 2.95782   2 
  -7  -1   4 14.6847 1.72988   2 
  -6  -1   4 74.1876 2.39350   2 
  -5  -1   4 4.87947 0.97385   2 
  -4  -1   4 407.567 4.19542   2 
  -3  -1   4 243.049 2.75630   2 
  -2  -1   4 283.299 2.88537   2 
  -1  -1   4 709.099 6.66354   2 
   0  -1   4 0.72017 0.39355   2 
   1  -1   4 461.886 4.88176   2 
   2  -1   4 828.819 7.78522   2 
   3  -1   4 111.943 1.54267   2 
   4  -1   4 432.068 4.83327   2 
   5  -1   4 14.2510 1.51716   2 
   6  -1   4 75.5338 3.84235   2 
   7  -1   4 21.9895 2.81447   2 
  -7   0   4 1.37024 9.82065  -1 
   7  -2   2 1.37024 9.82065   2 
  -6   0   4 6.54774 4.19822  -1 
   6  -2   2 6.54774 4.19822   2 
  -5   0   4 62.4618 2.97743  -1 
   5  -2   2 62.4618 2.97743   2 
  -4   0   4 12.0536 1.51179  -1 
   4  -2   2 12.0536 1.51179   2 
  -3   0   4 146.292 2.05372  -1 
   3  -2   2 146.292 2.05372   2 
  -2   0   4 2671.12 26.9241  -1 
   2  -2   2 2671.12 26.9241   2 
  -1   0   4 15.4558 0.74367  -1 
   1  -2   2 15.4558 0.74367   2 
   0   0   4 590.061 5.18999  -1 
   0  -2   2 590.061 5.18999   2 
   1   0   4 407.658 3.52773  -1 
  -1  -2   2 407.658 3.52773   2 
   2   0   4 190.814 1.84260  -1 
  -2  -2   2 190.814 1.84260   2 
   3   0   4 1099.15 9.18944  -1 
  -3  -2   2 1099.15 9.18944   2 
   4   0   4 194.821 2.38930  -1 
  -4  -2   2 194.821 2.38930   2 
   5   0   4 6.86162 1.45728  -1 
  -5  -2   2 6.86162 1.45728   2 
   6   0   4 7.63351 1.48717  -1 
  -6  -2   2 7.63351 1.48717   2 
   7   0   4 25.4606 2.23300  -1 
  -7  -2   2 25.4606 2.23300   2 
   8   0   4 13.6616 3.66974  -1 
  -8  -2   2 13.6616 3.66974   2 
  -7   1   4 20.9557 2.25219   2 
  -6   1   4 72.4530 2.69398   2 
  -5   1   4 49.9883 1.89829   2 
  -4   1   4 143.239 2.20722   2 
  -3   1   4 41.9273 1.37456   2 
  -2   1   4 4.70852 0.56774   2 
  -1   1   4 184.186 1.98697   2 
   0   1   4 0.81874 0.33787   2 
   1   1   4 -0.1447 0.31477   2 
   2   1   4 7.65527 0.36919   2 
   3   1   4 107.562 1.29659   2 
   4   1   4 158.264 2.07518   2 
   5   1   4 1.26795 1.17882   2 
   6   1   4 145.483 3.18808   2 
   7   1   4 17.5553 2.43398   2 
   8   1   4 2.23488 2.45229   2 
  -6   2   4 77.8277 5.21345  -1 
  -6   3   1 77.8277 5.21345   2 
  -5   2   4 48.6683 3.30373  -1 
  -5   3   1 48.6683 3.30373   2 
  -4   2   4 24.5691 2.07020  -1 
  -4   3   1 24.5691 2.07020   2 
  -3   2   4 1.95397 1.53512  -1 
  -3   3   1 1.95397 1.53512   2 
  -2   2   4 418.898 5.23183  -1 
  -2   3   1 418.898 5.23183   2 
  -1   2   4 152.467 2.12537  -1 
  -1   3   1 152.467 2.12537   2 
   0   2   4 5.17983 0.80501  -1 
   0   3   1 5.17983 0.80501   2 
   1   2   4 551.989 5.24843  -1 
   1   3   1 551.989 5.24843   2 
   2   2   4 345.686 4.91002  -1 
   2   3   1 345.686 4.91002   2 
   3   2   4 505.456 10.0842  -1 
   3   3   1 505.456 10.0842   2 
   4   2   4 3.24462 2.34484  -1 
   4   3   1 3.24462 2.34484   2 
   5   2   4 10.1033 0.85827  -1 
   5   3   1 10.1033 0.85827   2 
   6   2   4 36.7145 1.51917  -1 
   6   3   1 36.7145 1.51917   2 
   7   2   4 116.347 1.94022  -1 
   7   3   1 116.347 1.94022   2 
   8   2   4 19.3977 4.58414  -1 
   8   3   1 19.3977 4.58414   2 
  -6   3   4 -1.2394 2.97741   2 
  -5   3   4 1.84426 1.60686   2 
  -4   3   4 25.9275 1.76476   2 
  -3   3   4 57.4828 1.77168   2 
  -2   3   4 119.514 2.07673   2 
  -1   3   4 30.3564 1.11173   2 
   0   3   4 56.8545 1.05480   2 
   1   3   4 719.400 6.02956   2 
   2   3   4 93.3587 1.26758   2 
   3   3   4 99.9123 1.77515   2 
   4   3   4 120.988 8.72171   2 
   5   3   4 4.02436 1.00407   2 
   6   3   4 -0.3851 0.87237   2 
   7   3   4 1.33857 1.08997   2 
   8   3   4 7.07922 6.60126   2 
  -6   4   4 57.2176 6.91496  -1 
  -6   4   4 57.2176 6.91496   2 
  -5   4   4 41.0750 3.50712  -1 
  -5   4   4 41.0750 3.50712   2 
  -4   4   4 419.402 8.54745  -1 
  -4   4   4 419.402 8.54745   2 
  -3   4   4 159.154 3.15079  -1 
  -3   4   4 159.154 3.15079   2 
  -2   4   4 123.396 2.28572  -1 
  -2   4   4 123.396 2.28572   2 
  -1   4   4 381.728 4.38866  -1 
  -1   4   4 381.728 4.38866   2 
   0   4   4 185.736 2.68979  -1 
   0   4   4 185.736 2.68979   2 
   1   4   4 6087.65 68.5194  -1 
   1   4   4 6087.65 68.5194   2 
   2   4   4 2967.83 36.1339  -1 
   2   4   4 2967.83 36.1339   2 
   3   4   4 10.6190 0.99830  -1 
   3   4   4 10.6190 0.99830   2 
   4   4   4 41.7895 7.96384  -1 
   4   4   4 41.7895 7.96384   2 
   5   4   4 9.89561 4.74256  -1 
   5   4   4 9.89561 4.74256   2 
   6   4   4 1.72619 3.11810  -1 
   6   4   4 1.72619 3.11810   2 
   7   4   4 204.190 4.84507  -1 
   7   4   4 204.190 4.84507   2 
   8   4   4 7.56813 1.37230  -1 
   8   4   4 7.56813 1.37230   2 
  -5   5   4 3.18031 1.93523   2 
  -4   5   4 4.23714 1.93532   2 
  -3   5   4 1.94939 1.64665   2 
  -2   5   4 23.1365 1.85634   2 
  -1   5   4 71.8444 1.84243   2 
   0   5   4 1.12661 0.80067   2 
   1   5   4 20.3131 1.09273   2 
   2   5   4 445.076 6.22960   2 
   3   5   4 98.1843 1.74142   2 
   4   5   4 74.2151 9.61227   2 
   5   5   4 66.9665 5.28843   2 
   6   5   4 2.45160 3.44258   2 
   7   5   4 18.2566 6.26821   2 
   8   5   4 5.20816 6.59103   2 
  -5   6   4 -1.8529 6.48879  -1 
  -5   5   7 -1.8529 6.48879   2 
  -4   6   4 46.8332 3.92366  -1 
  -4   5   7 46.8332 3.92366   2 
  -3   6   4 111.187 4.23921  -1 
  -3   5   7 111.187 4.23921   2 
  -2   6   4 97.3685 3.85407  -1 
  -2   5   7 97.3685 3.85407   2 
  -1   6   4 186.583 3.76490  -1 
  -1   5   7 186.583 3.76490   2 
   0   6   4 52.8097 2.42954  -1 
   0   5   7 52.8097 2.42954   2 
   1   6   4 190.331 3.42743  -1 
   1   5   7 190.331 3.42743   2 
   2   6   4 158.109 2.90146  -1 
   2   5   7 158.109 2.90146   2 
   3   6   4 -0.6983 1.52883  -1 
   3   5   7 -0.6983 1.52883   2 
   4   6   4 15.7614 1.25354  -1 
   4   5   7 15.7614 1.25354   2 
   5   6   4 102.082 2.13380  -1 
   5   5   7 102.082 2.13380   2 
   6   6   4 38.3677 8.62250  -1 
   6   5   7 38.3677 8.62250   2 
   7   6   4 24.0447 9.09423  -1 
   7   5   7 24.0447 9.09423   2 
  -4   7   4 13.7572 2.47481   2 
  -3   7   4 37.5440 3.13265   2 
  -2   7   4 3.15476 2.19313   2 
  -1   7   4 4.86913 1.45915   2 
   0   7   4 9.36413 1.44104   2 
   1   7   4 2.34376 1.24515   2 
   2   7   4 26.8940 1.94180   2 
   3   7   4 20.0122 1.69676   2 
   4   7   4 5.58107 0.84886   2 
  -3   8   4 14.5208 5.07792  -1 
  -3   6  10 14.5208 5.07792   2 
  -2   8   4 18.0355 4.89546  -1 
  -2   6  10 18.0355 4.89546   2 
  -1   8   4 2.42831 4.39683  -1 
  -1   6  10 2.42831 4.39683   2 
   0   8   4 87.8076 3.73092  -1 
   0   6  10 87.8076 3.73092   2 
   1   8   4 13.1331 2.92405  -1 
   1   6  10 13.1331 2.92405   2 
   2   8   4 4.65590 2.66264  -1 
   2   6  10 4.65590 2.66264   2 
   3   8   4 -0.4466 2.53280  -1 
   3   6  10 -0.4466 2.53280   2 
   4   8   4 -0.4392 2.15185  -1 
   4   6  10 -0.4392 2.15185   2 
   5   8   4 24.3090 2.09873  -1 
   5   6  10 24.3090 2.09873   2 
   6   8   4 42.1482 2.09986  -1 
   6   6  10 42.1482 2.09986   2 
  -1   9   4 5.91375 2.61203   2 
   0   9   4 0.56774 1.69562   2 
   1   9   4 20.9863 2.04314   2 
   2   9   4 16.1937 1.67300   2 
   3   9   4 8.60363 1.36133   2 
   4   9   4 2.00423 1.20861   2 
   5   9   4 0.65794 1.19842   2 
   2  10   4 19.5034 3.58886  -1 
   2   7  13 19.5034 3.58886   2 
   3  10   4 31.1421 4.93080  -1 
   3   7  13 31.1421 4.93080   2 
  -2  -9   5 1.19035 5.82039  -1 
   2   2  16 1.19035 5.82039   2 
  -1  -9   5 -2.5587 5.90565  -1 
   1   2  16 -2.5587 5.90565   2 
   0  -9   5 22.6947 6.07998  -1 
   0   2  16 22.6947 6.07998   2 
  -3  -8   5 45.9455 2.45589   2 
  -2  -8   5 37.8572 2.53074   2 
  -1  -8   5 11.0444 1.80427   2 
   0  -8   5 6.39138 2.38679   2 
   1  -8   5 30.2276 4.38852   2 
   2  -8   5 2.37824 2.95505   2 
  -5  -7   5 7.06716 3.06259  -1 
   5   1  13 7.06716 3.06259   2 
  -4  -7   5 14.6198 2.90246  -1 
   4   1  13 14.6198 2.90246   2 
  -3  -7   5 11.4771 3.05976  -1 
   3   1  13 11.4771 3.05976   2 
  -2  -7   5 272.046 5.69002  -1 
   2   1  13 272.046 5.69002   2 
  -1  -7   5 356.647 10.7624  -1 
   1   1  13 356.647 10.7624   2 
   0  -7   5 107.073 4.18836  -1 
   0   1  13 107.073 4.18836   2 
   1  -7   5 116.522 4.59365  -1 
  -1   1  13 116.522 4.59365   2 
   2  -7   5 22.9948 3.91996  -1 
  -2   1  13 22.9948 3.91996   2 
   3  -7   5 18.0437 4.31389  -1 
  -3   1  13 18.0437 4.31389   2 
  -6  -6   5 2.43067 1.41364   2 
  -5  -6   5 1.95842 1.27832   2 
  -4  -6   5 22.9511 1.99772   2 
  -3  -6   5 67.2032 2.35873   2 
  -2  -6   5 64.8312 2.32846   2 
  -1  -6   5 228.014 4.06086   2 
   0  -6   5 69.5674 2.02286   2 
   1  -6   5 77.2202 2.36241   2 
   2  -6   5 3.90981 1.74682   2 
   3  -6   5 22.9753 2.56594   2 
   4  -6   5 15.6614 2.21531   2 
   5  -6   5 0.53560 3.86594   2 
  -7  -5   5 180.381 6.78636  -1 
   7   0  10 180.381 6.78636   2 
  -6  -5   5 5.98774 3.91859  -1 
   6   0  10 5.98774 3.91859   2 
  -5  -5   5 -3.0862 2.65657  -1 
   5   0  10 -3.0862 2.65657   2 
  -4  -5   5 5.50769 2.44655  -1 
   4   0  10 5.50769 2.44655   2 
  -3  -5   5 19.7446 2.19692  -1 
   3   0  10 19.7446 2.19692   2 
  -2  -5   5 363.593 5.01981  -1 
   2   0  10 363.593 5.01981   2 
  -1  -5   5 14.2094 1.77968  -1 
   1   0  10 14.2094 1.77968   2 
   0  -5   5 4.18521 1.66807  -1 
   0   0  10 4.18521 1.66807   2 
   1  -5   5 74.0786 1.99689  -1 
  -1   0  10 74.0786 1.99689   2 
   2  -5   5 8.94621 2.13896  -1 
  -2   0  10 8.94621 2.13896   2 
   3  -5   5 1.53493 3.16980  -1 
  -3   0  10 1.53493 3.16980   2 
   4  -5   5 76.0776 5.78755  -1 
  -4   0  10 76.0776 5.78755   2 
   5  -5   5 27.7889 5.70793  -1 
  -5   0  10 27.7889 5.70793   2 
  -7  -4   5 41.5420 2.63628   2 
  -6  -4   5 34.1933 2.14075   2 
  -5  -4   5 9.72324 1.39784   2 
  -4  -4   5 18.3891 1.35001   2 
  -3  -4   5 18.8177 1.28358   2 
  -2  -4   5 50.9726 1.37152   2 
  -1  -4   5 3.66612 0.74004   2 
   0  -4   5 6.31851 0.79846   2 
   1  -4   5 8.95726 0.83402   2 
   2  -4   5 0.71981 0.85448   2 
   3  -4   5 5.63805 1.67000   2 
   4  -4   5 124.374 3.79773   2 
   5  -4   5 9.05628 2.99920   2 
   6  -4   5 25.5192 3.68668   2 
  -7  -3   5 77.8606 4.99555  -1 
   7  -1   7 77.8606 4.99555   2 
  -6  -3   5 6.01754 4.13830  -1 
   6  -1   7 6.01754 4.13830   2 
  -5  -3   5 6.86329 4.09031  -1 
   5  -1   7 6.86329 4.09031   2 
  -4  -3   5 81.7755 2.47728  -1 
   4  -1   7 81.7755 2.47728   2 
  -3  -3   5 274.179 3.44706  -1 
   3  -1   7 274.179 3.44706   2 
  -2  -3   5 124.652 2.03809  -1 
   2  -1   7 124.652 2.03809   2 
  -1  -3   5 500.684 5.00511  -1 
   1  -1   7 500.684 5.00511   2 
   0  -3   5 554.179 5.48603  -1 
   0  -1   7 554.179 5.48603   2 
   1  -3   5 151.814 2.04416  -1 
  -1  -1   7 151.814 2.04416   2 
   2  -3   5 409.556 4.68683  -1 
  -2  -1   7 409.556 4.68683   2 
   3  -3   5 48.6633 1.67669  -1 
  -3  -1   7 48.6633 1.67669   2 
   4  -3   5 12.9057 2.85734  -1 
  -4  -1   7 12.9057 2.85734   2 
   5  -3   5 19.0282 2.87026  -1 
  -5  -1   7 19.0282 2.87026   2 
   6  -3   5 33.4979 3.16179  -1 
  -6  -1   7 33.4979 3.16179   2 
   7  -3   5 16.5759 5.20139  -1 
  -7  -1   7 16.5759 5.20139   2 
  -7  -2   5 72.5410 2.78878   2 
  -6  -2   5 11.2574 1.47138   2 
  -5  -2   5 44.2564 1.74423   2 
  -4  -2   5 203.690 2.51569   2 
  -3  -2   5 138.877 1.94895   2 
  -2  -2   5 88.6704 1.48168   2 
  -1  -2   5 5.75528 0.55009   2 
   0  -2   5 23.5543 0.89670   2 
   1  -2   5 238.318 2.59974   2 
   2  -2   5 120.710 1.84667   2 
   3  -2   5 3.15891 0.86950   2 
   4  -2   5 569.703 8.22681   2 
   5  -2   5 11.1849 2.34145   2 
   6  -2   5 11.1489 2.42319   2 
   7  -2   5 13.4731 3.14650   2 
  -7  -1   5 -10.766 10.7467  -1 
   7  -2   4 -10.766 10.7467   2 
  -6  -1   5 31.0590 4.63281  -1 
   6  -2   4 31.0590 4.63281   2 
  -5  -1   5 35.7621 3.95789  -1 
   5  -2   4 35.7621 3.95789   2 
  -4  -1   5 1503.28 17.3974  -1 
   4  -2   4 1503.28 17.3974   2 
  -3  -1   5 25.0826 1.38244  -1 
   3  -2   4 25.0826 1.38244   2 
  -2  -1   5 389.485 4.89846  -1 
   2  -2   4 389.485 4.89846   2 
  -1  -1   5 440.934 4.37275  -1 
   1  -2   4 440.934 4.37275   2 
   0  -1   5 1025.04 9.58897  -1 
   0  -2   4 1025.04 9.58897   2 
   1  -1   5 731.776 6.92966  -1 
  -1  -2   4 731.776 6.92966   2 
   2  -1   5 3132.07 27.6305  -1 
  -2  -2   4 3132.07 27.6305   2 
   3  -1   5 172.268 2.17264  -1 
  -3  -2   4 172.268 2.17264   2 
   4  -1   5 9.00595 1.49597  -1 
  -4  -2   4 9.00595 1.49597   2 
   5  -1   5 194.044 3.09435  -1 
  -5  -2   4 194.044 3.09435   2 
   6  -1   5 3.57853 2.29094  -1 
  -6  -2   4 3.57853 2.29094   2 
   7  -1   5 2.31189 2.47208  -1 
  -7  -2   4 2.31189 2.47208   2 
  -7   0   5 6.57998 1.67621   2 
  -6   0   5 10.5122 1.58567   2 
  -5   0   5 2.16732 1.31328   2 
  -4   0   5 9.74895 0.88052   2 
  -3   0   5 316.744 3.66628   2 
  -2   0   5 4.34925 0.54227   2 
  -1   0   5 506.234 4.88826   2 
   0   0   5 134.345 1.56989   2 
   1   0   5 18.2950 0.70556   2 
   2   0   5 417.210 3.77660   2 
   3   0   5 8.53151 0.53547   2 
   4   0   5 288.920 2.93483   2 
   5   0   5 401.546 6.07846   2 
   6   0   5 -1.8089 1.99108   2 
   7   0   5 6.57287 2.26682   2 
   8   0   5 -1.2734 2.55953   2 
  -7   1   5 -3.4101 5.44233  -1 
   7  -3   1 -3.4101 5.44233   2 
  -6   1   5 -6.7024 5.53075  -1 
   6  -3   1 -6.7024 5.53075   2 
  -5   1   5 120.198 4.00107  -1 
   5  -3   1 120.198 4.00107   2 
  -4   1   5 838.971 11.8192  -1 
   4  -3   1 838.971 11.8192   2 
  -3   1   5 118.603 2.34060  -1 
   3  -3   1 118.603 2.34060   2 
  -2   1   5 230.237 2.94768  -1 
   2  -3   1 230.237 2.94768   2 
  -1   1   5 115.408 1.53789  -1 
   1  -3   1 115.408 1.53789   2 
   0   1   5 625.355 5.45824  -1 
   0  -3   1 625.355 5.45824   2 
   1   1   5 35.9952 0.69227  -1 
  -1  -3   1 35.9952 0.69227   2 
   2   1   5 119.679 1.34825  -1 
  -2  -3   1 119.679 1.34825   2 
   3   1   5 18.0620 0.77521  -1 
  -3  -3   1 18.0620 0.77521   2 
   4   1   5 16.2171 0.87092  -1 
  -4  -3   1 16.2171 0.87092   2 
   5   1   5 97.6815 1.81837  -1 
  -5  -3   1 97.6815 1.81837   2 
   6   1   5 254.815 3.39329  -1 
  -6  -3   1 254.815 3.39329   2 
   7   1   5 24.1534 1.77670  -1 
  -7  -3   1 24.1534 1.77670   2 
   8   1   5 20.2794 3.57583  -1 
  -8  -3   1 20.2794 3.57583   2 
  -7   2   5 -1.8874 3.02390   2 
  -6   2   5 12.4470 2.38789   2 
  -5   2   5 5.07552 1.37290   2 
  -4   2   5 7.10723 1.15251   2 
  -3   2   5 54.7945 1.50850   2 
  -2   2   5 6.05203 0.69847   2 
  -1   2   5 0.53560 0.54873   2 
   0   2   5 21.9771 0.70342   2 
   1   2   5 52.5919 0.79084   2 
   2   2   5 4.61536 0.34082   2 
   3   2   5 111.952 1.53356   2 
   4   2   5 1.99268 0.59876   2 
   5   2   5 79.4795 1.79005   2 
   6   2   5 47.3565 1.99088   2 
   7   2   5 4.89311 1.25108   2 
   8   2   5 2.27712 2.23554   2 
  -6   3   5 -9.8626 6.08804  -1 
  -6   4   2 -9.8626 6.08804   2 
  -5   3   5 167.909 6.53276  -1 
  -5   4   2 167.909 6.53276   2 
  -4   3   5 203.488 5.21730  -1 
  -4   4   2 203.488 5.21730   2 
  -3   3   5 211.350 3.46695  -1 
  -3   4   2 211.350 3.46695   2 
  -2   3   5 262.552 3.79137  -1 
  -2   4   2 262.552 3.79137   2 
  -1   3   5 1.90459 1.35705  -1 
  -1   4   2 1.90459 1.35705   2 
   0   3   5 203.255 2.80174  -1 
   0   4   2 203.255 2.80174   2 
   1   3   5 1082.56 11.7366  -1 
   1   4   2 1082.56 11.7366   2 
   2   3   5 1.57415 0.87472  -1 
   2   4   2 1.57415 0.87472   2 
   3   3   5 49.9863 3.02529  -1 
   3   4   2 49.9863 3.02529   2 
   4   3   5 101.116 3.98735  -1 
   4   4   2 101.116 3.98735   2 
   5   3   5 4.39365 2.45362  -1 
   5   4   2 4.39365 2.45362   2 
   6   3   5 10.5821 1.01922  -1 
   6   4   2 10.5821 1.01922   2 
   7   3   5 38.5185 1.33586  -1 
   7   4   2 38.5185 1.33586   2 
   8   3   5 74.5647 2.38364  -1 
   8   4   2 74.5647 2.38364   2 
  -6   4   5 12.9385 3.72398   2 
  -5   4   5 -0.9450 1.73836   2 
  -4   4   5 34.7382 2.74080   2 
  -3   4   5 2.77758 1.59926   2 
  -2   4   5 0.99175 0.82644   2 
  -1   4   5 38.2741 1.47509   2 
   0   4   5 0.85805 0.70270   2 
   1   4   5 465.250 5.00656   2 
   2   4   5 399.654 4.57706   2 
   3   4   5 72.0450 1.24192   2 
   4   4   5 92.1291 8.94167   2 
   5   4   5 26.2098 5.86490   2 
   6   4   5 8.78068 5.58436   2 
   7   4   5 28.1050 1.96509   2 
   8   4   5 9.83627 7.00857   2 
  -5   5   5 53.1024 6.68484  -1 
  -5   5   5 53.1024 6.68484   2 
  -4   5   5 187.342 5.41979  -1 
  -4   5   5 187.342 5.41979   2 
  -3   5   5 251.904 5.94820  -1 
  -3   5   5 251.904 5.94820   2 
  -2   5   5 403.850 6.42303  -1 
  -2   5   5 403.850 6.42303   2 
  -1   5   5 13.3127 1.93674  -1 
  -1   5   5 13.3127 1.93674   2 
   0   5   5 90.9297 2.12616  -1 
   0   5   5 90.9297 2.12616   2 
   1   5   5 16.5936 1.37796  -1 
   1   5   5 16.5936 1.37796   2 
   2   5   5 2.79839 1.68686  -1 
   2   5   5 2.79839 1.68686   2 
   3   5   5 23.3634 1.37213  -1 
   3   5   5 23.3634 1.37213   2 
   4   5   5 342.107 5.32385  -1 
   4   5   5 342.107 5.32385   2 
   5   5   5 60.3708 7.81907  -1 
   5   5   5 60.3708 7.81907   2 
   6   5   5 23.1188 8.18090  -1 
   6   5   5 23.1188 8.18090   2 
   7   5   5 14.7893 8.40513  -1 
   7   5   5 14.7893 8.40513   2 
   8   5   5 99.7456 11.0345  -1 
   8   5   5 99.7456 11.0345   2 
  -4   6   5 10.2756 2.20515   2 
  -3   6   5 0.03081 1.85306   2 
  -2   6   5 2.22822 1.69474   2 
  -1   6   5 -1.3349 1.04873   2 
   0   6   5 6.26846 1.14338   2 
   1   6   5 -0.1912 1.11955   2 
   2   6   5 121.504 2.86593   2 
   3   6   5 32.9244 1.56390   2 
   4   6   5 23.5962 1.21180   2 
   5   6   5 50.0912 9.33177   2 
   6   6   5 -1.6838 6.47095   2 
   7   6   5 -0.0209 7.36402   2 
  -4   7   5 26.1887 4.31613  -1 
  -4   6   8 26.1887 4.31613   2 
  -3   7   5 43.3198 4.04469  -1 
  -3   6   8 43.3198 4.04469   2 
  -2   7   5 41.2065 4.64682  -1 
  -2   6   8 41.2065 4.64682   2 
  -1   7   5 16.2788 2.89188  -1 
  -1   6   8 16.2788 2.89188   2 
   0   7   5 41.1177 2.90488  -1 
   0   6   8 41.1177 2.90488   2 
   1   7   5 8.94010 2.47617  -1 
   1   6   8 8.94010 2.47617   2 
   2   7   5 18.9959 2.31763  -1 
   2   6   8 18.9959 2.31763   2 
   3   7   5 64.8156 2.49013  -1 
   3   6   8 64.8156 2.49013   2 
   4   7   5 77.0143 2.02933  -1 
   4   6   8 77.0143 2.02933   2 
   5   7   5 -1.7974 1.19080  -1 
   5   6   8 -1.7974 1.19080   2 
   6   7   5 22.8337 8.21974  -1 
   6   6   8 22.8337 8.21974   2 
   7   7   5 8.99130 8.88676  -1 
   7   6   8 8.99130 8.88676   2 
  -3   8   5 1.27600 2.85771   2 
  -2   8   5 1.33984 2.52883   2 
  -1   8   5 2.17319 2.33415   2 
   0   8   5 12.0768 1.62164   2 
   1   8   5 4.53425 1.36419   2 
   2   8   5 9.19811 1.42410   2 
   3   8   5 1.00495 1.16922   2 
   4   8   5 1.30775 1.01740   2 
   5   8   5 -1.0283 1.12469   2 
  -1   9   5 4.19813 5.30852  -1 
  -1   7  11 4.19813 5.30852   2 
   0   9   5 14.7235 5.05538  -1 
   0   7  11 14.7235 5.05538   2 
   1   9   5 9.31869 3.12537  -1 
   1   7  11 9.31869 3.12537   2 
   2   9   5 37.1797 3.27261  -1 
   2   7  11 37.1797 3.27261   2 
   3   9   5 1.16688 2.92661  -1 
   3   7  11 1.16688 2.92661   2 
   4   9   5 29.4467 4.05154  -1 
   4   7  11 29.4467 4.05154   2 
   5   9   5 3.38790 3.80597  -1 
   5   7  11 3.38790 3.80597   2 
  -4  -8   6 7.30505 5.02522  -1 
   4   1  15 7.30505 5.02522   2 
  -3  -8   6 10.3349 5.09913  -1 
   3   1  15 10.3349 5.09913   2 
  -2  -8   6 1.43004 5.50093  -1 
   2   1  15 1.43004 5.50093   2 
  -1  -8   6 16.2321 5.56325  -1 
   1   1  15 16.2321 5.56325   2 
   0  -8   6 47.0810 6.17171  -1 
   0   1  15 47.0810 6.17171   2 
   1  -8   6 77.3983 6.74661  -1 
  -1   1  15 77.3983 6.74661   2 
   2  -8   6 1.67386 4.26186  -1 
  -2   1  15 1.67386 4.26186   2 
  -5  -7   6 10.2471 1.75409   2 
  -4  -7   6 25.9538 2.21388   2 
  -3  -7   6 51.5843 2.40574   2 
  -2  -7   6 2.20825 1.33615   2 
  -1  -7   6 16.3284 1.65493   2 
   0  -7   6 43.4808 3.79600   2 
   1  -7   6 3.63134 2.60846   2 
   2  -7   6 0.75811 1.98793   2 
   3  -7   6 -0.8240 2.29145   2 
  -6  -6   6 1.44457 4.50978  -1 
   6   0  12 1.44457 4.50978   2 
  -5  -6   6 21.9017 3.14987  -1 
   5   0  12 21.9017 3.14987   2 
  -4  -6   6 46.2630 3.20285  -1 
   4   0  12 46.2630 3.20285   2 
  -3  -6   6 6.56209 3.18777  -1 
   3   0  12 6.56209 3.18777   2 
  -2  -6   6 20.0748 2.58809  -1 
   2   0  12 20.0748 2.58809   2 
  -1  -6   6 47.6801 2.83991  -1 
   1   0  12 47.6801 2.83991   2 
   0  -6   6 12.8739 3.25768  -1 
   0   0  12 12.8739 3.25768   2 
   1  -6   6 56.6815 3.63023  -1 
  -1   0  12 56.6815 3.63023   2 
   2  -6   6 -2.3695 3.29029  -1 
  -2   0  12 -2.3695 3.29029   2 
   3  -6   6 86.3821 4.22419  -1 
  -3   0  12 86.3821 4.22419   2 
   4  -6   6 55.4163 6.88224  -1 
  -4   0  12 55.4163 6.88224   2 
  -6  -5   6 0.92500 1.48335   2 
  -5  -5   6 4.21080 1.36414   2 
  -4  -5   6 6.80089 1.37440   2 
  -3  -5   6 149.551 3.27218   2 
  -2  -5   6 177.170 3.00613   2 
  -1  -5   6 128.377 2.28425   2 
   0  -5   6 164.170 2.94138   2 
   1  -5   6 3.88579 1.09927   2 
   2  -5   6 -0.2492 1.43801   2 
   3  -5   6 35.3655 3.02296   2 
   4  -5   6 13.7212 2.06990   2 
   5  -5   6 14.5783 3.38648   2 
  -7  -4   6 56.1722 5.45545  -1 
   7  -1   9 56.1722 5.45545   2 
  -6  -4   6 9.20099 4.39320  -1 
   6  -1   9 9.20099 4.39320   2 
  -5  -4   6 23.5486 4.29406  -1 
   5  -1   9 23.5486 4.29406   2 
  -4  -4   6 39.0132 3.02105  -1 
   4  -1   9 39.0132 3.02105   2 
  -3  -4   6 210.839 4.00676  -1 
   3  -1   9 210.839 4.00676   2 
  -2  -4   6 99.2477 2.19166  -1 
   2  -1   9 99.2477 2.19166   2 
  -1  -4   6 341.209 4.21166  -1 
   1  -1   9 341.209 4.21166   2 
   0  -4   6 959.244 9.27257  -1 
   0  -1   9 959.244 9.27257   2 
   1  -4   6 32.1665 1.58748  -1 
  -1  -1   9 32.1665 1.58748   2 
   2  -4   6 47.4689 2.43912  -1 
  -2  -1   9 47.4689 2.43912   2 
   3  -4   6 1.15624 1.99121  -1 
  -3  -1   9 1.15624 1.99121   2 
   4  -4   6 10.0975 3.17236  -1 
  -4  -1   9 10.0975 3.17236   2 
   5  -4   6 17.3577 4.99571  -1 
  -5  -1   9 17.3577 4.99571   2 
   6  -4   6 124.722 7.25052  -1 
  -6  -1   9 124.722 7.25052   2 
  -7  -3   6 85.1370 3.27509   2 
  -6  -3   6 27.2235 2.31270   2 
  -5  -3   6 33.8858 2.14205   2 
  -4  -3   6 160.960 2.80958   2 
  -3  -3   6 5.98068 0.83146   2 
  -2  -3   6 15.0499 0.84286   2 
  -1  -3   6 0.45081 0.73812   2 
   0  -3   6 4.10680 0.67889   2 
   1  -3   6 2.30110 0.70558   2 
   2  -3   6 16.8123 0.90677   2 
   3  -3   6 190.993 3.64323   2 
   4  -3   6 6.17748 1.71190   2 
   5  -3   6 39.5067 4.50531   2 
   6  -3   6 49.9279 4.18231   2 
  -7  -2   6 50.6561 5.20199  -1 
   7  -2   6 50.6561 5.20199   2 
  -6  -2   6 4.31089 4.24652  -1 
   6  -2   6 4.31089 4.24652   2 
  -5  -2   6 82.1302 5.42821  -1 
   5  -2   6 82.1302 5.42821   2 
  -4  -2   6 37.0975 2.93020  -1 
   4  -2   6 37.0975 2.93020   2 
  -3  -2   6 104.153 2.25738  -1 
   3  -2   6 104.153 2.25738   2 
  -2  -2   6 300.664 3.68103  -1 
   2  -2   6 300.664 3.68103   2 
  -1  -2   6 680.775 6.61818  -1 
   1  -2   6 680.775 6.61818   2 
   0  -2   6 975.037 9.24306  -1 
   0  -2   6 975.037 9.24306   2 
   1  -2   6 680.560 6.58974  -1 
  -1  -2   6 680.560 6.58974   2 
   2  -2   6 301.036 3.60275  -1 
  -2  -2   6 301.036 3.60275   2 
   3  -2   6 105.248 1.90320  -1 
  -3  -2   6 105.248 1.90320   2 
   4  -2   6 30.3531 1.98233  -1 
  -4  -2   6 30.3531 1.98233   2 
   5  -2   6 97.0240 3.10800  -1 
  -5  -2   6 97.0240 3.10800   2 
   6  -2   6 3.18766 2.59337  -1 
  -6  -2   6 3.18766 2.59337   2 
   7  -2   6 56.3720 3.57731  -1 
  -7  -2   6 56.3720 3.57731   2 
  -7  -1   6 43.0266 2.63860   2 
  -6  -1   6 27.3069 2.24685   2 
  -5  -1   6 -0.2271 1.35484   2 
  -4  -1   6 513.168 6.42952   2 
  -3  -1   6 8.20257 0.81962   2 
  -2  -1   6 105.120 1.52465   2 
  -1  -1   6 196.463 2.22734   2 
   0  -1   6 3.74387 0.54597   2 
   1  -1   6 3.14542 0.52679   2 
   2  -1   6 165.541 1.99571   2 
   3  -1   6 261.484 3.17603   2 
   4  -1   6 141.507 2.00593   2 
   5  -1   6 70.6152 3.80621   2 
   6  -1   6 6.75355 2.40017   2 
   7  -1   6 32.1188 3.62417   2 
  -7   0   6 13.8462 5.41289  -1 
   7  -3   3 13.8462 5.41289   2 
  -6   0   6 -7.0554 4.90756  -1 
   6  -3   3 -7.0554 4.90756   2 
  -5   0   6 13.0657 4.71838  -1 
   5  -3   3 13.0657 4.71838   2 
  -4   0   6 337.610 6.86267  -1 
   4  -3   3 337.610 6.86267   2 
  -3   0   6 17.3108 1.27389  -1 
   3  -3   3 17.3108 1.27389   2 
  -2   0   6 38.9944 1.29918  -1 
   2  -3   3 38.9944 1.29918   2 
  -1   0   6 3639.41 33.2757  -1 
   1  -3   3 3639.41 33.2757   2 
   0   0   6 245.916 2.64240  -1 
   0  -3   3 245.916 2.64240   2 
   1   0   6 175.864 2.02948  -1 
  -1  -3   3 175.864 2.02948   2 
   2   0   6 65.2547 1.07357  -1 
  -2  -3   3 65.2547 1.07357   2 
   3   0   6 79.1989 1.19378  -1 
  -3  -3   3 79.1989 1.19378   2 
   4   0   6 278.774 3.37766  -1 
  -4  -3   3 278.774 3.37766   2 
   5   0   6 833.163 9.82773  -1 
  -5  -3   3 833.163 9.82773   2 
   6   0   6 10.8185 1.53510  -1 
  -6  -3   3 10.8185 1.53510   2 
   7   0   6 46.1773 2.37480  -1 
  -7  -3   3 46.1773 2.37480   2 
  -7   1   6 5.10184 3.34538   2 
  -6   1   6 12.6523 1.78090   2 
  -5   1   6 26.9217 2.39820   2 
  -4   1   6 109.237 2.71939   2 
  -3   1   6 19.8385 1.22370   2 
  -2   1   6 -0.1141 0.56399   2 
  -1   1   6 1.56548 0.52273   2 
   0   1   6 208.877 2.38065   2 
   1   1   6 90.9144 1.21527   2 
   2   1   6 40.8699 0.87022   2 
   3   1   6 181.839 2.16171   2 
   4   1   6 18.4909 0.91761   2 
   5   1   6 270.730 4.03164   2 
   6   1   6 2.34246 1.23060   2 
   7   1   6 18.9271 2.24057   2 
   8   1   6 9.12204 2.74810   2 
  -6   2   6 24.5140 6.37667  -1 
  -6   4   0 24.5140 6.37667   2 
  -5   2   6 18.3006 3.32545  -1 
  -5   4   0 18.3006 3.32545   2 
  -4   2   6 209.305 5.16070  -1 
  -4   4   0 209.305 5.16070   2 
  -3   2   6 63.8549 2.22570  -1 
  -3   4   0 63.8549 2.22570   2 
  -2   2   6 42.1181 1.79128  -1 
  -2   4   0 42.1181 1.79128   2 
  -1   2   6 1860.43 20.0674  -1 
  -1   4   0 1860.43 20.0674   2 
   0   2   6 12.0357 0.93865  -1 
   0   4   0 12.0357 0.93865   2 
   1   2   6 47.8073 1.06312  -1 
   1   4   0 47.8073 1.06312   2 
   2   2   6 0.49168 0.73544  -1 
   2   4   0 0.49168 0.73544   2 
   3   2   6 616.216 6.44247  -1 
   3   4   0 616.216 6.44247   2 
   4   2   6 9.85590 0.81198  -1 
   4   4   0 9.85590 0.81198   2 
   5   2   6 1.22447 0.97220  -1 
   5   4   0 1.22447 0.97220   2 
   6   2   6 64.2840 1.50589  -1 
   6   4   0 64.2840 1.50589   2 
   7   2   6 15.5516 1.27932  -1 
   7   4   0 15.5516 1.27932   2 
   8   2   6 21.0996 3.04320  -1 
   8   4   0 21.0996 3.04320   2 
  -6   3   6 7.31761 3.17041   2 
  -5   3   6 80.0023 5.05917   2 
  -4   3   6 80.4327 3.14324   2 
  -3   3   6 4.48200 0.94829   2 
  -2   3   6 7.30707 0.86483   2 
  -1   3   6 185.930 2.76035   2 
   0   3   6 63.0375 1.15183   2 
   1   3   6 131.410 1.57263   2 
   2   3   6 71.8251 1.04013   2 
   3   3   6 32.8697 1.01561   2 
   4   3   6 38.7117 1.08511   2 
   5   3   6 72.0364 1.63014   2 
   6   3   6 8.99057 1.08428   2 
   7   3   6 17.2051 1.34463   2 
   8   3   6 -2.3262 2.24027   2 
  -6   4   6 4.84467 7.89642  -1 
  -6   5   3 4.84467 7.89642   2 
  -5   4   6 134.166 5.05901  -1 
  -5   5   3 134.166 5.05901   2 
  -4   4   6 167.399 5.05835  -1 
  -4   5   3 167.399 5.05835   2 
  -3   4   6 154.818 4.61036  -1 
  -3   5   3 154.818 4.61036   2 
  -2   4   6 22.8251 2.40419  -1 
  -2   5   3 22.8251 2.40419   2 
  -1   4   6 425.116 6.47510  -1 
  -1   5   3 425.116 6.47510   2 
   0   4   6 171.986 2.77536  -1 
   0   5   3 171.986 2.77536   2 
   1   4   6 47.3240 1.31584  -1 
   1   5   3 47.3240 1.31584   2 
   2   4   6 246.807 3.77213  -1 
   2   5   3 246.807 3.77213   2 
   3   4   6 43.0153 1.25868  -1 
   3   5   3 43.0153 1.25868   2 
   4   4   6 26.6064 5.59865  -1 
   4   5   3 26.6064 5.59865   2 
   5   4   6 50.7513 5.32825  -1 
   5   5   3 50.7513 5.32825   2 
   6   4   6 38.5385 5.12490  -1 
   6   5   3 38.5385 5.12490   2 
   7   4   6 43.5654 5.45683  -1 
   7   5   3 43.5654 5.45683   2 
   8   4   6 97.1996 6.83037  -1 
   8   5   3 97.1996 6.83037   2 
  -5   5   6 1.36098 3.09675   2 
  -4   5   6 1.12682 1.69992   2 
  -3   5   6 0.01239 1.68065   2 
  -2   5   6 30.7564 1.92252   2 
  -1   5   6 37.3784 1.98257   2 
   0   5   6 19.1801 1.33421   2 
   1   5   6 8.78162 0.83094   2 
   2   5   6 171.285 2.82943   2 
   3   5   6 56.3652 1.34265   2 
   4   5   6 63.7078 1.40880   2 
   5   5   6 79.9802 8.92838   2 
   6   5   6 4.51278 5.60338   2 
   7   5   6 5.70793 6.16470   2 
  -4   6   6 10.3396 3.90377  -1 
  -4   6   6 10.3396 3.90377   2 
  -3   6   6 139.102 4.82809  -1 
  -3   6   6 139.102 4.82809   2 
  -2   6   6 55.5169 3.60063  -1 
  -2   6   6 55.5169 3.60063   2 
  -1   6   6 21.0923 2.41011  -1 
  -1   6   6 21.0923 2.41011   2 
   0   6   6 120.844 3.59945  -1 
   0   6   6 120.844 3.59945   2 
   1   6   6 304.246 5.95015  -1 
   1   6   6 304.246 5.95015   2 
   2   6   6 1744.45 28.2840  -1 
   2   6   6 1744.45 28.2840   2 
   3   6   6 179.297 3.72782  -1 
   3   6   6 179.297 3.72782   2 
   4   6   6 6.00880 1.51103  -1 
   4   6   6 6.00880 1.51103   2 
   5   6   6 41.8667 9.92529  -1 
   5   6   6 41.8667 9.92529   2 
   6   6   6 23.7687 9.67972  -1 
   6   6   6 23.7687 9.67972   2 
   7   6   6 5.67377 7.80792  -1 
   7   6   6 5.67377 7.80792   2 
  -3   7   6 4.20011 2.75221   2 
  -2   7   6 6.60360 2.67043   2 
  -1   7   6 0.35578 1.54046   2 
   0   7   6 28.2534 2.37896   2 
   1   7   6 -0.4117 1.24973   2 
   2   7   6 11.3115 1.31067   2 
   3   7   6 37.0789 1.85153   2 
   4   7   6 6.84217 1.00221   2 
   5   7   6 -7.1373 6.18487   2 
   6   7   6 -0.2924 7.06946   2 
   7   7   6 -9.0060 7.41043   2 
  -2   8   6 9.62255 5.20159  -1 
  -2   7   9 9.62255 5.20159   2 
  -1   8   6 2.59496 4.29421  -1 
  -1   7   9 2.59496 4.29421   2 
   0   8   6 9.52409 2.93587  -1 
   0   7   9 9.52409 2.93587   2 
   1   8   6 8.85211 2.78504  -1 
   1   7   9 8.85211 2.78504   2 
   2   8   6 196.162 4.74105  -1 
   2   7   9 196.162 4.74105   2 
   3   8   6 -0.9175 2.41279  -1 
   3   7   9 -0.9175 2.41279   2 
   4   8   6 13.8904 2.27210  -1 
   4   7   9 13.8904 2.27210   2 
   5   8   6 4.32472 1.93331  -1 
   5   7   9 4.32472 1.93331   2 
   6   8   6 14.4833 10.7475  -1 
   6   7   9 14.4833 10.7475   2 
  -1   9   6 6.72966 2.91814   2 
   0   9   6 5.55384 2.59497   2 
   1   9   6 7.98920 1.66210   2 
   2   9   6 1.25633 1.47048   2 
   3   9   6 3.59871 1.35129   2 
   4   9   6 3.59094 1.87018   2 
   5   9   6 4.01335 1.77420   2 
  -2  -8   7 9.54710 2.74347   2 
  -1  -8   7 6.92091 2.77630   2 
   0  -8   7 9.05858 3.55710   2 
   1  -8   7 13.9417 3.39225   2 
  -5  -7   7 5.51166 4.96628  -1 
   5   0  14 5.51166 4.96628   2 
  -4  -7   7 45.8227 5.19441  -1 
   4   0  14 45.8227 5.19441   2 
  -3  -7   7 5.94742 4.58804  -1 
   3   0  14 5.94742 4.58804   2 
  -2  -7   7 -7.1951 5.28695  -1 
   2   0  14 -7.1951 5.28695   2 
  -1  -7   7 16.0640 5.45886  -1 
   1   0  14 16.0640 5.45886   2 
   0  -7   7 18.8573 3.85767  -1 
   0   0  14 18.8573 3.85767   2 
   1  -7   7 54.7270 4.18007  -1 
  -1   0  14 54.7270 4.18007   2 
   2  -7   7 81.0439 4.71322  -1 
  -2   0  14 81.0439 4.71322   2 
   3  -7   7 50.4699 6.91335  -1 
  -3   0  14 50.4699 6.91335   2 
  -5  -6   7 6.31188 1.65047   2 
  -4  -6   7 32.6673 2.31239   2 
  -3  -6   7 3.27248 1.44723   2 
  -2  -6   7 31.6478 2.23415   2 
  -1  -6   7 39.3639 2.28506   2 
   0  -6   7 22.2723 1.61306   2 
   1  -6   7 38.2713 2.90971   2 
   2  -6   7 7.13002 2.08300   2 
   3  -6   7 2.06179 1.94025   2 
   4  -6   7 -0.4312 2.25115   2 
  -6  -5   7 67.4355 5.31159  -1 
   6  -1  11 67.4355 5.31159   2 
  -5  -5   7 12.0918 4.61147  -1 
   5  -1  11 12.0918 4.61147   2 
  -4  -5   7 19.3893 3.17326  -1 
   4  -1  11 19.3893 3.17326   2 
  -3  -5   7 3.29497 2.98665  -1 
   3  -1  11 3.29497 2.98665   2 
  -2  -5   7 1.96156 2.39928  -1 
   2  -1  11 1.96156 2.39928   2 
  -1  -5   7 1130.44 15.7059  -1 
   1  -1  11 1130.44 15.7059   2 
   0  -5   7 197.043 5.13809  -1 
   0  -1  11 197.043 5.13809   2 
   1  -5   7 91.3349 3.84487  -1 
  -1  -1  11 91.3349 3.84487   2 
   2  -5   7 121.368 4.30314  -1 
  -2  -1  11 121.368 4.30314   2 
   3  -5   7 18.6555 3.45644  -1 
  -3  -1  11 18.6555 3.45644   2 
   4  -5   7 1.77857 5.57895  -1 
  -4  -1  11 1.77857 5.57895   2 
   5  -5   7 44.4620 6.51319  -1 
  -5  -1  11 44.4620 6.51319   2 
  -6  -4   7 59.7573 3.01883   2 
  -5  -4   7 14.3408 1.55440   2 
  -4  -4   7 -0.4223 1.27416   2 
  -3  -4   7 0.34980 1.24546   2 
  -2  -4   7 3.65611 0.97955   2 
  -1  -4   7 0.94248 0.92866   2 
   0  -4   7 224.023 3.15121   2 
   1  -4   7 263.421 3.19423   2 
   2  -4   7 -0.2008 1.22085   2 
   3  -4   7 -1.8495 1.62274   2 
   4  -4   7 39.0126 3.06393   2 
   5  -4   7 49.4026 4.48591   2 
   6  -4   7 13.0073 3.33836   2 
  -7  -3   7 12.7074 2.92814   2 
  -6  -3   7 118.828 6.70286  -1 
   6  -2   8 118.828 6.70286   2 
  -5  -3   7 3.97364 4.74840  -1 
   5  -2   8 3.97364 4.74840   2 
  -4  -3   7 6.23917 4.12913  -1 
   4  -2   8 6.23917 4.12913   2 
  -3  -3   7 93.1490 3.03813  -1 
   3  -2   8 93.1490 3.03813   2 
  -2  -3   7 87.2261 2.40645  -1 
   2  -2   8 87.2261 2.40645   2 
  -1  -3   7 1698.06 15.9147  -1 
   1  -2   8 1698.06 15.9147   2 
   0  -3   7 501.519 5.18281  -1 
   0  -2   8 501.519 5.18281   2 
   1  -3   7 197.002 2.86216  -1 
  -1  -2   8 197.002 2.86216   2 
   2  -3   7 304.130 3.88314  -1 
  -2  -2   8 304.130 3.88314   2 
   3  -3   7 27.3606 2.18770  -1 
  -3  -2   8 27.3606 2.18770   2 
   4  -3   7 17.5275 2.49699  -1 
  -4  -2   8 17.5275 2.49699   2 
   5  -3   7 5.32935 2.59495  -1 
  -5  -2   8 5.32935 2.59495   2 
   6  -3   7 28.8577 3.58313  -1 
  -6  -2   8 28.8577 3.58313   2 
  -7  -2   7 22.9313 2.53340   2 
  -6  -2   7 95.9538 3.00055   2 
  -5  -2   7 183.795 3.84073   2 
  -4  -2   7 -0.8415 1.38938   2 
  -3  -2   7 13.9618 0.96466   2 
  -2  -2   7 12.1140 0.88911   2 
  -1  -2   7 22.0047 1.24973   2 
   0  -2   7 13.0334 0.76873   2 
   1  -2   7 135.692 1.91513   2 
   2  -2   7 37.3464 1.47310   2 
   3  -2   7 7.73141 0.91071   2 
   4  -2   7 10.5942 1.62010   2 
   5  -2   7 143.363 5.21803   2 
   6  -2   7 31.6359 3.72467   2 
   7  -2   7 27.5587 3.30443   2 
  -7  -1   7 20.3842 5.50775  -1 
   7  -3   5 20.3842 5.50775   2 
  -6  -1   7 18.3635 5.22103  -1 
   6  -3   5 18.3635 5.22103   2 
  -5  -1   7 14.7102 4.32190  -1 
   5  -3   5 14.7102 4.32190   2 
  -4  -1   7 15.7575 2.88267  -1 
   4  -3   5 15.7575 2.88267   2 
  -3  -1   7 48.7718 2.41870  -1 
   3  -3   5 48.7718 2.41870   2 
  -2  -1   7 409.983 4.46927  -1 
   2  -3   5 409.983 4.46927   2 
  -1  -1   7 147.195 2.23566  -1 
   1  -3   5 147.195 2.23566   2 
   0  -1   7 547.909 5.68779  -1 
   0  -3   5 547.909 5.68779   2 
   1  -1   7 493.332 5.16995  -1 
  -1  -3   5 493.332 5.16995   2 
   2  -1   7 127.372 1.93525  -1 
  -2  -3   5 127.372 1.93525   2 
   3  -1   7 276.530 3.26498  -1 
  -3  -3   5 276.530 3.26498   2 
   4  -1   7 79.8105 2.22148  -1 
  -4  -3   5 79.8105 2.22148   2 
   5  -1   7 5.33479 1.99119  -1 
  -5  -3   5 5.33479 1.99119   2 
   6  -1   7 9.02205 2.21291  -1 
  -6  -3   5 9.02205 2.21291   2 
   7  -1   7 85.5506 3.53213  -1 
  -7  -3   5 85.5506 3.53213   2 
  -7   0   7 0.15238 3.25750   2 
  -6   0   7 62.4546 2.87427   2 
  -5   0   7 2.02538 1.63370   2 
  -4   0   7 0.36264 1.16544   2 
  -3   0   7 29.5981 1.45561   2 
  -2   0   7 27.2058 1.12235   2 
  -1   0   7 74.1929 1.31959   2 
   0   0   7 5.39829 0.56879   2 
   1   0   7 2.90939 0.55243   2 
   2   0   7 127.447 1.85822   2 
   3   0   7 72.1164 1.44423   2 
   4   0   7 3.50532 0.72796   2 
   5   0   7 325.442 4.81382   2 
   6   0   7 15.6354 2.50280   2 
   7   0   7 2.31237 2.53113   2 
  -6   1   7 19.6612 5.85378  -1 
   6  -4   2 19.6612 5.85378   2 
  -5   1   7 -0.5451 5.14745  -1 
   5  -4   2 -0.5451 5.14745   2 
  -4   1   7 48.9633 3.29295  -1 
   4  -4   2 48.9633 3.29295   2 
  -3   1   7 1172.45 13.8327  -1 
   3  -4   2 1172.45 13.8327   2 
  -2   1   7 125.270 2.42818  -1 
   2  -4   2 125.270 2.42818   2 
  -1   1   7 243.973 3.18924  -1 
   1  -4   2 243.973 3.18924   2 
   0   1   7 130.530 1.66929  -1 
   0  -4   2 130.530 1.66929   2 
   1   1   7 412.484 4.32307  -1 
  -1  -4   2 412.484 4.32307   2 
   2   1   7 1630.94 15.1845  -1 
  -2  -4   2 1630.94 15.1845   2 
   3   1   7 286.873 3.34261  -1 
  -3  -4   2 286.873 3.34261   2 
   4   1   7 4.01344 1.13588  -1 
  -4  -4   2 4.01344 1.13588   2 
   5   1   7 172.272 2.64452  -1 
  -5  -4   2 172.272 2.64452   2 
   6   1   7 8.07224 1.33920  -1 
  -6  -4   2 8.07224 1.33920   2 
   7   1   7 23.4813 1.93780  -1 
  -7  -4   2 23.4813 1.93780   2 
   8   1   7 0.38290 3.72435  -1 
  -8  -4   2 0.38290 3.72435   2 
  -6   2   7 6.69903 2.95031   2 
  -5   2   7 4.09972 2.92277   2 
  -4   2   7 5.59991 1.36413   2 
  -3   2   7 67.9631 1.76151   2 
  -2   2   7 0.84060 0.80095   2 
  -1   2   7 262.585 2.91590   2 
   0   2   7 10.9352 0.60783   2 
   1   2   7 9.03424 0.61027   2 
   2   2   7 5.72275 0.54818   2 
   3   2   7 167.801 2.08213   2 
   4   2   7 2.57751 0.78449   2 
   5   2   7 37.0675 1.54105   2 
   6   2   7 150.661 3.36971   2 
   7   2   7 1.19659 2.12811   2 
   8   2   7 0.91572 2.18056   2 
  -5   3   7 59.6725 4.02413  -1 
  -5   5   1 59.6725 4.02413   2 
  -4   3   7 56.9622 3.73440  -1 
  -4   5   1 56.9622 3.73440   2 
  -3   3   7 607.911 11.3023  -1 
  -3   5   1 607.911 11.3023   2 
  -2   3   7 238.499 3.97944  -1 
  -2   5   1 238.499 3.97944   2 
  -1   3   7 335.626 4.87915  -1 
  -1   5   1 335.626 4.87915   2 
   0   3   7 77.1384 2.03516  -1 
   0   5   1 77.1384 2.03516   2 
   1   3   7 238.366 2.94569  -1 
   1   5   1 238.366 2.94569   2 
   2   3   7 59.4046 1.60047  -1 
   2   5   1 59.4046 1.60047   2 
   3   3   7 9.11627 0.94607  -1 
   3   5   1 9.11627 0.94607   2 
   4   3   7 25.7571 1.64331  -1 
   4   5   1 25.7571 1.64331   2 
   5   3   7 160.002 5.36450  -1 
   5   5   1 160.002 5.36450   2 
   6   3   7 384.627 9.26571  -1 
   6   5   1 384.627 9.26571   2 
   7   3   7 3.23105 1.14624  -1 
   7   5   1 3.23105 1.14624   2 
   8   3   7 6.77089 2.11779  -1 
   8   5   1 6.77089 2.11779   2 
  -5   4   7 6.08251 3.23502   2 
  -4   4   7 0.50150 1.82505   2 
  -3   4   7 6.50321 1.69871   2 
  -2   4   7 44.2412 2.13588   2 
  -1   4   7 73.5168 1.93892   2 
   0   4   7 39.7153 1.51632   2 
   1   4   7 94.5111 1.57060   2 
   2   4   7 80.5731 1.42297   2 
   3   4   7 44.8668 1.32404   2 
   4   4   7 69.1644 1.58828   2 
   5   4   7 1.25501 0.69866   2 
   6   4   7 9.68146 0.86666   2 
   7   4   7 10.2811 1.18000   2 
   8   4   7 9.18229 2.02208   2 
  -5   5   7 -8.4877 6.85876  -1 
  -5   6   4 -8.4877 6.85876   2 
  -4   5   7 42.0626 4.02678  -1 
  -4   6   4 42.0626 4.02678   2 
  -3   5   7 107.717 4.30849  -1 
  -3   6   4 107.717 4.30849   2 
  -2   5   7 105.441 3.14106  -1 
  -2   6   4 105.441 3.14106   2 
  -1   5   7 188.659 3.78216  -1 
  -1   6   4 188.659 3.78216   2 
   0   5   7 45.8610 2.42069  -1 
   0   6   4 45.8610 2.42069   2 
   1   5   7 185.139 4.21418  -1 
   1   6   4 185.139 4.21418   2 
   2   5   7 164.557 3.77419  -1 
   2   6   4 164.557 3.77419   2 
   3   5   7 2.75100 1.77510  -1 
   3   6   4 2.75100 1.77510   2 
   4   5   7 10.6380 1.67707  -1 
   4   6   4 10.6380 1.67707   2 
   5   5   7 94.0256 10.6122  -1 
   5   6   4 94.0256 10.6122   2 
   6   5   7 28.9852 5.68350  -1 
   6   6   4 28.9852 5.68350   2 
   7   5   7 5.30611 9.64279  -1 
   7   6   4 5.30611 9.64279   2 
  -4   6   7 8.40045 2.33498   2 
  -3   6   7 -0.1497 1.87844   2 
  -2   6   7 6.01370 1.85354   2 
  -1   6   7 1.09807 1.23009   2 
   0   6   7 6.32856 1.39962   2 
   1   6   7 22.8222 1.97657   2 
   2   6   7 35.3394 1.98900   2 
   3   6   7 57.1099 1.97107   2 
   4   6   7 5.99232 1.00266   2 
   5   6   7 14.1054 1.61832   2 
   6   6   7 3.93559 5.52021   2 
   7   6   7 5.07921 6.30982   2 
  -3   7   7 13.4371 5.31399  -1 
  -3   7   7 13.4371 5.31399   2 
  -2   7   7 29.9529 5.12319  -1 
  -2   7   7 29.9529 5.12319   2 
  -1   7   7 93.9401 5.48853  -1 
  -1   7   7 93.9401 5.48853   2 
   0   7   7 27.0261 2.96017  -1 
   0   7   7 27.0261 2.96017   2 
   1   7   7 1.91198 2.58832  -1 
   1   7   7 1.91198 2.58832   2 
   2   7   7 9.53082 2.35447  -1 
   2   7   7 9.53082 2.35447   2 
   3   7   7 7.09624 2.12402  -1 
   3   7   7 7.09624 2.12402   2 
   4   7   7 7.57565 1.91464  -1 
   4   7   7 7.57565 1.91464   2 
   5   7   7 203.284 3.88422  -1 
   5   7   7 203.284 3.88422   2 
  -2   8   7 6.78051 2.93119   2 
  -1   8   7 7.53283 2.82093   2 
   0   8   7 3.99347 1.65864   2 
   1   8   7 4.06468 1.54724   2 
   2   8   7 4.92193 1.41375   2 
   3   8   7 12.0658 1.40239   2 
   4   8   7 2.08411 1.10335   2 
   5   8   7 4.40888 1.58472   2 
   0   9   7 31.7521 5.43520  -1 
   0   8  10 31.7521 5.43520   2 
   1   9   7 -2.5425 3.30053  -1 
   1   8  10 -2.5425 3.30053   2 
   2   9   7 18.4363 3.18739  -1 
   2   8  10 18.4363 3.18739   2 
   3   9   7 0.89887 2.92391  -1 
   3   8  10 0.89887 2.92391   2 
   4   9   7 25.7025 4.25712  -1 
   4   8  10 25.7025 4.25712   2 
  -2  -8   8 8.14365 6.58467  -1 
   2   0  16 8.14365 6.58467   2 
  -1  -8   8 95.5069 7.74509  -1 
   1   0  16 95.5069 7.74509   2 
   0  -8   8 22.0107 6.71167  -1 
   0   0  16 22.0107 6.71167   2 
  -4  -7   8 28.7852 2.74976   2 
  -3  -7   8 8.77535 1.72868   2 
  -2  -7   8 2.24442 1.52555   2 
  -1  -7   8 2.61220 2.40809   2 
   0  -7   8 1.74228 2.48957   2 
   1  -7   8 5.66681 3.41544   2 
   2  -7   8 6.03215 2.99184   2 
  -5  -6   8 8.15003 4.69077  -1 
   5  -1  13 8.15003 4.69077   2 
  -4  -6   8 14.5688 5.16556  -1 
   4  -1  13 14.5688 5.16556   2 
  -3  -6   8 -6.1292 5.08768  -1 
   3  -1  13 -6.1292 5.08768   2 
  -2  -6   8 -3.3549 4.94177  -1 
   2  -1  13 -3.3549 4.94177   2 
  -1  -6   8 10.7369 3.57353  -1 
   1  -1  13 10.7369 3.57353   2 
   0  -6   8 24.4860 3.83293  -1 
   0  -1  13 24.4860 3.83293   2 
   1  -6   8 89.0514 4.39658  -1 
  -1  -1  13 89.0514 4.39658   2 
   2  -6   8 144.472 5.06815  -1 
  -2  -1  13 144.472 5.06815   2 
   3  -6   8 1.82637 5.72616  -1 
  -3  -1  13 1.82637 5.72616   2 
   4  -6   8 21.6029 6.63187  -1 
  -4  -1  13 21.6029 6.63187   2 
  -6  -5   8 -3.2194 5.59287   2 
  -5  -5   8 25.4883 2.54972   2 
  -4  -5   8 14.6025 1.60931   2 
  -3  -5   8 21.0960 1.95765   2 
  -2  -5   8 50.2063 2.59826   2 
  -1  -5   8 6.74814 1.25248   2 
   0  -5   8 17.6828 1.40004   2 
   1  -5   8 -1.9058 1.59025   2 
   2  -5   8 3.50243 2.05888   2 
   3  -5   8 5.27785 2.01592   2 
   4  -5   8 -1.2685 3.33902   2 
   5  -5   8 49.8086 5.50744   2 
  -6  -4   8 18.4839 5.64722  -1 
   6  -2  10 18.4839 5.64722   2 
  -5  -4   8 14.8942 4.99967  -1 
   5  -2  10 14.8942 4.99967   2 
  -4  -4   8 4.36813 4.43564  -1 
   4  -2  10 4.36813 4.43564   2 
  -3  -4   8 229.515 4.45567  -1 
   3  -2  10 229.515 4.45567   2 
  -2  -4   8 96.3615 3.04209  -1 
   2  -2  10 96.3615 3.04209   2 
  -1  -4   8 237.299 4.54851  -1 
   1  -2  10 237.299 4.54851   2 
   0  -4   8 282.918 5.06115  -1 
   0  -2  10 282.918 5.06115   2 
   1  -4   8 110.070 3.15380  -1 
  -1  -2  10 110.070 3.15380   2 
   2  -4   8 159.305 3.55900  -1 
  -2  -2  10 159.305 3.55900   2 
   3  -4   8 6.95355 2.68244  -1 
  -3  -2  10 6.95355 2.68244   2 
   4  -4   8 23.5609 5.01260  -1 
  -4  -2  10 23.5609 5.01260   2 
   5  -4   8 4.78105 5.80904  -1 
  -5  -2  10 4.78105 5.80904   2 
  -6  -3   8 72.9924 3.27043   2 
  -5  -3   8 21.8055 2.02862   2 
  -4  -3   8 10.9843 1.54327   2 
  -3  -3   8 2.83165 1.41804   2 
  -2  -3   8 222.294 3.43075   2 
  -1  -3   8 433.786 5.05983   2 
   0  -3   8 3.43966 0.86157   2 
   1  -3   8 23.4897 1.21682   2 
   2  -3   8 28.4841 2.16471   2 
   3  -3   8 6.16419 1.23794   2 
   4  -3   8 74.6830 3.27392   2 
   5  -3   8 55.1872 5.00870   2 
   6  -3   8 42.8698 3.92988   2 
  -6  -2   8 14.4062 5.19638  -1 
   6  -3   7 14.4062 5.19638   2 
  -5  -2   8 0.58454 5.10146  -1 
   5  -3   7 0.58454 5.10146   2 
  -4  -2   8 21.7989 3.02655  -1 
   4  -3   7 21.7989 3.02655   2 
  -3  -2   8 24.3853 2.44147  -1 
   3  -3   7 24.3853 2.44147   2 
  -2  -2   8 301.103 3.91285  -1 
   2  -3   7 301.103 3.91285   2 
  -1  -2   8 196.353 2.66596  -1 
   1  -3   7 196.353 2.66596   2 
   0  -2   8 498.846 5.15220  -1 
   0  -3   7 498.846 5.15220   2 
   1  -2   8 1692.88 17.4130  -1 
  -1  -3   7 1692.88 17.4130   2 
   2  -2   8 87.9933 1.97797  -1 
  -2  -3   7 87.9933 1.97797   2 
   3  -2   8 93.3929 2.25984  -1 
  -3  -3   7 93.3929 2.25984   2 
   4  -2   8 7.81308 2.31743  -1 
  -4  -3   7 7.81308 2.31743   2 
   5  -2   8 10.2799 2.39378  -1 
  -5  -3   7 10.2799 2.39378   2 
   6  -2   8 131.237 3.75811  -1 
  -6  -3   7 131.237 3.75811   2 
  -6  -1   8 103.073 3.61740   2 
  -5  -1   8 24.2932 2.53166   2 
  -4  -1   8 12.0961 1.65829   2 
  -3  -1   8 171.321 2.89990   2 
  -2  -1   8 1.07132 0.83299   2 
  -1  -1   8 68.1320 1.45077   2 
   0  -1   8 38.6370 1.24533   2 
   1  -1   8 15.6787 0.87958   2 
   2  -1   8 3.60164 0.83095   2 
   3  -1   8 -0.2297 0.86153   2 
   4  -1   8 167.327 3.09569   2 
   5  -1   8 5.06524 2.27504   2 
   6  -1   8 8.89232 2.55133   2 
   7  -1   8 23.4020 3.23694   2 
  -5   0   8 -6.5307 5.14084  -1 
   5  -4   4 -6.5307 5.14084   2 
  -4   0   8 241.255 5.59980  -1 
   4  -4   4 241.255 5.59980   2 
  -3   0   8 16.1806 2.89766  -1 
   3  -4   4 16.1806 2.89766   2 
  -2   0   8 58.4921 1.69222  -1 
   2  -4   4 58.4921 1.69222   2 
  -1   0   8 52.8001 1.42103  -1 
   1  -4   4 52.8001 1.42103   2 
   0   0   8 112.474 2.00190  -1 
   0  -4   4 112.474 2.00190   2 
   1   0   8 146.287 2.22040  -1 
  -1  -4   4 146.287 2.22040   2 
   2   0   8 123.734 2.03262  -1 
  -2  -4   4 123.734 2.03262   2 
   3   0   8 74.4853 1.95688  -1 
  -3  -4   4 74.4853 1.95688   2 
   4   0   8 15.0848 1.63687  -1 
  -4  -4   4 15.0848 1.63687   2 
   5   0   8 80.5853 2.06552  -1 
  -5  -4   4 80.5853 2.06552   2 
   6   0   8 6.90880 2.00461  -1 
  -6  -4   4 6.90880 2.00461   2 
   7   0   8 5.18731 2.33771  -1 
  -7  -4   4 5.18731 2.33771   2 
  -6   1   8 27.0977 3.89543   2 
  -5   1   8 7.62561 2.91342   2 
  -4   1   8 76.4235 2.50340   2 
  -3   1   8 159.407 3.31541   2 
  -2   1   8 113.165 1.85172   2 
  -1   1   8 29.5565 1.20062   2 
   0   1   8 4.66819 0.71113   2 
   1   1   8 10.7873 0.72108   2 
   2   1   8 0.24478 0.63544   2 
   3   1   8 19.3680 1.11767   2 
   4   1   8 68.6029 1.99919   2 
   5   1   8 53.3382 1.90911   2 
   6   1   8 17.2115 2.43901   2 
   7   1   8 0.31553 2.40012   2 
  -5   2   8 9.42029 6.04958  -1 
   5  -5   1 9.42029 6.04958   2 
  -4   2   8 49.6532 3.63873  -1 
   4  -5   1 49.6532 3.63873   2 
  -3   2   8 436.300 8.60144  -1 
   3  -5   1 436.300 8.60144   2 
  -2   2   8 117.193 3.11187  -1 
   2  -5   1 117.193 3.11187   2 
  -1   2   8 8.58834 1.76479  -1 
   1  -5   1 8.58834 1.76479   2 
   0   2   8 1678.74 19.2305  -1 
   0  -5   1 1678.74 19.2305   2 
   1   2   8 26.5583 1.43870  -1 
  -1  -5   1 26.5583 1.43870   2 
   2   2   8 16.0784 1.19238  -1 
  -2  -5   1 16.0784 1.19238   2 
   3   2   8 38.1363 1.31274  -1 
  -3  -5   1 38.1363 1.31274   2 
   4   2   8 4.21241 1.24302  -1 
  -4  -5   1 4.21241 1.24302   2 
   5   2   8 974.253 11.2844  -1 
  -5  -5   1 974.253 11.2844   2 
   6   2   8 80.4153 1.76931  -1 
  -6  -5   1 80.4153 1.76931   2 
   7   2   8 23.1090 1.39915  -1 
  -7  -5   1 23.1090 1.39915   2 
  -5   3   8 7.04157 3.25110   2 
  -4   3   8 28.0709 2.81344   2 
  -3   3   8 98.9707 3.45065   2 
  -2   3   8 18.0434 1.25129   2 
  -1   3   8 73.7109 2.31841   2 
   0   3   8 229.619 2.94148   2 
   1   3   8 31.6998 1.17872   2 
   2   3   8 -0.6125 0.60999   2 
   3   3   8 32.8167 1.33963   2 
   4   3   8 53.8234 1.63205   2 
   5   3   8 3.93381 0.82997   2 
   6   3   8 92.9186 2.12467   2 
   7   3   8 2.83143 2.07904   2 
  -5   4   8 44.6665 7.44578  -1 
  -5   6   2 44.6665 7.44578   2 
  -4   4   8 24.9901 4.79897  -1 
  -4   6   2 24.9901 4.79897   2 
  -3   4   8 154.315 6.29557  -1 
  -3   6   2 154.315 6.29557   2 
  -2   4   8 71.5725 3.31835  -1 
  -2   6   2 71.5725 3.31835   2 
  -1   4   8 5.55116 2.32940  -1 
  -1   6   2 5.55116 2.32940   2 
   0   4   8 627.714 9.02044  -1 
   0   6   2 627.714 9.02044   2 
   1   4   8 59.5253 2.70329  -1 
   1   6   2 59.5253 2.70329   2 
   2   4   8 53.6154 2.28259  -1 
   2   6   2 53.6154 2.28259   2 
   3   4   8 8.68576 1.64071  -1 
   3   6   2 8.68576 1.64071   2 
   4   4   8 188.430 3.25894  -1 
   4   6   2 188.430 3.25894   2 
   5   4   8 108.518 5.65042  -1 
   5   6   2 108.518 5.65042   2 
   6   4   8 22.6023 4.15232  -1 
   6   6   2 22.6023 4.15232   2 
   7   4   8 44.5540 6.67864  -1 
   7   6   2 44.5540 6.67864   2 
  -4   5   8 66.8123 3.57334   2 
  -3   5   8 44.9625 3.07280   2 
  -2   5   8 0.35379 1.66577   2 
  -1   5   8 2.29007 1.20275   2 
   0   5   8 43.9303 1.91652   2 
   1   5   8 40.3760 2.32327   2 
   2   5   8 34.8671 1.66316   2 
   3   5   8 24.3431 1.40103   2 
   4   5   8 9.03064 0.85296   2 
   5   5   8 2.37874 0.73760   2 
   6   5   8 23.4427 1.19941   2 
   7   5   8 20.1795 1.96078   2 
  -4   6   8 27.7533 5.83807  -1 
  -4   7   5 27.7533 5.83807   2 
  -3   6   8 40.9917 5.45549  -1 
  -3   7   5 40.9917 5.45549   2 
  -2   6   8 44.2000 4.96021  -1 
  -2   7   5 44.2000 4.96021   2 
  -1   6   8 16.6324 3.00317  -1 
  -1   7   5 16.6324 3.00317   2 
   0   6   8 37.7968 2.83648  -1 
   0   7   5 37.7968 2.83648   2 
   1   6   8 1.82676 2.24079  -1 
   1   7   5 1.82676 2.24079   2 
   2   6   8 17.3374 2.26883  -1 
   2   7   5 17.3374 2.26883   2 
   3   6   8 71.0884 2.46651  -1 
   3   7   5 71.0884 2.46651   2 
   4   6   8 74.9276 2.17186  -1 
   4   7   5 74.9276 2.17186   2 
  -3   7   8 16.8401 3.20841   2 
  -2   7   8 12.3832 2.84885   2 
  -1   7   8 2.52250 2.59529   2 
   0   7   8 13.6566 1.71526   2 
   1   7   8 3.59248 1.43847   2 
   2   7   8 3.34653 1.34350   2 
   3   7   8 4.63358 1.24946   2 
   4   7   8 0.27862 1.07193   2 
   5   7   8 0.90322 0.89310   2 
   6   7   8 0.09899 7.46651   2 
  -2   8   8 20.4474 5.61119  -1 
  -2   8   8 20.4474 5.61119   2 
  -1   8   8 6.40883 5.03252  -1 
  -1   8   8 6.40883 5.03252   2 
   0   8   8 12.9775 3.24217  -1 
   0   8   8 12.9775 3.24217   2 
   1   8   8 4.50499 2.87721  -1 
   1   8   8 4.50499 2.87721   2 
   2   8   8 130.856 3.92919  -1 
   2   8   8 130.856 3.92919   2 
   3   8   8 555.708 9.94616  -1 
   3   8   8 555.708 9.94616   2 
   4   8   8 3.28915 2.35774  -1 
   4   8   8 3.28915 2.35774   2 
   5   8   8 16.4677 3.08125  -1 
   5   8   8 16.4677 3.08125   2 
   0   9   8 2.67668 2.77911   2 
   1   9   8 16.5824 1.96047   2 
   2   9   8 3.13040 1.62216   2 
   3   9   8 13.4091 2.62213   2 
   4   9   8 3.49606 2.09418   2 
  -3  -7   9 5.61730 6.38413  -1 
   3  -1  15 5.61730 6.38413   2 
  -2  -7   9 -8.4579 5.90527  -1 
   2  -1  15 -8.4579 5.90527   2 
  -1  -7   9 21.2383 6.50221  -1 
   1  -1  15 21.2383 6.50221   2 
   0  -7   9 10.1092 4.45018  -1 
   0  -1  15 10.1092 4.45018   2 
   1  -7   9 125.628 5.61988  -1 
  -1  -1  15 125.628 5.61988   2 
   2  -7   9 8.51725 6.43027  -1 
  -2  -1  15 8.51725 6.43027   2 
  -4  -6   9 21.8354 2.42001   2 
  -3  -6   9 14.3383 1.92341   2 
  -2  -6   9 2.19131 1.58406   2 
  -1  -6   9 3.02540 2.00500   2 
   0  -6   9 0.33861 2.36624   2 
   1  -6   9 5.84039 2.10769   2 
   2  -6   9 -0.0213 2.23538   2 
   3  -6   9 6.97222 2.41298   2 
  -5  -5   9 -2.7304 5.40346  -1 
   5  -2  12 -2.7304 5.40346   2 
  -4  -5   9 37.9111 5.18873  -1 
   4  -2  12 37.9111 5.18873   2 
  -3  -5   9 2.89926 5.07573  -1 
   3  -2  12 2.89926 5.07573   2 
  -2  -5   9 0.17230 3.30721  -1 
   2  -2  12 0.17230 3.30721   2 
  -1  -5   9 32.2547 3.64859  -1 
   1  -2  12 32.2547 3.64859   2 
   0  -5   9 59.8872 3.89700  -1 
   0  -2  12 59.8872 3.89700   2 
   1  -5   9 59.8005 3.93847  -1 
  -1  -2  12 59.8005 3.93847   2 
   2  -5   9 44.9604 3.97238  -1 
  -2  -2  12 44.9604 3.97238   2 
   3  -5   9 61.0600 5.95803  -1 
  -3  -2  12 61.0600 5.95803   2 
   4  -5   9 37.6796 6.13359  -1 
  -4  -2  12 37.6796 6.13359   2 
  -5  -4   9 41.2271 2.75408   2 
  -4  -4   9 13.2514 1.66141   2 
  -3  -4   9 71.2704 2.72790   2 
  -2  -4   9 12.4941 1.59080   2 
  -1  -4   9 -0.5244 1.20567   2 
   0  -4   9 0.02327 1.25610   2 
   1  -4   9 -0.2855 1.51388   2 
   2  -4   9 140.652 3.74225   2 
   3  -4   9 13.3829 2.07344   2 
   4  -4   9 35.6826 4.83997   2 
   5  -4   9 4.98835 3.50795   2 
  -5  -3   9 47.2055 5.68305  -1 
   5  -3   9 47.2055 5.68305   2 
  -4  -3   9 27.5729 5.12443  -1 
   4  -3   9 27.5729 5.12443   2 
  -3  -3   9 133.001 4.45774  -1 
   3  -3   9 133.001 4.45774   2 
  -2  -3   9 114.263 4.14383  -1 
   2  -3   9 114.263 4.14383   2 
  -1  -3   9 -0.6150 3.06779  -1 
   1  -3   9 -0.6150 3.06779   2 
   0  -3   9 2272.40 30.4401  -1 
   0  -3   9 2272.40 30.4401   2 
   1  -3   9 3.34954 2.39646  -1 
  -1  -3   9 3.34954 2.39646   2 
   2  -3   9 116.934 3.17517  -1 
  -2  -3   9 116.934 3.17517   2 
   3  -3   9 136.397 3.91416  -1 
  -3  -3   9 136.397 3.91416   2 
   4  -3   9 27.4894 2.71820  -1 
  -4  -3   9 27.4894 2.71820   2 
   5  -3   9 50.8713 3.13848  -1 
  -5  -3   9 50.8713 3.13848   2 
   6  -3   9 1.86637 3.60993  -1 
  -6  -3   9 1.86637 3.60993   2 
  -6  -2   9 35.5462 4.00467   2 
  -5  -2   9 105.559 3.50632   2 
  -4  -2   9 76.1126 3.11355   2 
  -3  -2   9 0.75350 1.17391   2 
  -2  -2   9 1.06751 1.21532   2 
  -1  -2   9 4.97011 0.97093   2 
   0  -2   9 85.1917 1.78485   2 
   1  -2   9 179.991 2.48282   2 
   2  -2   9 266.153 3.99836   2 
   3  -2   9 20.3537 1.55138   2 
   4  -2   9 1.57506 1.66866   2 
   5  -2   9 11.5598 2.65805   2 
   6  -2   9 46.7644 4.59018   2 
  -6  -1   9 96.9778 7.11024  -1 
   6  -4   6 96.9778 7.11024   2 
  -5  -1   9 3.38325 5.09296  -1 
   5  -4   6 3.38325 5.09296   2 
  -4  -1   9 4.28925 3.24396  -1 
   4  -4   6 4.28925 3.24396   2 
  -3  -1   9 2.98021 2.97138  -1 
   3  -4   6 2.98021 2.97138   2 
  -2  -1   9 47.4490 1.84142  -1 
   2  -4   6 47.4490 1.84142   2 
  -1  -1   9 31.0290 1.64615  -1 
   1  -4   6 31.0290 1.64615   2 
   0  -1   9 958.308 10.1610  -1 
   0  -4   6 958.308 10.1610   2 
   1  -1   9 331.440 3.74115  -1 
  -1  -4   6 331.440 3.74115   2 
   2  -1   9 104.492 1.98799  -1 
  -2  -4   6 104.492 1.98799   2 
   3  -1   9 214.841 3.46205  -1 
  -3  -4   6 214.841 3.46205   2 
   4  -1   9 39.0291 2.37818  -1 
  -4  -4   6 39.0291 2.37818   2 
   5  -1   9 24.5884 2.31925  -1 
  -5  -4   6 24.5884 2.31925   2 
   6  -1   9 19.6978 2.40225  -1 
  -6  -4   6 19.6978 2.40225   2 
   7  -1   9 55.2813 5.09465  -1 
  -7  -4   6 55.2813 5.09465   2 
  -6   0   9 6.19855 3.30562   2 
  -5   0   9 15.0992 3.23350   2 
  -4   0   9 148.988 3.31124   2 
  -3   0   9 0.97271 1.23912   2 
  -2   0   9 3.57117 0.96886   2 
  -1   0   9 9.35342 0.82611   2 
   0   0   9 8.62709 0.80457   2 
   1   0   9 12.2625 0.91304   2 
   2   0   9 125.542 2.00602   2 
   3   0   9 55.7561 1.52143   2 
   4   0   9 5.66380 1.39314   2 
   5   0   9 0.31940 1.38467   2 
   6   0   9 19.1584 2.65756   2 
   7   0   9 1.88686 2.78549   2 
  -6   1   9 102.154 7.88090  -1 
   6  -5   3 102.154 7.88090   2 
  -5   1   9 -1.5876 5.63751  -1 
   5  -5   3 -1.5876 5.63751   2 
  -4   1   9 141.956 4.69498  -1 
   4  -5   3 141.956 4.69498   2 
  -3   1   9 53.1073 3.43968  -1 
   3  -5   3 53.1073 3.43968   2 
  -2   1   9 34.3593 2.44209  -1 
   2  -5   3 34.3593 2.44209   2 
  -1   1   9 216.078 3.23325  -1 
   1  -5   3 216.078 3.23325   2 
   0   1   9 6.52448 1.41674  -1 
   0  -5   3 6.52448 1.41674   2 
   1   1   9 33.6180 1.47254  -1 
  -1  -5   3 33.6180 1.47254   2 
   2   1   9 8.81803 1.59094  -1 
  -2  -5   3 8.81803 1.59094   2 
   3   1   9 18.3360 1.63828  -1 
  -3  -5   3 18.3360 1.63828   2 
   4   1   9 1.35957 1.45052  -1 
  -4  -5   3 1.35957 1.45052   2 
   5   1   9 2.68439 1.47389  -1 
  -5  -5   3 2.68439 1.47389   2 
   6   1   9 34.3129 2.03389  -1 
  -6  -5   3 34.3129 2.03389   2 
   7   1   9 16.7952 3.59386  -1 
  -7  -5   3 16.7952 3.59386   2 
  -5   2   9 30.0512 4.56830   2 
  -4   2   9 -1.2431 1.71699   2 
  -3   2   9 11.1465 1.74155   2 
  -2   2   9 23.3121 1.56929   2 
  -1   2   9 67.0727 1.58335   2 
   0   2   9 15.4163 0.91791   2 
   1   2   9 72.5311 1.52643   2 
   2   2   9 28.1351 1.19467   2 
   3   2   9 93.6794 2.20592   2 
   4   2   9 43.1953 1.71274   2 
   5   2   9 17.3379 1.21172   2 
   6   2   9 62.3454 2.62100   2 
   7   2   9 3.45315 2.33515   2 
  -5   3   9 59.7475 7.73863  -1 
  -5   6   0 59.7475 7.73863   2 
  -4   3   9 64.8245 4.35709  -1 
  -4   6   0 64.8245 4.35709   2 
  -3   3   9 33.1667 3.58283  -1 
  -3   6   0 33.1667 3.58283   2 
  -2   3   9 561.632 8.47202  -1 
  -2   6   0 561.632 8.47202   2 
  -1   3   9 175.948 3.37670  -1 
  -1   6   0 175.948 3.37670   2 
   0   3   9 162.873 3.11289  -1 
   0   6   0 162.873 3.11289   2 
   1   3   9 76.2559 2.19916  -1 
   1   6   0 76.2559 2.19916   2 
   2   3   9 318.742 4.98611  -1 
   2   6   0 318.742 4.98611   2 
   3   3   9 626.415 7.51364  -1 
   3   6   0 626.415 7.51364   2 
   4   3   9 5.07296 1.19042  -1 
   4   6   0 5.07296 1.19042   2 
   5   3   9 33.1128 1.34310  -1 
   5   6   0 33.1128 1.34310   2 
   6   3   9 254.729 3.44948  -1 
   6   6   0 254.729 3.44948   2 
   7   3   9 21.9803 2.02115  -1 
   7   6   0 21.9803 2.02115   2 
  -5   4   9 7.50157 3.56203   2 
  -4   4   9 6.68301 2.09149   2 
  -3   4   9 -0.5256 1.80885   2 
  -2   4   9 45.8375 2.78942   2 
  -1   4   9 3.52541 1.22449   2 
   0   4   9 151.571 2.67524   2 
   1   4   9 69.2872 1.60307   2 
   2   4   9 44.8384 1.74863   2 
   3   4   9 0.92530 0.88317   2 
   4   4   9 76.6959 1.82405   2 
   5   4   9 5.17129 0.90669   2 
   6   4   9 3.50340 0.94343   2 
   7   4   9 25.2226 2.43180   2 
  -4   5   9 63.0952 4.88442  -1 
  -4   7   3 63.0952 4.88442   2 
  -3   5   9 82.2131 4.55060  -1 
  -3   7   3 82.2131 4.55060   2 
  -2   5   9 92.9858 5.27057  -1 
  -2   7   3 92.9858 5.27057   2 
  -1   5   9 23.0665 3.03549  -1 
  -1   7   3 23.0665 3.03549   2 
   0   5   9 50.9530 3.06778  -1 
   0   7   3 50.9530 3.06778   2 
   1   5   9 -0.5377 2.40056  -1 
   1   7   3 -0.5377 2.40056   2 
   2   5   9 72.9823 2.77624  -1 
   2   7   3 72.9823 2.77624   2 
   3   5   9 16.1304 1.98618  -1 
   3   7   3 16.1304 1.98618   2 
   4   5   9 5.04652 1.58728  -1 
   4   7   3 5.04652 1.58728   2 
   5   5   9 2.65655 7.32791  -1 
   5   7   3 2.65655 7.32791   2 
   6   5   9 34.8360 8.18472  -1 
   6   7   3 34.8360 8.18472   2 
   7   5   9 162.211 11.3337  -1 
   7   7   3 162.211 11.3337   2 
  -3   6   9 1.46308 2.83528   2 
  -2   6   9 3.81249 2.45461   2 
  -1   6   9 6.59499 2.42881   2 
   0   6   9 29.8050 2.51530   2 
   1   6   9 4.16016 1.43124   2 
   2   6   9 9.81432 1.42124   2 
   3   6   9 -0.0817 1.18380   2 
   4   6   9 2.36282 0.88875   2 
   5   6   9 2.57858 0.82220   2 
   6   6   9 2.71469 0.81695   2 
  -2   7   9 21.9777 5.51945  -1 
  -2   8   6 21.9777 5.51945   2 
  -1   7   9 8.71355 4.70434  -1 
  -1   8   6 8.71355 4.70434   2 
   0   7   9 9.62887 2.98347  -1 
   0   8   6 9.62887 2.98347   2 
   1   7   9 6.47385 2.72440  -1 
   1   8   6 6.47385 2.72440   2 
   2   7   9 193.406 4.58121  -1 
   2   8   6 193.406 4.58121   2 
   3   7   9 5.60174 2.21136  -1 
   3   8   6 5.60174 2.21136   2 
   4   7   9 10.3035 1.96768  -1 
   4   8   6 10.3035 1.96768   2 
   5   7   9 4.91355 1.69232  -1 
   5   8   6 4.91355 1.69232   2 
  -1   8   9 11.9968 3.03012   2 
   0   8   9 8.20089 2.69723   2 
   1   8   9 13.9221 1.82350   2 
   2   8   9 10.9292 1.66144   2 
   3   8   9 4.61142 1.47655   2 
   4   8   9 3.67877 1.37313   2 
   5   8   9 2.77503 2.02806   2 
   1   9   9 10.6050 3.54618  -1 
   1   9   9 10.6050 3.54618   2 
   2   9   9 11.3257 4.78950  -1 
   2   9   9 11.3257 4.78950   2 
   3   9   9 23.3676 4.58556  -1 
   3   9   9 23.3676 4.58556   2 
  -2  -7  10 -2.0356 2.81287   2 
  -1  -7  10 0.47013 2.83139   2 
   0  -7  10 -0.1672 3.41213   2 
  -4  -6  10 -0.9767 6.77859  -1 
   4  -2  14 -0.9767 6.77859   2 
  -3  -6  10 9.85893 6.12529  -1 
   3  -2  14 9.85893 6.12529   2 
  -2  -6  10 -3.9451 5.91063  -1 
   2  -2  14 -3.9451 5.91063   2 
  -1  -6  10 26.4965 4.22214  -1 
   1  -2  14 26.4965 4.22214   2 
   0  -6  10 131.671 5.16981  -1 
   0  -2  14 131.671 5.16981   2 
   1  -6  10 52.0965 4.72610  -1 
  -1  -2  14 52.0965 4.72610   2 
   2  -6  10 28.3575 6.28190  -1 
  -2  -2  14 28.3575 6.28190   2 
  -4  -5  10 2.75591 1.81952   2 
  -3  -5  10 51.5901 4.12715   2 
  -2  -5  10 13.6262 2.30691   2 
  -1  -5  10 -0.5957 2.05540   2 
   0  -5  10 -0.3213 1.63363   2 
   1  -5  10 63.3495 3.21062   2 
   2  -5  10 32.2923 2.86980   2 
   3  -5  10 4.58804 2.15891   2 
   4  -5  10 0.85131 3.64234   2 
  -5  -4  10 20.1651 5.99937  -1 
   5  -3  11 20.1651 5.99937   2 
  -4  -4  10 25.0548 5.30822  -1 
   4  -3  11 25.0548 5.30822   2 
  -3  -4  10 13.5001 4.76706  -1 
   3  -3  11 13.5001 4.76706   2 
  -2  -4  10 70.2788 4.04954  -1 
   2  -3  11 70.2788 4.04954   2 
  -1  -4  10 52.9703 3.69692  -1 
   1  -3  11 52.9703 3.69692   2 
   0  -4  10 79.5770 4.13639  -1 
   0  -3  11 79.5770 4.13639   2 
   1  -4  10 33.9662 3.81316  -1 
  -1  -3  11 33.9662 3.81316   2 
   2  -4  10 94.1876 6.04581  -1 
  -2  -3  11 94.1876 6.04581   2 
   3  -4  10 151.284 7.20408  -1 
  -3  -3  11 151.284 7.20408   2 
   4  -4  10 11.2062 5.47769  -1 
  -4  -3  11 11.2062 5.47769   2 
   5  -4  10 4.05784 5.80519  -1 
  -5  -3  11 4.05784 5.80519   2 
  -5  -3  10 -1.5624 2.46505   2 
  -4  -3  10 23.5053 2.28765   2 
  -3  -3  10 9.10642 1.74122   2 
  -2  -3  10 12.9028 1.47343   2 
  -1  -3  10 40.6117 2.34820   2 
   0  -3  10 1.63444 1.81871   2 
   1  -3  10 106.296 3.60345   2 
   2  -3  10 20.2251 2.13701   2 
   3  -3  10 31.3016 3.00475   2 
   4  -3  10 38.5324 4.65052   2 
   5  -3  10 -0.0682 3.29012   2 
  -4  -2  10 20.7916 5.57780  -1 
   4  -4   8 20.7916 5.57780   2 
  -3  -2  10 7.28676 3.16825  -1 
   3  -4   8 7.28676 3.16825   2 
  -2  -2  10 157.708 4.06676  -1 
   2  -4   8 157.708 4.06676   2 
  -1  -2  10 104.551 3.49116  -1 
   1  -4   8 104.551 3.49116   2 
   0  -2  10 280.481 4.67177  -1 
   0  -4   8 280.481 4.67177   2 
   1  -2  10 238.120 4.12582  -1 
  -1  -4   8 238.120 4.12582   2 
   2  -2  10 97.3975 2.73669  -1 
  -2  -4   8 97.3975 2.73669   2 
   3  -2  10 228.290 4.87641  -1 
  -3  -4   8 228.290 4.87641   2 
   4  -2  10 9.39760 2.70665  -1 
  -4  -4   8 9.39760 2.70665   2 
   5  -2  10 14.7520 2.47118  -1 
  -5  -4   8 14.7520 2.47118   2 
   6  -2  10 35.0906 3.06496  -1 
  -6  -4   8 35.0906 3.06496   2 
  -6  -1  10 5.79705 3.05005   2 
  -5  -1  10 43.0891 4.15017   2 
  -4  -1  10 21.3442 3.10564   2 
  -3  -1  10 2.83177 1.32539   2 
  -2  -1  10 8.64101 1.31197   2 
  -1  -1  10 222.781 3.50882   2 
   0  -1  10 406.699 4.39238   2 
   1  -1  10 83.7714 1.96083   2 
   2  -1  10 -0.7265 1.16206   2 
   3  -1  10 19.6819 1.46736   2 
   4  -1  10 2.00641 1.66120   2 
   5  -1  10 11.5690 1.78617   2 
   6  -1  10 6.95470 2.70046   2 
  -5   0  10 19.3282 6.31880  -1 
   5  -5   5 19.3282 6.31880   2 
  -4   0  10 72.0813 4.06389  -1 
   4  -5   5 72.0813 4.06389   2 
  -3   0  10 2.09799 2.98375  -1 
   3  -5   5 2.09799 2.98375   2 
  -2   0  10 7.62499 2.56545  -1 
   2  -5   5 7.62499 2.56545   2 
  -1   0  10 77.1845 2.33901  -1 
   1  -5   5 77.1845 2.33901   2 
   0   0  10 2.29763 1.69127  -1 
   0  -5   5 2.29763 1.69127   2 
   1   0  10 12.7766 1.79935  -1 
  -1  -5   5 12.7766 1.79935   2 
   2   0  10 364.801 4.94482  -1 
  -2  -5   5 364.801 4.94482   2 
   3   0  10 21.3497 1.73771  -1 
  -3  -5   5 21.3497 1.73771   2 
   4   0  10 8.97314 1.73294  -1 
  -4  -5   5 8.97314 1.73294   2 
   5   0  10 0.31959 2.10932  -1 
  -5  -5   5 0.31959 2.10932   2 
   6   0  10 11.3268 2.48863  -1 
  -6  -5   5 11.3268 2.48863   2 
   7   0  10 176.106 6.13095  -1 
  -7  -5   5 176.106 6.13095   2 
  -5   1  10 28.4682 3.86610   2 
  -4   1  10 1.55259 1.76610   2 
  -3   1  10 12.6350 1.86963   2 
  -2   1  10 11.2089 1.74896   2 
  -1   1  10 0.00746 0.83634   2 
   0   1  10 186.099 2.89772   2 
   1   1  10 146.916 2.24585   2 
   2   1  10 105.138 1.90882   2 
   3   1  10 33.7975 1.82108   2 
   4   1  10 2.00444 1.26558   2 
   5   1  10 57.4941 2.58509   2 
   6   1  10 -1.9425 1.39704   2 
   7   1  10 1.82664 2.58570   2 
  -5   2  10 6.28253 6.81974  -1 
   5  -6   2 6.28253 6.81974   2 
  -4   2  10 15.7194 3.68231  -1 
   4  -6   2 15.7194 3.68231   2 
  -3   2  10 351.681 7.60982  -1 
   3  -6   2 351.681 7.60982   2 
  -2   2  10 63.9548 3.55194  -1 
   2  -6   2 63.9548 3.55194   2 
  -1   2  10 114.628 3.09486  -1 
   1  -6   2 114.628 3.09486   2 
   0   2  10 30.0251 2.00371  -1 
   0  -6   2 30.0251 2.00371   2 
   1   2  10 10.5623 1.53991  -1 
  -1  -6   2 10.5623 1.53991   2 
   2   2  10 9.11713 1.35851  -1 
  -2  -6   2 9.11713 1.35851   2 
   3   2  10 5.11264 1.49225  -1 
  -3  -6   2 5.11264 1.49225   2 
   4   2  10 3.73632 1.45388  -1 
  -4  -6   2 3.73632 1.45388   2 
   5   2  10 11.4794 1.44572  -1 
  -5  -6   2 11.4794 1.44572   2 
   6   2  10 137.083 2.47077  -1 
  -6  -6   2 137.083 2.47077   2 
   7   2  10 19.7066 3.32585  -1 
  -7  -6   2 19.7066 3.32585   2 
  -5   3  10 21.1639 4.00685   2 
  -4   3  10 10.5229 2.00597   2 
  -3   3  10 101.625 3.66864   2 
  -2   3  10 35.3598 2.59291   2 
  -1   3  10 86.0900 2.51019   2 
   0   3  10 79.6768 2.17761   2 
   1   3  10 85.2919 1.97788   2 
   2   3  10 43.2431 1.83576   2 
   3   3  10 20.9891 1.51072   2 
   4   3  10 6.93679 1.01435   2 
   5   3  10 10.9585 1.13245   2 
   6   3  10 7.33421 1.44672   2 
   7   3  10 -1.0805 2.21692   2 
  -4   4  10 7.62223 5.05972  -1 
  -4   7   1 7.62223 5.05972   2 
  -3   4  10 1.58376 3.99029  -1 
  -3   7   1 1.58376 3.99029   2 
  -2   4  10 163.682 5.18432  -1 
  -2   7   1 163.682 5.18432   2 
  -1   4  10 74.8794 3.43523  -1 
  -1   7   1 74.8794 3.43523   2 
   0   4  10 34.7426 2.83240  -1 
   0   7   1 34.7426 2.83240   2 
   1   4  10 428.353 7.89008  -1 
   1   7   1 428.353 7.89008   2 
   2   4  10 5.72496 2.00894  -1 
   2   7   1 5.72496 2.00894   2 
   3   4  10 8.61349 1.85316  -1 
   3   7   1 8.61349 1.85316   2 
   4   4  10 11.2875 1.40442  -1 
   4   7   1 11.2875 1.40442   2 
   5   4  10 8.08251 1.36307  -1 
   5   7   1 8.08251 1.36307   2 
   6   4  10 590.895 15.8350  -1 
   6   7   1 590.895 15.8350   2 
   7   4  10 5.50411 9.13074  -1 
   7   7   1 5.50411 9.13074   2 
  -4   5  10 0.10722 2.19238   2 
  -3   5  10 17.6350 2.28561   2 
  -2   5  10 30.8935 2.89237   2 
  -1   5  10 7.82576 2.51164   2 
   0   5  10 10.3366 1.61215   2 
   1   5  10 82.7870 2.86277   2 
   2   5  10 30.1126 2.11645   2 
   3   5  10 0.51696 0.95940   2 
   4   5  10 5.25888 0.96773   2 
   5   5  10 7.22633 0.91558   2 
   6   5  10 29.4937 1.57640   2 
   7   5  10 17.1690 2.28823   2 
  -3   6  10 8.90077 5.79378  -1 
  -3   8   4 8.90077 5.79378   2 
  -2   6  10 19.7932 5.03896  -1 
  -2   8   4 19.7932 5.03896   2 
  -1   6  10 6.16283 4.13327  -1 
  -1   8   4 6.16283 4.13327   2 
   0   6  10 94.8272 3.86143  -1 
   0   8   4 94.8272 3.86143   2 
   1   6  10 15.1038 2.85882  -1 
   1   8   4 15.1038 2.85882   2 
   2   6  10 3.36954 2.40763  -1 
   2   8   4 3.36954 2.40763   2 
   3   6  10 1.19299 2.29585  -1 
   3   8   4 1.19299 2.29585   2 
   4   6  10 1.37153 1.82597  -1 
   4   8   4 1.37153 1.82597   2 
   5   6  10 14.6351 1.64816  -1 
   5   8   4 14.6351 1.64816   2 
  -2   7  10 36.4575 4.64595   2 
  -1   7  10 6.54191 2.81769   2 
   0   7  10 1.73325 1.68481   2 
   1   7  10 2.39076 1.51549   2 
   2   7  10 6.75001 1.52328   2 
   3   7  10 1.79210 1.38718   2 
   4   7  10 -0.7019 1.12274   2 
   5   7  10 0.85578 1.73915   2 
   0   8  10 36.0456 5.34989  -1 
   0   9   7 36.0456 5.34989   2 
   1   8  10 7.93001 3.34961  -1 
   1   9   7 7.93001 3.34961   2 
   2   8  10 18.4932 3.15218  -1 
   2   9   7 18.4932 3.15218   2 
   3   8  10 10.4844 4.00154  -1 
   3   9   7 10.4844 4.00154   2 
   4   8  10 35.8592 3.99213  -1 
   4   9   7 35.8592 3.99213   2 
  -2  -6  11 7.93642 2.52758   2 
  -1  -6  11 -1.1782 2.63259   2 
   0  -6  11 3.95595 2.70247   2 
   1  -6  11 11.9929 3.68683   2 
  -4  -5  11 0.37982 6.16937  -1 
   4  -3  13 0.37982 6.16937   2 
  -3  -5  11 42.0312 5.76264  -1 
   3  -3  13 42.0312 5.76264   2 
  -2  -5  11 -0.3774 3.81059  -1 
   2  -3  13 -0.3774 3.81059   2 
  -1  -5  11 19.7184 3.91221  -1 
   1  -3  13 19.7184 3.91221   2 
   0  -5  11 32.1968 4.16970  -1 
   0  -3  13 32.1968 4.16970   2 
   1  -5  11 24.3426 4.23229  -1 
  -1  -3  13 24.3426 4.23229   2 
   2  -5  11 147.075 7.78534  -1 
  -2  -3  13 147.075 7.78534   2 
   3  -5  11 14.3253 6.40503  -1 
  -3  -3  13 14.3253 6.40503   2 
  -4  -4  11 54.7361 5.14417   2 
  -3  -4  11 19.6272 4.04563   2 
  -2  -4  11 40.0521 3.20381   2 
  -1  -4  11 0.79097 1.77291   2 
   0  -4  11 4.54100 1.87796   2 
   1  -4  11 28.1029 2.51133   2 
   2  -4  11 61.5236 3.48610   2 
   3  -4  11 11.3202 2.39224   2 
   4  -4  11 26.6316 4.10237   2 
  -5  -3  11 -2.4572 6.39506  -1 
   5  -4  10 -2.4572 6.39506   2 
  -4  -3  11 6.89897 5.63663  -1 
   4  -4  10 6.89897 5.63663   2 
  -3  -3  11 157.127 5.21557  -1 
   3  -4  10 157.127 5.21557   2 
  -2  -3  11 86.0692 4.15157  -1 
   2  -4  10 86.0692 4.15157   2 
  -1  -3  11 42.7157 3.92322  -1 
   1  -4  10 42.7157 3.92322   2 
   0  -3  11 81.0574 4.01473  -1 
   0  -4  10 81.0574 4.01473   2 
   1  -3  11 44.8263 3.42223  -1 
  -1  -4  10 44.8263 3.42223   2 
   2  -3  11 62.6693 4.77702  -1 
  -2  -4  10 62.6693 4.77702   2 
   3  -3  11 23.7133 3.14928  -1 
  -3  -4  10 23.7133 3.14928   2 
   4  -3  11 24.8652 5.44749  -1 
  -4  -4  10 24.8652 5.44749   2 
   5  -3  11 15.6482 5.11354  -1 
  -5  -4  10 15.6482 5.11354   2 
  -5  -2  11 11.2597 3.40423   2 
  -4  -2  11 19.8446 3.83733   2 
  -3  -2  11 1.00501 2.57316   2 
  -2  -2  11 82.4402 3.42412   2 
  -1  -2  11 21.9215 2.09628   2 
   0  -2  11 11.7385 1.89442   2 
   1  -2  11 4.18205 1.76275   2 
   2  -2  11 1.24026 1.76525   2 
   3  -2  11 94.7019 3.61349   2 
   4  -2  11 18.7024 2.95177   2 
   5  -2  11 40.8475 4.16330   2 
  -5  -1  11 34.5772 6.24598  -1 
   5  -5   7 34.5772 6.24598   2 
  -4  -1  11 3.69189 3.44107  -1 
   4  -5   7 3.69189 3.44107   2 
  -3  -1  11 15.8497 3.50740  -1 
   3  -5   7 15.8497 3.50740   2 
  -2  -1  11 117.376 4.47676  -1 
   2  -5   7 117.376 4.47676   2 
  -1  -1  11 87.4558 3.45591  -1 
   1  -5   7 87.4558 3.45591   2 
   0  -1  11 198.428 3.49826  -1 
   0  -5   7 198.428 3.49826   2 
   1  -1  11 1154.68 13.7244  -1 
  -1  -5   7 1154.68 13.7244   2 
   2  -1  11 4.42989 2.24207  -1 
  -2  -5   7 4.42989 2.24207   2 
   3  -1  11 6.68587 2.32921  -1 
  -3  -5   7 6.68587 2.32921   2 
   4  -1  11 28.3467 2.65406  -1 
  -4  -5   7 28.3467 2.65406   2 
   5  -1  11 18.9275 2.64383  -1 
  -5  -5   7 18.9275 2.64383   2 
   6  -1  11 69.1073 3.53391  -1 
  -6  -5   7 69.1073 3.53391   2 
  -5   0  11 5.25183 3.24216   2 
  -4   0  11 19.4969 3.16785   2 
  -3   0  11 34.9808 3.02940   2 
  -2   0  11 4.91531 1.76498   2 
  -1   0  11 25.0715 2.42048   2 
   0   0  11 55.3553 2.30019   2 
   1   0  11 286.191 4.51642   2 
   2   0  11 68.2168 2.23788   2 
   3   0  11 137.617 3.59088   2 
   4   0  11 27.2935 2.33836   2 
   5   0  11 -0.5049 1.67846   2 
   6   0  11 1.59685 1.76553   2 
  -5   1  11 213.157 9.72976  -1 
   5  -6   4 213.157 9.72976   2 
  -4   1  11 57.8025 4.17326  -1 
   4  -6   4 57.8025 4.17326   2 
  -3   1  11 80.1904 4.26184  -1 
   3  -6   4 80.1904 4.26184   2 
  -2   1  11 45.9318 3.52625  -1 
   2  -6   4 45.9318 3.52625   2 
  -1   1  11 90.9682 2.69564  -1 
   1  -6   4 90.9682 2.69564   2 
   0   1  11 211.812 3.50352  -1 
   0  -6   4 211.812 3.50352   2 
   1   1  11 126.006 3.20955  -1 
  -1  -6   4 126.006 3.20955   2 
   2   1  11 13.9079 1.80466  -1 
  -2  -6   4 13.9079 1.80466   2 
   3   1  11 14.4723 1.69992  -1 
  -3  -6   4 14.4723 1.69992   2 
   4   1  11 11.7725 2.03597  -1 
  -4  -6   4 11.7725 2.03597   2 
   5   1  11 3.69732 2.01565  -1 
  -5  -6   4 3.69732 2.01565   2 
   6   1  11 38.2618 2.53230  -1 
  -6  -6   4 38.2618 2.53230   2 
  -5   2  11 0.61611 3.79412   2 
  -4   2  11 1.65795 1.91976   2 
  -3   2  11 53.9084 3.06691   2 
  -2   2  11 10.7977 1.83886   2 
  -1   2  11 30.2497 2.14753   2 
   0   2  11 60.0881 2.27989   2 
   1   2  11 72.5488 2.15911   2 
   2   2  11 20.1370 1.60263   2 
   3   2  11 110.866 3.01324   2 
   4   2  11 65.6590 2.56254   2 
   5   2  11 13.3575 1.56239   2 
   6   2  11 6.86726 1.67242   2 
   7   2  11 1.92031 2.37543   2 
  -4   3  11 6.87911 4.27666  -1 
   4  -7   1 6.87911 4.27666   2 
  -3   3  11 171.990 5.50155  -1 
   3  -7   1 171.990 5.50155   2 
  -2   3  11 62.4268 3.88543  -1 
   2  -7   1 62.4268 3.88543   2 
  -1   3  11 31.1581 2.99244  -1 
   1  -7   1 31.1581 2.99244   2 
   0   3  11 91.8190 3.11555  -1 
   0  -7   1 91.8190 3.11555   2 
   1   3  11 1.90855 2.23575  -1 
  -1  -7   1 1.90855 2.23575   2 
   2   3  11 4.82161 1.60590  -1 
  -2  -7   1 4.82161 1.60590   2 
   3   3  11 1.93464 1.16642  -1 
  -3  -7   1 1.93464 1.16642   2 
   4   3  11 29.7917 1.61304  -1 
  -4  -7   1 29.7917 1.61304   2 
   5   3  11 55.4700 1.77464  -1 
  -5  -7   1 55.4700 1.77464   2 
   6   3  11 11.6541 1.49326  -1 
  -6  -7   1 11.6541 1.49326   2 
   7   3  11 29.7952 9.35367  -1 
  -7  -7   1 29.7952 9.35367   2 
  -4   4  11 10.5892 2.33316   2 
  -3   4  11 0.33167 1.90918   2 
  -2   4  11 3.07626 1.63761   2 
  -1   4  11 10.3087 1.75057   2 
   0   4  11 50.4684 2.72385   2 
   1   4  11 10.2539 1.48360   2 
   2   4  11 21.6046 1.81874   2 
   3   4  11 7.51532 1.34818   2 
   4   4  11 27.9570 2.03781   2 
   5   4  11 10.7674 1.37447   2 
   6   4  11 22.4520 1.88050   2 
  -3   5  11 40.2482 5.50612  -1 
  -3   8   2 40.2482 5.50612   2 
  -2   5  11 91.8671 6.30283  -1 
  -2   8   2 91.8671 6.30283   2 
  -1   5  11 41.6575 5.04441  -1 
  -1   8   2 41.6575 5.04441   2 
   0   5  11 3.50486 2.98279  -1 
   0   8   2 3.50486 2.98279   2 
   1   5  11 1.93466 2.80382  -1 
   1   8   2 1.93466 2.80382   2 
   2   5  11 2.54966 2.49654  -1 
   2   8   2 2.54966 2.49654   2 
   3   5  11 128.439 3.27931  -1 
   3   8   2 128.439 3.27931   2 
   4   5  11 152.375 2.85072  -1 
   4   8   2 152.375 2.85072   2 
   5   5  11 1.90309 1.71506  -1 
   5   8   2 1.90309 1.71506   2 
   6   5  11 9.08285 9.90415  -1 
   6   8   2 9.08285 9.90415   2 
  -2   6  11 -1.3243 2.81052   2 
  -1   6  11 15.7000 2.86053   2 
   0   6  11 0.09490 1.60557   2 
   1   6  11 23.1766 2.14354   2 
   2   6  11 13.5466 1.73619   2 
   3   6  11 5.71651 1.35070   2 
   4   6  11 6.74194 1.27560   2 
   5   6  11 8.29006 1.31177   2 
   6   6  11 11.6827 2.07062   2 
  -1   7  11 16.1217 5.26222  -1 
  -1   9   5 16.1217 5.26222   2 
   0   7  11 17.6462 4.62209  -1 
   0   9   5 17.6462 4.62209   2 
   1   7  11 4.92002 2.94407  -1 
   1   9   5 4.92002 2.94407   2 
   2   7  11 42.2437 3.21638  -1 
   2   9   5 42.2437 3.21638   2 
   3   7  11 7.60795 2.61075  -1 
   3   9   5 7.60795 2.61075   2 
   4   7  11 33.5970 3.31227  -1 
   4   9   5 33.5970 3.31227   2 
   5   7  11 16.2599 2.85806  -1 
   5   9   5 16.2599 2.85806   2 
   1   8  11 11.9951 1.98966   2 
   2   8  11 -0.5300 1.67678   2 
   3   8  11 1.89646 2.42735   2 
   4   8  11 2.03369 2.02145   2 
  -3  -5  12 22.0198 6.46650   2 
  -2  -5  12 51.5698 3.77804   2 
  -1  -5  12 -1.0299 2.42277   2 
   0  -5  12 7.44709 2.80956   2 
   1  -5  12 49.2185 3.71818   2 
   2  -5  12 16.2728 2.65391   2 
  -4  -4  12 25.4510 3.42646   2 
  -3  -4  12 -2.3787 5.54299  -1 
   3  -4  12 -2.3787 5.54299   2 
  -2  -4  12 73.1643 4.40407  -1 
   2  -4  12 73.1643 4.40407   2 
  -1  -4  12 92.8940 4.72306  -1 
   1  -4  12 92.8940 4.72306   2 
   0  -4  12 9.31649 3.94411  -1 
   0  -4  12 9.31649 3.94411   2 
   2  -4  12 26.7637 9.90953  -1 
  -2  -4  12 26.7637 9.90953   2 
   3  -4  12 8.00547 5.88408  -1 
  -3  -4  12 8.00547 5.88408   2 
  -4  -3  12 17.4381 3.18271   2 
  -3  -3  12 1.25459 3.10178   2 
  -2  -3  12 38.1153 4.58601   2 
  -1  -3  12 11.6517 2.29640   2 
   0  -3  12 -1.1994 1.93901   2 
   1  -3  12 0.14580 1.89841   2 
   2  -3  12 68.4335 3.57339   2 
   3  -3  12 62.7129 4.93206   2 
   4  -3  12 35.1597 5.03421   2 
  -4  -2  12 31.9174 6.75497  -1 
   4  -5   9 31.9174 6.75497   2 
  -3  -2  12 57.9029 4.09929  -1 
   3  -5   9 57.9029 4.09929   2 
  -2  -2  12 40.8350 3.91557  -1 
   2  -5   9 40.8350 3.91557   2 
  -1  -2  12 53.8662 3.46518  -1 
   1  -5   9 53.8662 3.46518   2 
   0  -2  12 61.5825 3.16262  -1 
   0  -5   9 61.5825 3.16262   2 
   1  -2  12 38.1745 3.76162  -1 
  -1  -5   9 38.1745 3.76162   2 
   2  -2  12 -1.6986 2.57004  -1 
  -2  -5   9 -1.6986 2.57004   2 
   3  -2  12 9.24136 2.84446  -1 
  -3  -5   9 9.24136 2.84446   2 
   4  -2  12 43.2664 3.11134  -1 
  -4  -5   9 43.2664 3.11134   2 
   5  -2  12 3.74032 3.41685  -1 
  -5  -5   9 3.74032 3.41685   2 
  -4  -1  12 6.94338 3.18377   2 
  -3  -1  12 -0.0163 2.81414   2 
  -2  -1  12 3.73481 1.87030   2 
  -1  -1  12 3.32941 1.80695   2 
   0  -1  12 -0.0420 1.74359   2 
   1  -1  12 1.48481 1.76023   2 
   2  -1  12 79.0219 3.29673   2 
   3  -1  12 15.0246 1.96435   2 
   4  -1  12 16.3498 1.93890   2 
   5  -1  12 16.5868 2.77251   2 
  -4   0  12 36.1311 4.34721  -1 
   4  -6   6 36.1311 4.34721   2 
  -3   0  12 88.6089 4.24435  -1 
   3  -6   6 88.6089 4.24435   2 
  -2   0  12 3.97153 4.28178  -1 
   2  -6   6 3.97153 4.28178   2 
  -1   0  12 52.3040 3.43897  -1 
   1  -6   6 52.3040 3.43897   2 
   0   0  12 12.0586 2.12708  -1 
   0  -6   6 12.0586 2.12708   2 
   1   0  12 43.3209 2.60995  -1 
  -1  -6   6 43.3209 2.60995   2 
   2   0  12 27.8279 2.47976  -1 
  -2  -6   6 27.8279 2.47976   2 
   3   0  12 10.3481 2.30061  -1 
  -3  -6   6 10.3481 2.30061   2 
   4   0  12 48.2469 2.63839  -1 
  -4  -6   6 48.2469 2.63839   2 
   5   0  12 31.8227 2.59266  -1 
  -5  -6   6 31.8227 2.59266   2 
   6   0  12 7.12699 4.33037  -1 
  -6  -6   6 7.12699 4.33037   2 
  -4   1  12 10.0253 3.24247   2 
  -3   1  12 0.50254 1.86555   2 
  -2   1  12 5.85254 1.93731   2 
  -1   1  12 105.283 3.62905   2 
   0   1  12 77.3010 2.59724   2 
   1   1  12 247.014 4.09585   2 
   2   1  12 148.628 3.64711   2 
   3   1  12 27.5876 2.42557   2 
   4   1  12 35.4562 2.40698   2 
   5   1  12 -0.9368 1.51195   2 
   6   1  12 -2.0809 1.78096   2 
  -4   2  12 72.4774 4.97161  -1 
   4  -7   3 72.4774 4.97161   2 
  -3   2  12 180.861 5.56656  -1 
   3  -7   3 180.861 5.56656   2 
  -2   2  12 21.6612 3.68493  -1 
   2  -7   3 21.6612 3.68493   2 
  -1   2  12 33.7579 4.71520  -1 
   1  -7   3 33.7579 4.71520   2 
   0   2  12 43.0212 2.85643  -1 
   0  -7   3 43.0212 2.85643   2 
   1   2  12 -0.3735 2.16997  -1 
  -1  -7   3 -0.3735 2.16997   2 
   2   2  12 60.4681 2.54337  -1 
  -2  -7   3 60.4681 2.54337   2 
   3   2  12 23.0372 2.29733  -1 
  -3  -7   3 23.0372 2.29733   2 
   4   2  12 5.22061 2.07729  -1 
  -4  -7   3 5.22061 2.07729   2 
   5   2  12 14.0754 1.98173  -1 
  -5  -7   3 14.0754 1.98173   2 
   6   2  12 8.00679 3.47319  -1 
  -6  -7   3 8.00679 3.47319   2 
  -4   3  12 3.40588 3.25268   2 
  -3   3  12 1.84597 1.93676   2 
  -2   3  12 25.1252 2.56314   2 
  -1   3  12 1.87503 1.78913   2 
   0   3  12 1.69104 1.28804   2 
   1   3  12 61.8417 2.89070   2 
   2   3  12 53.6690 2.42124   2 
   3   3  12 75.5325 2.64821   2 
   4   3  12 40.4073 2.38747   2 
   5   3  12 4.65288 1.43381   2 
   6   3  12 15.9151 1.80315   2 
  -3   4  12 10.2289 5.68234  -1 
  -3   8   0 10.2289 5.68234   2 
  -2   4  12 115.366 6.60683  -1 
  -2   8   0 115.366 6.60683   2 
  -1   4  12 14.8353 4.41069  -1 
  -1   8   0 14.8353 4.41069   2 
   0   4  12 27.8716 3.16287  -1 
   0   8   0 27.8716 3.16287   2 
   1   4  12 1.41339 2.68484  -1 
   1   8   0 1.41339 2.68484   2 
   2   4  12 0.73638 2.45270  -1 
   2   8   0 0.73638 2.45270   2 
   3   4  12 16.9289 2.35821  -1 
   3   8   0 16.9289 2.35821   2 
   4   4  12 8.40253 1.76715  -1 
   4   8   0 8.40253 1.76715   2 
   5   4  12 8.66948 1.50690  -1 
   5   8   0 8.66948 1.50690   2 
   6   4  12 0.05640 1.84513  -1 
   6   8   0 0.05640 1.84513   2 
  -3   5  12 6.21895 2.94404   2 
  -2   5  12 67.5235 4.68061   2 
  -1   5  12 7.44080 2.43390   2 
   0   5  12 7.33059 2.40051   2 
   1   5  12 9.16096 1.62225   2 
   2   5  12 16.8487 1.65925   2 
   3   5  12 3.28318 1.37708   2 
   4   5  12 3.23814 1.35625   2 
   5   5  12 1.41191 1.27850   2 
   6   5  12 5.61842 2.21262   2 
  -2   6  12 4.66339 3.25282   2 
  -1   6  12 26.8567 5.89658  -1 
  -1   9   3 26.8567 5.89658   2 
   0   6  12 10.7753 3.37594  -1 
   0   9   3 10.7753 3.37594   2 
   1   6  12 146.298 4.52614  -1 
   1   9   3 146.298 4.52614   2 
   2   6  12 19.8283 2.93665  -1 
   2   9   3 19.8283 2.93665   2 
   3   6  12 5.89603 2.60406  -1 
   3   9   3 5.89603 2.60406   2 
   4   6  12 15.2717 3.48572  -1 
   4   9   3 15.2717 3.48572   2 
   5   6  12 16.8317 3.32694  -1 
   5   9   3 16.8317 3.32694   2 
   0   7  12 9.08476 3.06103   2 
   1   7  12 1.34777 1.76295   2 
   2   7  12 14.5743 1.94946   2 
   3   7  12 7.15562 1.59982   2 
   4   7  12 0.37336 2.29861   2 
  -1  -5  13 -3.0666 4.72639  -1 
   1  -4  14 -3.0666 4.72639   2 
   0  -5  13 121.104 7.77391  -1 
   0  -4  14 121.104 7.77391   2 
   1  -5  13 42.4092 6.92085  -1 
  -1  -4  14 42.4092 6.92085   2 
  -3  -4  13 3.68722 5.83903   2 
  -2  -4  13 4.60468 2.98105   2 
  -1  -4  13 6.48463 2.98168   2 
   0  -4  13 -3.6973 2.03138   2 
   1  -4  13 13.8727 2.34726   2 
   2  -4  13 40.4757 3.68982   2 
   3  -4  13 5.96007 3.54522   2 
  -3  -3  13 -7.2151 6.37214  -1 
   3  -5  11 -7.2151 6.37214   2 
  -2  -3  13 134.910 5.19975  -1 
   2  -5  11 134.910 5.19975   2 
  -1  -3  13 17.7158 3.77065  -1 
   1  -5  11 17.7158 3.77065   2 
   0  -3  13 35.9539 4.73050  -1 
   0  -5  11 35.9539 4.73050   2 
   1  -3  13 18.5946 4.21088  -1 
  -1  -5  11 18.5946 4.21088   2 
   2  -3  13 10.6719 4.62011  -1 
  -2  -5  11 10.6719 4.62011   2 
   3  -3  13 43.2370 5.58959  -1 
  -3  -5  11 43.2370 5.58959   2 
   4  -3  13 0.68750 5.33552  -1 
  -4  -5  11 0.68750 5.33552   2 
  -4  -2  13 2.08145 3.43489   2 
  -3  -2  13 2.01795 3.10069   2 
  -2  -2  13 2.76986 2.96847   2 
  -1  -2  13 29.7049 2.72636   2 
   0  -2  13 0.13105 1.88768   2 
   1  -2  13 1.62590 1.98880   2 
   2  -2  13 15.3256 2.21867   2 
   3  -2  13 44.5070 4.92820   2 
   4  -2  13 6.52543 2.73667   2 
  -4  -1  13 14.4654 6.53470  -1 
   4  -6   8 14.4654 6.53470   2 
  -3  -1  13 6.43459 5.15514  -1 
   3  -6   8 6.43459 5.15514   2 
  -2  -1  13 142.694 5.15887  -1 
   2  -6   8 142.694 5.15887   2 
  -1  -1  13 85.5135 3.81649  -1 
   1  -6   8 85.5135 3.81649   2 
   0  -1  13 22.8656 4.30602  -1 
   0  -6   8 22.8656 4.30602   2 
   1  -1  13 20.0464 2.69672  -1 
  -1  -6   8 20.0464 2.69672   2 
   2  -1  13 0.90028 2.58972  -1 
  -2  -6   8 0.90028 2.58972   2 
   3  -1  13 2.96848 2.56564  -1 
  -3  -6   8 2.96848 2.56564   2 
   4  -1  13 10.9975 2.81278  -1 
  -4  -6   8 10.9975 2.81278   2 
   5  -1  13 9.19310 3.23741  -1 
  -5  -6   8 9.19310 3.23741   2 
  -4   0  13 1.92171 3.36974   2 
  -3   0  13 3.60566 3.19269   2 
  -2   0  13 33.4024 3.01472   2 
  -1   0  13 13.8851 2.07476   2 
   0   0  13 59.9627 4.48868   2 
   1   0  13 52.1285 2.81856   2 
   2   0  13 26.3486 2.79542   2 
   3   0  13 -1.9780 1.66744   2 
   4   0  13 23.4986 2.11434   2 
   5   0  13 2.47661 1.85727   2 
  -4   1  13 109.267 8.50249  -1 
   4  -7   5 109.267 8.50249   2 
  -3   1  13 6.80454 4.30684  -1 
   3  -7   5 6.80454 4.30684   2 
  -2   1  13 22.1851 3.79560  -1 
   2  -7   5 22.1851 3.79560   2 
  -1   1  13 120.489 6.10500  -1 
   1  -7   5 120.489 6.10500   2 
   0   1  13 113.408 3.82590  -1 
   0  -7   5 113.408 3.82590   2 
   1   1  13 334.630 5.69682  -1 
  -1  -7   5 334.630 5.69682   2 
   2   1  13 277.015 5.05262  -1 
  -2  -7   5 277.015 5.05262   2 
   3   1  13 22.4262 2.42046  -1 
  -3  -7   5 22.4262 2.42046   2 
   4   1  13 18.9904 2.35328  -1 
  -4  -7   5 18.9904 2.35328   2 
   5   1  13 16.0129 2.62866  -1 
  -5  -7   5 16.0129 2.62866   2 
   6   1  13 3.25187 10.1789  -1 
  -6  -7   5 3.25187 10.1789   2 
  -3   2  13 2.69132 2.06990   2 
  -2   2  13 3.41108 1.97658   2 
  -1   2  13 5.49759 1.92280   2 
   0   2  13 18.4431 2.06404   2 
   1   2  13 22.9576 2.18041   2 
   2   2  13 277.127 5.39271   2 
   3   2  13 10.8479 1.65039   2 
   4   2  13 55.2321 2.80176   2 
   5   2  13 21.5108 1.93806   2 
   6   2  13 0.41460 2.55877   2 
  -3   3  13 55.4516 6.29626  -1 
   3  -8   2 55.4516 6.29626   2 
  -2   3  13 70.0742 6.26013  -1 
   2  -8   2 70.0742 6.26013   2 
  -1   3  13 39.1652 5.15621  -1 
   1  -8   2 39.1652 5.15621   2 
   0   3  13 120.307 4.10133  -1 
   0  -8   2 120.307 4.10133   2 
   1   3  13 145.628 3.94738  -1 
  -1  -8   2 145.628 3.94738   2 
   2   3  13 13.1689 2.81225  -1 
  -2  -8   2 13.1689 2.81225   2 
   3   3  13 8.75105 2.33707  -1 
  -3  -8   2 8.75105 2.33707   2 
   4   3  13 28.9269 2.36704  -1 
  -4  -8   2 28.9269 2.36704   2 
   5   3  13 16.8488 3.88825  -1 
  -5  -8   2 16.8488 3.88825   2 
   6   3  13 6.39059 3.52644  -1 
  -6  -8   2 6.39059 3.52644   2 
  -3   4  13 35.2448 4.76673   2 
  -2   4  13 9.84385 3.13913   2 
  -1   4  13 -0.3481 2.59912   2 
   0   4  13 5.63290 2.64308   2 
   1   4  13 7.04802 1.69613   2 
   2   4  13 16.8582 1.80580   2 
   3   4  13 3.74289 1.43805   2 
   4   4  13 14.5453 1.62203   2 
   5   4  13 12.0724 1.65655   2 
  -2   5  13 49.3466 6.25495  -1 
  -2   9   1 49.3466 6.25495   2 
  -1   5  13 5.22008 5.34715  -1 
  -1   9   1 5.22008 5.34715   2 
   0   5  13 9.02698 4.80360  -1 
   0   9   1 9.02698 4.80360   2 
   1   5  13 5.88727 3.00284  -1 
   1   9   1 5.88727 3.00284   2 
   2   5  13 7.11473 2.83141  -1 
   2   9   1 7.11473 2.83141   2 
   3   5  13 4.92833 2.51488  -1 
   3   9   1 4.92833 2.51488   2 
   4   5  13 9.42370 3.63113  -1 
   4   9   1 9.42370 3.63113   2 
   5   5  13 13.9972 3.41304  -1 
   5   9   1 13.9972 3.41304   2 
  -1   6  13 2.32405 2.57984   2 
   0   6  13 2.55686 2.63048   2 
   1   6  13 12.5890 1.89142   2 
   2   6  13 1.49382 1.66375   2 
   3   6  13 -0.0746 1.49760   2 
   4   6  13 1.15925 2.20311   2 
   1   7  13 5.74995 2.51949   2 
   2   7  13 30.0466 5.16064  -1 
   2  10   4 30.0466 5.16064   2 
  -1  -4  14 28.0090 6.23669  -1 
   1  -5  13 28.0090 6.23669   2 
   0  -4  14 108.644 6.41313  -1 
   0  -5  13 108.644 6.41313   2 
   1  -4  14 4.95368 6.53713  -1 
  -1  -5  13 4.95368 6.53713   2 
  -2  -3  14 57.6579 5.70132   2 
  -1  -3  14 16.2022 3.51503   2 
   0  -3  14 0.10502 2.32955   2 
   1  -3  14 0.99655 2.26014   2 
   2  -3  14 79.4367 6.06117   2 
   3  -3  14 17.2519 3.72269   2 
  -2  -2  14 20.7925 4.51278  -1 
   2  -6  10 20.7925 4.51278   2 
  -1  -2  14 57.1583 6.25983  -1 
   1  -6  10 57.1583 6.25983   2 
   0  -2  14 128.475 5.89360  -1 
   0  -6  10 128.475 5.89360   2 
   1  -2  14 20.6234 4.66292  -1 
  -1  -6  10 20.6234 4.66292   2 
   2  -2  14 8.88918 4.07278  -1 
  -2  -6  10 8.88918 4.07278   2 
   3  -2  14 4.97591 4.88333  -1 
  -3  -6  10 4.97591 4.88333   2 
   4  -2  14 4.21396 11.3575  -1 
  -4  -6  10 4.21396 11.3575   2 
  -3  -1  14 5.76651 3.42902   2 
  -2  -1  14 34.0794 3.46074   2 
  -1  -1  14 2.83222 2.04064   2 
   0  -1  14 1.80274 2.08887   2 
   1  -1  14 -0.0134 1.84893   2 
   2  -1  14 -0.2469 2.51916   2 
   3  -1  14 10.6746 2.80816   2 
   4  -1  14 18.5982 3.31390   2 
  -3   0  14 62.2838 6.14634  -1 
   3  -7   7 62.2838 6.14634   2 
  -2   0  14 75.2197 5.94285  -1 
   2  -7   7 75.2197 5.94285   2 
  -1   0  14 59.8031 5.48927  -1 
   1  -7   7 59.8031 5.48927   2 
   0   0  14 26.1499 4.41316  -1 
   0  -7   7 26.1499 4.41316   2 
   1   0  14 14.3728 4.16718  -1 
  -1  -7   7 14.3728 4.16718   2 
   2   0  14 10.4346 2.71803  -1 
  -2  -7   7 10.4346 2.71803   2 
   3   0  14 13.5875 2.64397  -1 
  -3  -7   7 13.5875 2.64397   2 
   4   0  14 44.6587 3.19442  -1 
  -4  -7   7 44.6587 3.19442   2 
   5   0  14 4.22021 4.61120  -1 
  -5  -7   7 4.22021 4.61120   2 
  -3   1  14 1.31345 3.30863   2 
  -2   1  14 12.6787 2.25807   2 
  -1   1  14 30.1954 2.92357   2 
   0   1  14 42.5395 3.09374   2 
   1   1  14 32.9887 4.28639   2 
   2   1  14 -0.0271 2.31036   2 
   3   1  14 46.0512 2.88002   2 
   4   1  14 8.77483 1.71395   2 
   5   1  14 4.97830 1.94613   2 
  -3   2  14 25.1348 3.87751   2 
  -2   2  14 108.982 6.79722  -1 
   2  -8   4 108.982 6.79722   2 
  -1   2  14 7.23065 5.01296  -1 
   1  -8   4 7.23065 5.01296   2 
   0   2  14 22.2337 4.26873  -1 
   0  -8   4 22.2337 4.26873   2 
   1   2  14 8.49594 3.02259  -1 
  -1  -8   4 8.49594 3.02259   2 
   2   2  14 15.9419 3.02353  -1 
  -2  -8   4 15.9419 3.02353   2 
   3   2  14 14.8727 2.59955  -1 
  -3  -8   4 14.8727 2.59955   2 
   4   2  14 62.6618 2.90709  -1 
  -4  -8   4 62.6618 2.90709   2 
   5   2  14 1.70714 3.85387  -1 
  -5  -8   4 1.70714 3.85387   2 
  -2   3  14 -0.4634 2.99321   2 
  -1   3  14 -2.7284 2.61590   2 
   0   3  14 78.0289 5.03486   2 
   1   3  14 54.6464 4.55424   2 
   2   3  14 37.1237 2.88462   2 
   3   3  14 47.6429 2.72755   2 
   4   3  14 12.3721 1.77491   2 
   5   3  14 21.4314 2.00505   2 
  -1   4  14 6.23650 5.65305  -1 
   1  -9   1 6.23650 5.65305   2 
   0   4  14 2.04735 5.08493  -1 
   0  -9   1 2.04735 5.08493   2 
   1   4  14 1.99219 3.07948  -1 
  -1  -9   1 1.99219 3.07948   2 
   2   4  14 1.66265 2.76463  -1 
  -2  -9   1 1.66265 2.76463   2 
   3   4  14 48.8404 2.99373  -1 
  -3  -9   1 48.8404 2.99373   2 
   4   4  14 21.3596 4.50789  -1 
  -4  -9   1 21.3596 4.50789   2 
   5   4  14 14.6486 4.00791  -1 
  -5  -9   1 14.6486 4.00791   2 
  -1   5  14 11.6459 3.21576   2 
   0   5  14 7.34222 2.92081   2 
   1   5  14 8.74073 2.68751   2 
   2   5  14 2.79813 1.71029   2 
   3   5  14 -0.0802 1.56931   2 
   4   5  14 3.85046 1.65018   2 
   1   6  14 5.55782 3.63000  -1 
   1  10   2 5.55782 3.63000   2 
   2   6  14 14.5530 4.98496  -1 
   2  10   2 14.5530 4.98496   2 
   3   6  14 10.2946 4.30674  -1 
   3  10   2 10.2946 4.30674   2 
   0  -3  15 -1.3180 2.30236   2 
  -1  -2  15 1.68618 2.53283   2 
   0  -2  15 -0.9000 2.26617   2 
   1  -2  15 -1.1987 3.48136   2 
   2  -2  15 4.45621 3.38319   2 
  -2  -1  15 14.6983 5.87287  -1 
   2  -7   9 14.6983 5.87287   2 
  -1  -1  15 123.345 7.45339  -1 
   1  -7   9 123.345 7.45339   2 
   0  -1  15 14.1327 4.82397  -1 
   0  -7   9 14.1327 4.82397   2 
   1  -1  15 21.2727 4.83214  -1 
  -1  -7   9 21.2727 4.83214   2 
   2  -1  15 -1.0025 4.68277  -1 
  -2  -7   9 -1.0025 4.68277   2 
   3  -1  15 9.22831 4.99236  -1 
  -3  -7   9 9.22831 4.99236   2 
  -2   0  15 17.8144 2.53873   2 
  -1   0  15 30.0881 3.04233   2 
   0   0  15 1.38156 2.17154   2 
   1   0  15 3.84128 3.00468   2 
   2   0  15 4.25190 2.73121   2 
   3   0  15 4.33767 2.73885   2 
   4   0  15 12.2670 3.13665   2 
  -1   1  15 78.7722 6.19971  -1 
   1  -8   6 78.7722 6.19971   2 
   0   1  15 51.5644 5.50576  -1 
   0  -8   6 51.5644 5.50576   2 
   1   1  15 21.9790 4.55985  -1 
  -1  -8   6 21.9790 4.55985   2 
   2   1  15 8.21052 3.19159  -1 
  -2  -8   6 8.21052 3.19159   2 
   3   1  15 21.3840 2.89445  -1 
  -3  -8   6 21.3840 2.89445   2 
   4   1  15 12.0294 4.52709  -1 
  -4  -8   6 12.0294 4.52709   2 
  -2   2  15 -0.2918 2.29888   2 
  -1   2  15 54.5918 4.99557   2 
   0   2  15 1.59965 3.02501   2 
   1   2  15 20.8435 3.17705   2 
   2   2  15 35.0415 4.54719   2 
   3   2  15 24.8387 2.99473   2 
   4   2  15 3.59581 1.85351   2 
   4   2  15 9.60266 5.43686  -1 
  -4  -8   5 9.60266 5.43686   2 
  -1   3  15 7.67161 5.63261  -1 
   1  -9   3 7.67161 5.63261   2 
   0   3  15 25.3938 5.38446  -1 
   0  -9   3 25.3938 5.38446   2 
   1   3  15 72.4088 3.67449  -1 
  -1  -9   3 72.4088 3.67449   2 
   2   3  15 218.645 5.19047  -1 
  -2  -9   3 218.645 5.19047   2 
   3   3  15 35.9758 3.31334  -1 
  -3  -9   3 35.9758 3.31334   2 
   4   3  15 15.4983 4.60278  -1 
  -4  -9   3 15.4983 4.60278   2 
  -1   4  15 -1.0828 2.90801   2 
   0   4  15 1.63303 2.91918   2 
   1   4  15 -1.4156 2.66791   2 
   2   4  15 2.86925 2.72075   2 
   3   4  15 71.3457 3.38754   2 
   4   4  15 14.9984 1.87159   2 
   2   5  15 79.8500 5.90096  -1 
   2  10   0 79.8500 5.90096   2 
   3   5  15 6.22401 1.93582   2 
   0  -1  16 -0.3000 3.44389   2 
   1  -1  16 -5.1834 3.39910   2 
   0   0  16 31.6951 6.31945  -1 
   0  -8   8 31.6951 6.31945   2 
   1   0  16 106.785 6.06393  -1 
  -1  -8   8 106.785 6.06393   2 
   2   0  16 12.5329 4.91997  -1 
  -2  -8   8 12.5329 4.91997   2 
  -1   1  16 44.2733 5.50801   2 
   0   1  16 16.4551 3.40502   2 
   1   1  16 18.3185 3.58654   2 
   2   1  16 6.43790 3.34595   2 
   3   1  16 2.78178 6.89045  -1 
  -3  -8   7 2.78178 6.89045   2 
   3   1  16 4.80856 3.26730   2 
   0   2  16 26.0561 5.59336  -1 
   0  -9   5 26.0561 5.59336   2 
   1   2  16 12.5854 4.93670  -1 
  -1  -9   5 12.5854 4.93670   2 
   2   2  16 5.77348 3.43889  -1 
  -2  -9   5 5.77348 3.43889   2 
   3   2  16 -2.3117 2.95894   2 
   0   3  16 8.15241 3.29558   2 
   1   3  16 9.71291 2.88557   2 
   2   3  16 20.7446 3.42898   2 
   3   3  16 0.03379 2.85722   2 
   0   0   0    0.00    0.00   0 
;
_shelx_hkl_checksum              29176
loop_
_space_group_symop_operation_xyz
'x, y, z'
'-x, -y, -z'
loop_
_atom_site_label
_atom_site_type_symbol
_atom_site_fract_x
_atom_site_fract_y
_atom_site_fract_z
_atom_site_U_iso_or_equiv
_atom_site_adp_type
_atom_site_occupancy
_atom_site_site_symmetry_order
_atom_site_calc_flag
_atom_site_refinement_flags_posn
_atom_site_refinement_flags_adp
S1 S 0.04486(11) 0.27084(12) 0.76024(8) 0.0326(2) Uani 1 1 d . .
O1 O 0.0577(4) 0.1070(4) 0.7081(3) 0.0467(6) Uani 1 1 d . .
C1 C -0.3123(5) 0.4725(4) 0.7062(3) 0.0232(6) Uani 1 1 d . .
N1 N -0.1059(5) 0.4378(4) 0.6839(2) 0.0304(6) Uani 1 1 d . .
N2 N -0.1112(5) 0.2454(4) 0.8794(2) 0.0307(6) Uani 1 1 d . .
C2 C -0.3165(5) 0.3009(4) 0.8813(3) 0.0251(6) Uani 1 1 d . .
N3 N -0.4219(4) 0.4013(4) 0.7978(2) 0.0285(5) Uani 1 1 d . .
H3A H -0.5636 0.4208 0.8030 0.034 Uiso 1 1 calc R U
C3 C -0.4504(5) 0.6002(5) 0.6315(3) 0.0227(7) Uani 1 1 d . .
C6 C -0.7182(7) 0.8201(6) 0.4977(3) 0.0338(9) Uani 1 1 d . .
H6A H -0.8167 0.8959 0.4519 0.041 Uiso 1 1 calc R U
C5 C -0.5025(7) 0.7892(5) 0.4659(3) 0.0328(8) Uani 1 1 d . .
H5A H -0.4486 0.8448 0.3983 0.039 Uiso 1 1 calc R U
N5 N -0.6678(5) 0.3334(5) 0.9788(3) 0.0300(7) Uani 1 1 d . .
N4 N -0.6656(5) 0.6324(5) 0.6652(3) 0.0279(7) Uani 1 1 d . .
C4 C -0.3621(6) 0.6756(4) 0.5331(3) 0.0278(8) Uani 1 1 d . .
H4A H -0.2106 0.6502 0.5126 0.033 Uiso 1 1 calc R U
C11 C -0.7367(7) 0.1784(6) 1.1561(3) 0.0355(9) Uani 1 1 d . .
H11A H -0.8384 0.1502 1.2150 0.043 Uiso 1 1 calc R U
C12 C -0.8051(6) 0.2931(5) 1.0651(3) 0.0341(9) Uani 1 1 d . .
H12A H -0.9548 0.3449 1.0641 0.041 Uiso 1 1 calc R U
C10 C -0.5168(8) 0.1056(6) 1.1592(3) 0.0401(10) Uani 1 1 d . .
H10A H -0.4649 0.0304 1.2212 0.048 Uiso 1 1 calc R U
C9 C -0.3757(6) 0.1460(5) 1.0693(3) 0.0313(8) Uani 1 1 d . .
H9A H -0.2248 0.0978 1.0674 0.038 Uiso 1 1 calc R U
C8 C -0.4620(6) 0.2587(5) 0.9825(3) 0.0243(7) Uani 1 1 d . .
C7 C -0.7928(5) 0.7409(5) 0.5967(3) 0.0302(7) Uani 1 1 d . .
H7A H -0.9442 0.7651 0.6175 0.036 Uiso 1 1 calc R U
loop_
_atom_site_aniso_label
_atom_site_aniso_U_11
_atom_site_aniso_U_22
_atom_site_aniso_U_33
_atom_site_aniso_U_23
_atom_site_aniso_U_13
_atom_site_aniso_U_12
S1 0.0226(4) 0.0426(5) 0.0281(4) 0.0043(3) 0.0000(3) -0.0037(3)
O1 0.0463(14) 0.0452(16) 0.0409(16) -0.0021(12) 0.0024(14) 0.0003(12)
C1 0.0258(15) 0.0262(15) 0.0192(14) -0.0017(12) 0.0004(12) -0.0105(13)
N1 0.0274(14) 0.0382(16) 0.0238(14) 0.0042(12) 0.0012(11) -0.0098(12)
N2 0.0264(14) 0.0381(17) 0.0257(14) 0.0021(12) -0.0005(11) -0.0077(12)
C2 0.0266(15) 0.0281(16) 0.0218(15) -0.0005(12) -0.0032(12) -0.0092(13)
N3 0.0216(11) 0.0400(16) 0.0222(13) 0.0064(11) -0.0006(11) -0.0092(11)
C3 0.0212(16) 0.0238(16) 0.0238(17) -0.0030(13) -0.0003(12) -0.0069(13)
C6 0.043(2) 0.0297(19) 0.0250(18) 0.0012(15) -0.0054(15) -0.0030(17)
C5 0.042(2) 0.0298(19) 0.0243(18) 0.0010(15) -0.0011(15) -0.0076(16)
N5 0.0265(15) 0.0377(17) 0.0263(16) -0.0016(13) 0.0009(11) -0.0111(13)
N4 0.0268(15) 0.0302(16) 0.0264(15) 0.0011(12) -0.0028(11) -0.0077(12)
C4 0.0284(15) 0.0297(16) 0.0247(18) -0.0009(14) 0.0025(12) -0.0096(13)
C11 0.042(2) 0.040(2) 0.0255(18) -0.0074(16) 0.0101(16) -0.0160(18)
C12 0.0327(17) 0.042(2) 0.0284(19) -0.0065(16) 0.0043(13) -0.0123(15)
C10 0.054(3) 0.040(2) 0.0215(18) 0.0068(16) 0.0007(17) -0.0094(19)
C9 0.0354(16) 0.0312(17) 0.0244(19) 0.0009(15) -0.0024(14) -0.0040(14)
C8 0.0337(19) 0.0233(16) 0.0193(16) -0.0017(13) -0.0027(13) -0.0133(14)
C7 0.0255(14) 0.0313(17) 0.0316(19) -0.0025(15) -0.0005(13) -0.0035(13)
loop_
_atom_type_symbol
_atom_type_description
_atom_type_scat_dispersion_real
_atom_type_scat_dispersion_imag
_atom_type_scat_source
C C 0.0033 0.0016 'International Tables Vol C Tables 4.2.6.8 and 6.1.1.4'
H H 0.0000 0.0000 'International Tables Vol C Tables 4.2.6.8 and 6.1.1.4'
N N 0.0061 0.0033 'International Tables Vol C Tables 4.2.6.8 and 6.1.1.4'
O O 0.0106 0.0060 'International Tables Vol C Tables 4.2.6.8 and 6.1.1.4'
S S 0.1246 0.1234 'International Tables Vol C Tables 4.2.6.8 and 6.1.1.4'
loop_
_geom_angle_atom_site_label_1
_geom_angle_atom_site_label_2
_geom_angle_atom_site_label_3
_geom_angle
O1 S1 N1 104.86(17)
O1 S1 N2 104.91(17)
N1 S1 N2 105.08(12)
N1 C1 N3 125.0(3)
N1 C1 C3 120.1(3)
N3 C1 C3 114.9(3)
C1 N1 S1 119.1(2)
C2 N2 S1 118.8(3)
N2 C2 N3 125.5(3)
N2 C2 C8 120.0(3)
N3 C2 C8 114.5(3)
C2 N3 C1 121.7(2)
N4 C3 C4 123.7(3)
N4 C3 C1 115.2(3)
C4 C3 C1 121.1(3)
C5 C6 C7 119.5(4)
C6 C5 C4 119.2(4)
C8 N5 C12 117.2(3)
C7 N4 C3 115.9(3)
C5 C4 C3 117.7(3)
C12 C11 C10 119.0(4)
N5 C12 C11 122.6(4)
C9 C10 C11 118.2(4)
C8 C9 C10 117.9(3)
N5 C8 C9 125.2(3)
N5 C8 C2 115.0(3)
C9 C8 C2 119.8(3)
N4 C7 C6 123.9(3)
loop_
_geom_bond_atom_site_label_1
_geom_bond_atom_site_label_2
_geom_bond_distance
S1 O1 1.459(3)
S1 N1 1.682(3)
S1 N2 1.686(3)
C1 N1 1.285(4)
C1 N3 1.372(4)
C1 C3 1.480(5)
N2 C2 1.283(4)
C2 N3 1.367(4)
C2 C8 1.507(5)
C3 N4 1.359(5)
C3 C4 1.389(5)
C6 C5 1.359(6)
C6 C7 1.375(5)
C5 C4 1.385(5)
N5 C8 1.314(5)
N5 C12 1.342(4)
N4 C7 1.331(5)
C11 C12 1.393(6)
C11 C10 1.394(7)
C10 C9 1.388(5)
C9 C8 1.384(5)
loop_
_geom_torsion_atom_site_label_1
_geom_torsion_atom_site_label_2
_geom_torsion_atom_site_label_3
_geom_torsion_atom_site_label_4
_geom_torsion
N3 C1 N1 S1 9.8(5)
C3 C1 N1 S1 -171.4(2)
O1 S1 N1 C1 88.1(3)
N2 S1 N1 C1 -22.3(3)
O1 S1 N2 C2 -88.4(3)
N1 S1 N2 C2 21.9(3)
S1 N2 C2 N3 -9.0(5)
S1 N2 C2 C8 172.1(2)
N2 C2 N3 C1 -8.2(5)
C8 C2 N3 C1 170.8(3)
N1 C1 N3 C2 7.8(5)
C3 C1 N3 C2 -171.1(3)
N1 C1 C3 N4 -177.5(3)
N3 C1 C3 N4 1.5(4)
N1 C1 C3 C4 4.2(5)
N3 C1 C3 C4 -176.8(3)
C7 C6 C5 C4 1.2(6)
C4 C3 N4 C7 1.1(5)
C1 C3 N4 C7 -177.2(3)
C6 C5 C4 C3 -0.8(5)
N4 C3 C4 C5 -0.3(5)
C1 C3 C4 C5 177.9(3)
C8 N5 C12 C11 0.4(6)
C10 C11 C12 N5 1.6(6)
C12 C11 C10 C9 -2.2(6)
C11 C10 C9 C8 1.0(5)
C12 N5 C8 C9 -1.8(6)
C12 N5 C8 C2 177.1(3)
C10 C9 C8 N5 1.1(5)
C10 C9 C8 C2 -177.7(4)
N2 C2 C8 N5 175.0(3)
N3 C2 C8 N5 -4.0(4)
N2 C2 C8 C9 -6.1(5)
N3 C2 C8 C9 174.9(3)
C3 N4 C7 C6 -0.7(5)
C5 C6 C7 N4 -0.4(5)
