#------------------------------------------------------------------------------
#$Date: 2015-08-05 20:10:24 +0300 (Wed, 05 Aug 2015) $
#$Revision: 152785 $
#$URL: svn://www.crystallography.net/cod/cif/4/51/31/4513197.cif $
#------------------------------------------------------------------------------
#
# This file is available in the Crystallography Open Database (COD),
# http://www.crystallography.net/
#
# All data on this site have been placed in the public domain by the
# contributors.
#
data_4513197
loop_
_publ_author_name
'Watkins-Curry, Pilanda'
'Burnett, Joseph Vade'
'Samanta, Tapas'
'Young, David P.'
'Stadler, Shane'
'Chan, Julia Y.'
_publ_section_title
;
 Strategic Crystal Growth and Physical Properties of Single-Crystalline
 LnCo2Al8(Ln = La--Nd, Sm, Yb)
;
_journal_issue                   7
_journal_name_full               'Crystal Growth &amp; Design'
_journal_page_first              3293
_journal_paper_doi               10.1021/acs.cgd.5b00417
_journal_volume                  15
_journal_year                    2015
_chemical_formula_moiety         'Al8 Co2 Sm'
_chemical_formula_sum            'Al8 Co2 Sm'
_chemical_formula_weight         484.05
_space_group_crystal_system      orthorhombic
_space_group_IT_number           55
_space_group_name_Hall           '-P 2 2ab'
_space_group_name_H-M_alt        'P b a m'
_symmetry_space_group_name_Hall  '-P 2 2ab'
_symmetry_space_group_name_H-M   'P b a m'
_audit_creation_method           SHELXL-2014/7
_audit_update_record
;
2015-03-20 # Formatted by publCIF
;
_cell_angle_alpha                90
_cell_angle_beta                 90
_cell_angle_gamma                90
_cell_formula_units_Z            4
_cell_length_a                   12.4159(6)
_cell_length_b                   14.3366(7)
_cell_length_c                   3.9831(2)
_cell_measurement_temperature    300(2)
_cell_volume                     709.00(6)
_computing_cell_refinement       'Bruker SAINT'
_computing_data_collection       'Bruker APEX2'
_computing_data_reduction        'Bruker SAINT'
_computing_molecular_graphics    CrystalMaker
_computing_publication_material  'publCIF (Westrip, 2014)'
_computing_structure_refinement  'SHELXL-2014/7 (Sheldrick, 2014)'
_computing_structure_solution    'SHELXS Direct Methods (Sheldrick, 2013)'
_diffrn_ambient_temperature      300(2)
_diffrn_measured_fraction_theta_full 0.999
_diffrn_measured_fraction_theta_max 0.998
_diffrn_measurement_device_type  'Bruker Kappa D8 Quest CMOS'
_diffrn_measurement_method       '\f and \w scans'
_diffrn_radiation_type           MoK\a
_diffrn_radiation_wavelength     0.71073
_diffrn_reflns_av_R_equivalents  0.0684
_diffrn_reflns_av_unetI/netI     0.0293
_diffrn_reflns_laue_measured_fraction_full 0.999
_diffrn_reflns_laue_measured_fraction_max 0.998
_diffrn_reflns_limit_h_max       17
_diffrn_reflns_limit_h_min       -17
_diffrn_reflns_limit_k_max       20
_diffrn_reflns_limit_k_min       -20
_diffrn_reflns_limit_l_max       5
_diffrn_reflns_limit_l_min       -4
_diffrn_reflns_number            17919
_diffrn_reflns_point_group_measured_fraction_full 0.999
_diffrn_reflns_point_group_measured_fraction_max 0.998
_diffrn_reflns_theta_full        25.242
_diffrn_reflns_theta_max         30.487
_diffrn_reflns_theta_min         2.842
_diffrn_source                   'I\mS microfocus tube'
_exptl_absorpt_coefficient_mu    13.682
_exptl_absorpt_correction_T_max  0.794
_exptl_absorpt_correction_T_min  0.667
_exptl_absorpt_correction_type   multi-scan
_exptl_absorpt_process_details   SADABS(2014)
_exptl_crystal_colour            silver
_exptl_crystal_density_diffrn    4.535
_exptl_crystal_description       Fragment
_exptl_crystal_F_000             880
_exptl_crystal_size_max          0.03
_exptl_crystal_size_mid          0.02
_exptl_crystal_size_min          0.02
_refine_diff_density_max         1.796
_refine_diff_density_min         -1.669
_refine_diff_density_rms         0.378
_refine_ls_extinction_coef       0.0038(4)
_refine_ls_extinction_expression Fc^*^=kFc[1+0.001xFc^2^\l^3^/sin(2\q)]^-1/4^
_refine_ls_extinction_method     'SHELXL-2014/7 (Sheldrick 2014'
_refine_ls_goodness_of_fit_ref   1.081
_refine_ls_hydrogen_treatment    undef
_refine_ls_matrix_type           full
_refine_ls_number_parameters     70
_refine_ls_number_reflns         1227
_refine_ls_number_restraints     0
_refine_ls_restrained_S_all      1.081
_refine_ls_R_factor_all          0.0310
_refine_ls_R_factor_gt           0.0298
_refine_ls_shift/su_max          0.010
_refine_ls_shift/su_mean         0.001
_refine_ls_structure_factor_coef Fsqd
_refine_ls_weighting_details
'w=1/[\s^2^(Fo^2^)+(0.0519P)^2^+1.1827P] where P=(Fo^2^+2Fc^2^)/3'
_refine_ls_weighting_scheme      calc
_refine_ls_wR_factor_gt          0.0751
_refine_ls_wR_factor_ref         0.0766
_reflns_Friedel_coverage         0.000
_reflns_number_gt                1165
_reflns_number_total             1227
_reflns_threshold_expression     'I > 2\s(I)'
_cod_data_source_file            cg5b00417_si_001.cif
_cod_data_source_block           shelx
_cod_depositor_comments
'Adding full bibliography for 4513193--4513198.cif.'
_cod_database_code               4513197
_shelx_shelxl_version_number     2014/7
_shelx_space_group_comment
;
The symmetry employed for this shelxl refinement is uniquely defined
by the following loop, which should always be used as a source of
symmetry information in preference to the above space-group names.
They are only intended as comments.
;
_shelx_res_file
;

    shelx.res created by SHELXL-2014/7


TITL scd0297_SmCoAl in Pbam
CELL 0.71073  12.41590  14.33660   3.98310  90.0000  90.0000  90.0000
ZERR    4.00   0.00060   0.00070   0.00020   0.0000   0.0000   0.0000
LATT  1
SYMM -X, -Y, Z
SYMM 0.5-X, 0.5+Y, -Z
SYMM 0.5+X, 0.5-Y, -Z
SFAC AL CO SM
UNIT 32 8 4
TEMP 26.670
ACTA
L.S. 4
BOND
FMAP 2
PLAN 20
WGHT    0.051900    1.182700
EXTI    0.003805
FVAR       0.06598
SM1   3    0.340722    0.318602   10.000000    10.50000    0.00627    0.01071 =
         0.00200    0.00000    0.00000   -0.00146
CO1   2    0.034649    0.405870   10.000000    10.50000    0.00620    0.00532 =
         0.00203    0.00000    0.00000    0.00095
CO2   2    0.151856    0.096452   10.000000    10.50000    0.00366    0.00401 =
         0.00066    0.00000    0.00000    0.00017
AL1   1    0.024884    0.132032   10.500000    10.50000    0.00402    0.00597 =
         0.00304    0.00000    0.00000    0.00008
AL2   1    0.160783    0.378725   10.500000    10.50000    0.00412    0.00610 =
         0.00366    0.00000    0.00000    0.00034
AL3   1    0.236270    0.173483   10.500000    10.50000    0.00386    0.00803 =
         0.00384    0.00000    0.00000   -0.00201
AL4   1    0.331874    0.490760   10.500000    10.50000    0.00702    0.00544 =
         0.00280    0.00000    0.00000   -0.00196
AL5   1    0.452510    0.180339   10.500000    10.50000    0.00458    0.00597 =
         0.00424    0.00000    0.00000    0.00119
AL6   1    0.096577    0.253079   10.000000    10.50000    0.00626    0.00432 =
         0.00413    0.00000    0.00000    0.00085
AL7   1    0.339828    0.044444   10.000000    10.50000    0.00592    0.01040 =
         0.00603    0.00000    0.00000    0.00231
AL8   1   10.000000   10.500000   10.500000    10.25000    0.00881    0.00592 =
         0.00218    0.00000    0.00000    0.00165
AL9   1   10.000000   10.000000   10.000000    10.25000    0.00357    0.00565 =
         0.00402    0.00000    0.00000   -0.00194
HKLF 4

REM  scd0297_SmCoAl in Pbam
REM R1 =  0.0298 for    1165 Fo > 4sig(Fo)  and  0.0310 for all    1227 data
REM     70 parameters refined using      0 restraints

END

WGHT      0.0484      1.0714

REM Highest difference peak  1.796,  deepest hole -1.669,  1-sigma level  0.378
Q1    1   0.3429  0.4028  0.5000  10.50000  0.05    1.41
Q2    1   0.1631  0.1761  0.5000  10.50000  0.05    1.39
Q3    1   0.3617  0.2954  0.2921  11.00000  0.05    1.38
Q4    1   0.3365  0.4268  0.0000  10.50000  0.05    1.33
Q5    1   0.3194  0.3349  0.2873  11.00000  0.05    1.20
Q6    1  -0.0392  0.0459  0.5000  10.50000  0.05    1.17
Q7    1   0.3559  0.3088 -0.5000  10.50000  0.05    1.15
Q8    1   0.3421  0.2708  0.0000  10.50000  0.05    1.13
Q9    1   0.3401  0.2323  0.5000  10.50000  0.05    1.13
Q10   1   0.3436  0.4017  0.2813  11.00000  0.05    1.09
Q11   1   0.3425  0.3675  0.0000  10.50000  0.05    1.08
Q12   1  -0.0399  0.5829  0.5000  10.50000  0.05    1.06
Q13   1  -0.1177  0.0118  0.0000  10.50000  0.05    1.05
Q14   1   0.4299  0.4693  0.5000  10.50000  0.05    1.01
Q15   1   0.3549  0.3342  0.2993  11.00000  0.05    1.00
Q16   1   0.2869  0.3599  0.5000  10.50000  0.05    0.96
Q17   1   0.1385  0.1815  0.3057  11.00000  0.05    0.95
Q18   1   0.0251  0.1770  0.5000  10.50000  0.05    0.95
Q19   1   0.1363  0.0972  0.5000  10.50000  0.05    0.94
Q20   1   0.2012  0.0019  0.0000  10.50000  0.05    0.93
;
_shelx_res_checksum              51329
_shelx_hkl_file
;
   0   0  -1  182.26   16.22
   0   0  -1  206.31   16.25
   0   0  -1  182.26   16.22
   0   0  -1  206.31   16.25
   0   0   2 1000.00   78.94
   0   0   2  901.41   78.94
   0   0   2  901.39   78.94
   0   0   2 1000.00   78.94
   0   0   3  168.12   13.94
   0   0   3  168.12   13.94
   0   0   3  167.74   13.94
   0   0   3  167.74   13.94
   0   0   4  690.30   63.60
   0   0   4  842.11   63.57
   0   0   4  690.29   63.60
   0   0   4  842.11   63.57
   0   0   5   93.63    7.36
   0   0   5   77.48    7.18
   0   0   5   88.26    7.18
   0   0   5   88.26    7.18
   0   0   5   77.48    7.18
   0   0   5   93.63    7.36
  -1   0   1    0.16    0.03
   1   0   1    0.06    0.03
   1   0  -1    0.28    0.05
   1   0   1    0.28    0.04
   1   0   1    0.12    0.03
   1   0   1    0.12    0.03
   1   0   1    0.06    0.03
   1   0  -1    0.28    0.05
  -1   0   1    0.16    0.03
   1   0   1    0.28    0.04
  -1   0  -2    0.05    0.04
  -1   0  -2    0.05    0.04
   1   0   2    0.02    0.03
   1   0   2   -0.01    0.06
   1   0   2    0.15    0.07
  -1   0   2    0.01    0.05
   1   0   2    0.02    0.03
  -1   0   2    0.01    0.05
  -1   0   2    0.11    0.05
   1   0   2   -0.01    0.06
  -1   0   2    0.11    0.05
   1   0   2    0.15    0.07
   1   0   3    0.05    0.08
   1   0   3    0.00    0.09
  -1   0   3    0.01    0.06
   1   0   3    0.05    0.08
  -1   0   3    0.08    0.08
   1   0   3    0.00    0.09
   1   0   3    0.07    0.05
  -1   0   3    0.08    0.08
  -1   0   3    0.01    0.06
  -1   0  -3    0.05    0.06
  -1   0  -3    0.05    0.06
   1   0   3    0.07    0.05
   1   0   4    0.03    0.15
   1   0   4    0.11    0.13
  -1   0   4   -0.10    0.13
   1   0   4    0.26    0.27
  -1   0   4   -0.10    0.13
   1   0   4    0.26    0.27
   1   0   4    0.03    0.15
  -1   0   4    0.19    0.14
   1   0   4    0.11    0.13
  -1   0   4    0.19    0.14
   1   0   5    0.75    0.15
   1   0   5    0.00    0.17
  -1   0   5    0.23    0.47
   1   0   5    0.33    0.40
   1   0   5    0.75    0.15
   1   0   5    0.00    0.17
   1   0   5   -0.20    0.22
   1   0   5    0.33    0.40
  -1   0   5    0.23    0.47
   1   0   5   -0.20    0.22
  -1   0   5   -0.13    0.21
  -1   0   5   -0.13    0.21
  -2   0   0    0.05    0.03
  -2   0   0   -0.04    0.02
  -2   0   0    0.03    0.03
  -2   0   0   -0.04    0.02
  -2   0   0    0.05    0.03
  -2   0   0    0.03    0.03
  -2   0   1    4.48    0.41
  -2   0   1    5.58    0.44
  -2   0   1    4.71    0.42
   2   0   1    4.96    0.42
  -2   0  -1    4.05    0.41
  -2   0  -1    4.42    0.41
   2   0   1    5.14    0.43
  -2   0   1    5.58    0.44
  -2   0   1    4.48    0.41
  -2   0  -1    4.05    0.41
  -2   0  -1    4.42    0.41
   2   0   1    4.89    0.41
   2   0   1    4.99    0.42
   2   0   1    4.89    0.41
   2   0   1    4.99    0.42
   2   0   1    4.96    0.42
  -2   0   1    4.71    0.42
   2   0   1    5.14    0.43
   2   0   2    0.43    0.08
   2   0   2    0.63    0.09
  -2   0  -2    0.28    0.08
  -2   0   2    0.54    0.10
   2   0   2    0.35    0.08
   2   0   2    0.63    0.09
   2   0   2    0.26    0.14
  -2   0   2    0.54    0.10
  -2   0   2    0.40    0.08
   2   0   2    0.35    0.08
   2   0   2    0.43    0.08
   2   0   2    0.26    0.14
  -2   0   2    0.40    0.08
  -2   0  -2    0.28    0.08
  -2   0  -3    2.82    0.31
   2   0   3    4.45    0.46
  -2   0   3    2.98    0.32
  -2   0   3    3.35    0.31
   2   0   3    3.27    0.33
   2   0   3    2.88    0.30
   2   0   3    4.45    0.46
  -2   0   3    3.35    0.31
   2   0   3    3.27    0.33
   2   0   3    3.38    0.32
   2   0   3    2.88    0.30
   2   0   3    3.38    0.32
  -2   0  -3    2.82    0.31
  -2   0   3    2.98    0.32
   2   0   4    0.70    0.31
   2   0   4    0.66    0.16
   2   0   4    0.56    0.17
  -2   0   4    0.59    0.17
   2   0   4    0.70    0.31
   2   0   4    0.66    0.16
   2   0   4    0.56    0.17
  -2   0   4    0.59    0.17
   2   0   5    2.21    0.38
   2   0   5    3.06    0.40
   2   0   5    2.21    0.38
   2   0   5    2.14    0.30
  -2   0   5    2.31    0.35
   2   0   5    2.14    0.30
  -2   0   5    2.48    0.62
   2   0   5    3.06    0.40
   2   0   5    3.28    0.57
  -2   0   5    2.48    0.62
  -2   0   5    2.31    0.35
   2   0   5    3.28    0.57
  -3   0   0   -0.84    0.03
  -3   0   0   -0.84    0.04
  -3   0   0   -0.85    0.03
  -3   0   0   -0.84    0.04
  -3   0   0   -0.85    0.03
  -3   0   0   -0.84    0.03
   3   0  -1   -0.45    0.05
  -3   0   1   -0.44    0.04
  -3   0   1   -0.44    0.04
  -3   0   1   -0.44    0.04
   3   0   1   -0.40    0.04
   3   0   1   -0.40    0.04
   3   0   1   -0.48    0.02
   3   0   1   -0.50    0.03
  -3   0   1   -0.49    0.06
   3   0  -1   -0.45    0.05
  -3   0   1   -0.49    0.06
  -3   0  -1   -0.51    0.06
  -3   0  -1   -0.51    0.06
  -3   0  -1   -0.46    0.03
  -3   0   1   -0.44    0.04
   3   0   1   -0.47    0.02
  -3   0  -1   -0.46    0.03
   3   0   1   -0.48    0.02
   3   0   1   -0.50    0.03
   3   0   1   -0.47    0.02
   3   0   2   -0.22    0.06
   3   0   2   -0.29    0.04
   3   0   2   -0.29    0.04
  -3   0  -2   -0.24    0.06
   3   0   2   -0.24    0.05
   3   0   2   -0.24    0.05
  -3   0  -2   -0.24    0.06
   3   0   2   -0.40    0.08
  -3   0   2   -0.28    0.07
   3   0   2   -0.40    0.08
  -3   0   2   -0.28    0.07
  -3   0   2   -0.22    0.06
  -3   0   2   -0.22    0.06
   3   0   2   -0.22    0.06
   3   0   3    0.00    0.05
   3   0   3    0.00    0.05
   3   0   3   -0.07    0.15
  -3   0   3   -0.01    0.09
   3   0   3    0.08    0.08
   3   0   3    0.07    0.08
   3   0   3    0.08    0.08
  -3   0   3    0.05    0.06
   3   0   3   -0.07    0.15
  -3   0   3   -0.01    0.09
  -3   0   3    0.05    0.06
   3   0   3    0.07    0.08
   3   0   4   -0.17    0.13
   3   0   4    0.10    0.13
  -3   0   4    0.01    0.13
  -3   0   4    0.01    0.13
   3   0   4    0.18    0.27
   3   0   4   -0.17    0.13
   3   0   4    0.18    0.27
   3   0   4    0.10    0.13
   3   0   5   -0.14    0.24
   3   0   5    0.08    0.18
   3   0   5   -0.41    0.39
  -3   0   5    0.04    0.21
   3   0   5   -0.17    0.10
   3   0   5   -0.14    0.24
   3   0   5    0.08    0.18
  -3   0   5   -0.03    0.19
   3   0   5   -0.41    0.39
  -3   0   5    0.04    0.21
   3   0   5   -0.17    0.10
  -3   0   5   -0.03    0.19
  -4   0   0   70.64    5.87
  -4   0   0   70.64    5.87
   4   0   1  217.39   18.56
  -4   0  -1  239.69   18.58
  -4   0   1  194.25   18.56
  -4   0  -1  250.99   18.57
   4   0   1  224.70   18.56
   4   0   1  216.59   18.57
  -4   0  -1  250.99   18.57
   4   0   1  216.58   18.57
   4   0   1  224.70   18.56
   4   0   1  217.39   18.56
  -4   0   1  194.25   18.56
  -4   0  -1  239.69   18.58
  -4   0   2   40.98    3.97
   4   0   2   45.22    3.96
   4   0   2   45.65    3.96
   4   0   2   53.45    3.99
  -4   0   2   44.77    3.99
  -4   0   2   54.38    3.94
   4   0   2   45.22    3.96
   4   0   2   48.09    3.95
  -4   0   2   40.98    3.97
   4   0   2   45.65    3.96
  -4   0   2   44.77    3.99
  -4   0   2   54.38    3.94
   4   0   2   53.45    3.99
   4   0   2   48.09    3.95
   4   0   3  114.16    9.72
   4   0   3  116.47    9.72
   4   0   3  115.80    9.72
   4   0   3  116.47    9.72
  -4   0   3  121.49    9.75
   4   0   3  115.80    9.72
   4   0   3  114.16    9.72
  -4   0   3  121.49    9.75
   4   0   4   22.20    1.93
   4   0   4   26.80    2.06
   4   0   4   22.20    1.93
   4   0   4   25.08    1.92
   4   0   4   26.80    2.06
   4   0   4   19.04    1.92
  -4   0   4   21.53    1.94
   4   0   4   19.04    1.92
  -4   0   4   21.53    1.94
   4   0   4   25.08    1.92
  -4   0   5   50.17    4.27
   4   0   5   52.16    4.40
  -4   0   5   48.79    4.29
   4   0   5   52.16    4.40
   4   0   5   51.39    4.26
  -4   0   5   50.17    4.27
  -4   0   5   48.79    4.29
   4   0   5   51.39    4.26
  -5   0   0   -0.44    0.06
  -5   0   0   -0.39    0.07
  -5   0   0   -0.39    0.07
  -5   0   0   -0.47    0.07
  -5   0   0   -0.47    0.07
  -5   0   0   -0.44    0.06
  -5   0   1    0.10    0.11
   5   0   1   -0.16    0.05
  -5   0   1   -0.23    0.08
  -5   0  -1   -0.27    0.09
   5   0   1   -0.07    0.07
  -5   0   1   -0.23    0.08
  -5   0  -1   -0.27    0.09
   5   0   1   -0.07    0.07
  -5   0  -1   -0.17    0.05
   5   0   1   -0.16    0.05
  -5   0   1    0.10    0.11
  -5   0  -1   -0.17    0.05
  -5   0   2   -0.08    0.07
  -5   0   2   -0.13    0.05
   5   0   2   -0.11    0.05
   5   0   2    0.06    0.06
  -5   0   2   -0.08    0.07
   5   0   2   -0.11    0.05
  -5   0   2    0.36    0.14
   5   0   2   -0.30    0.07
  -5   0   2    0.36    0.14
   5   0   2   -0.10    0.05
   5   0   2   -0.10    0.05
   5   0   2   -0.30    0.07
   5   0   2    0.06    0.06
  -5   0   2   -0.13    0.05
   5   0   3    0.01    0.06
   5   0   3    0.00    0.08
  -5   0   3   -0.12    0.11
  -5   0   3   -0.12    0.11
   5   0   3    0.00    0.08
   5   0   3    0.06    0.08
   5   0   3    0.01    0.06
   5   0   3    0.06    0.08
   5   0   4   -0.01    0.08
   5   0   4   -0.22    0.26
   5   0   4    0.11    0.11
   5   0   4   -0.08    0.11
  -5   0   4    0.20    0.15
   5   0   4    0.11    0.11
   5   0   4   -0.01    0.08
   5   0   4   -0.08    0.11
  -5   0   4    0.20    0.15
   5   0   4   -0.22    0.26
  -5   0   5    0.26    0.20
   5   0   5    0.48    0.14
  -5   0   5    0.26    0.20
   5   0   5    0.12    0.37
  -5   0   5   -0.15    0.15
   5   0   5    0.12    0.37
   5   0   5    0.48    0.14
  -5   0   5   -0.15    0.15
  -6   0   0  548.00   48.48
  -6   0   0  622.69   48.56
  -6   0   0  622.70   48.56
  -6   0   0  548.00   48.48
  -6   0   1  148.66   12.53
  -6   0  -1  152.23   12.49
  -6   0   1  148.66   12.53
  -6   0  -1  152.23   12.49
   6   0   2  330.78   27.48
   6   0   2  352.73   27.52
  -6   0  -2  283.85   27.47
   6   0   2  352.73   27.52
   6   0   2  330.78   27.48
   6   0   2  359.35   27.50
  -6   0  -2  283.85   27.47
   6   0   2  359.35   27.50
   6   0   3  106.73    8.91
   6   0   3  117.63    9.00
  -6   0   3  102.23    8.96
   6   0   3  117.63    9.00
  -6   0   3  102.23    8.96
   6   0   3  114.29    8.90
  -6   0   3   95.48    8.92
  -6   0   3   95.48    8.92
   6   0   3  106.66    8.89
   6   0   3  106.73    8.91
   6   0   3  106.66    8.89
   6   0   3  114.29    8.90
   6   0   4  184.32   15.41
   6   0   4  184.32   15.41
  -6   0   4  187.00   15.45
  -6   0   4  187.00   15.45
  -6   0   5   55.12    4.61
  -6   0   5   51.22    4.64
   6   0   5   55.38    4.60
   6   0   5   57.20    4.74
   6   0   5   57.20    4.74
   6   0   5   55.38    4.60
  -6   0   5   51.22    4.64
  -6   0   5   55.12    4.61
  -7   0   0    0.74    0.15
  -7   0   0    0.74    0.15
  -7   0   1    0.06    0.13
  -7   0   1    0.06    0.13
   7   0   1    0.05    0.05
   7   0   1    0.05    0.05
  -7   0   2    0.08    0.14
  -7   0   2    0.21    0.10
  -7   0   2    0.08    0.14
  -7   0   2    0.21    0.10
   7   0   3    0.07    0.08
   7   0   3    0.06    0.07
  -7   0   3    0.02    0.13
   7   0   3    0.07    0.08
  -7   0   3    0.36    0.17
  -7   0   3    0.36    0.17
  -7   0   3    0.02    0.13
   7   0   3   -0.20    0.18
   7   0   3   -0.20    0.18
   7   0   3    0.06    0.07
   7   0   4   -0.35    0.26
  -7   0   4   -0.07    0.17
   7   0   4    0.02    0.10
   7   0   4    0.02    0.10
  -7   0   4    0.17    0.18
  -7   0   4   -0.07    0.17
   7   0   4   -0.35    0.26
  -7   0   4    0.17    0.18
  -7   0   5    0.18    0.21
   7   0   5    0.39    0.15
  -7   0   5   -0.06    0.22
  -7   0   5   -0.06    0.22
   7   0   5   -0.85    0.36
   7   0   5   -0.85    0.36
   7   0   5    0.39    0.15
  -7   0   5    0.18    0.21
  -8   0   0    0.11    0.14
  -8   0   0    0.11    0.14
  -8   0   1    0.28    0.19
   8   0   1    0.04    0.09
  -8   0   1    0.28    0.19
   8   0   1    0.04    0.09
  -8   0   2    0.23    0.12
  -8   0   2    0.23    0.12
   8   0   3    0.45    0.15
  -8   0   3    0.19    0.17
  -8   0   3    0.30    0.17
   8   0   3    0.46    0.22
  -8   0   3    0.19    0.17
   8   0   3    0.46    0.22
  -8   0   3    0.30    0.17
   8   0   4    0.05    0.28
  -8   0   4   -0.07    0.15
  -8   0   4    0.22    0.21
  -8   0   4   -0.07    0.15
   8   0   4    0.05    0.28
  -8   0   4    0.22    0.21
   8   0   5    0.17    0.16
   8   0   5    0.17    0.16
  -8   0   5    0.45    0.22
   8   0   5    0.59    0.42
  -8   0   5    0.45    0.22
   8   0   5    0.59    0.42
  -8   0   5    0.23    0.26
  -8   0   5    0.23    0.26
  -9   0   0   -0.13    0.13
  -9   0   0   -0.13    0.13
   9   0   1    0.03    0.07
   9   0   1    0.03    0.07
  -9   0   1    0.14    0.16
  -9   0   1    0.14    0.16
   9   0   2    0.06    0.08
  -9   0   2    0.09    0.14
  -9   0   2    0.09    0.14
   9   0   2    0.11    0.10
   9   0   2    0.06    0.08
   9   0   2    0.11    0.10
   9   0   3   -0.02    0.20
  -9   0   3    0.07    0.15
   9   0   3   -0.02    0.20
  -9   0   3    0.07    0.15
  -9   0   4   -0.06    0.22
   9   0   4   -0.03    0.32
   9   0   4   -0.03    0.32
  -9   0   4   -0.06    0.22
 -10   0   0  306.82   25.50
 -10   0   0  306.82   25.50
 -10   0   1   63.76    5.69
 -10   0   1   63.76    5.69
 -10   0  -1   68.46    5.66
  10   0   1   69.65    5.62
  10   0   1   69.65    5.62
 -10   0  -1   68.46    5.66
  10   0   2  191.33   16.79
  10   0   2  197.29   16.79
  10   0   2  197.29   16.79
 -10   0   2  218.22   16.83
  10   0   2  191.33   16.79
 -10   0   2  218.22   16.83
  10   0   3   52.02    4.20
 -10   0   3   47.11    4.19
 -10   0   3   47.11    4.19
  10   0   3   52.02    4.20
  10   0   4  128.95   10.41
 -10   0   4  123.21   10.39
  10   0   4  128.95   10.41
  10   0   4  120.34   10.34
 -10   0   4  123.21   10.39
  10   0   4  120.34   10.34
 -11   0   0   -0.42    0.29
 -11   0   0   -0.42    0.29
 -11   0  -1   -0.02    0.16
 -11   0  -1   -0.02    0.16
 -11   0   1    0.20    0.25
 -11   0   1    0.20    0.25
  11   0   2   -0.01    0.11
  11   0   2   -0.01    0.11
 -11   0   2    0.02    0.19
 -11   0   2    0.02    0.19
 -11   0   3    0.05    0.17
  11   0   3    0.24    0.21
  11   0   3    0.24    0.21
 -11   0   3    0.05    0.17
 -11   0   4    0.75    0.30
  11   0   4    0.43    0.32
  11   0   4    0.43    0.32
 -11   0   4    0.75    0.30
 -12   0   0  114.84    9.65
 -12   0   0  114.84    9.65
 -12   0  -1   39.04    3.18
 -12   0   1   34.39    3.19
 -12   0  -1   39.04    3.18
 -12   0   1   34.39    3.19
  12   0   2  116.31    9.24
 -12   0   2  105.37    9.28
  12   0   2  116.31    9.24
 -12   0   2  105.37    9.28
  12   0   3   27.61    2.38
 -12   0   3   27.27    2.40
 -12   0   3   27.27    2.40
  12   0   3   27.61    2.38
  12   0   4   60.64    4.97
 -12   0   4   57.11    5.03
 -12   0   4   57.11    5.03
  12   0   4   60.64    4.97
 -13   0   0    0.29    0.32
 -13   0   0    0.29    0.32
 -13   0   1   -0.13    0.29
 -13   0  -1    0.34    0.30
 -13   0  -1    0.34    0.30
 -13   0   1   -0.13    0.29
  13   0   2    0.04    0.18
  13   0   2    0.04    0.18
 -13   0   2    0.04    0.23
 -13   0   2    0.04    0.23
 -13   0   3    0.36    0.23
  13   0   3   -0.07    0.21
  13   0   3   -0.07    0.21
 -13   0   3    0.36    0.23
 -14   0   0    2.99    0.57
 -14   0   0    2.99    0.57
 -14   0  -1    3.86    0.63
 -14   0   1    4.85    0.70
 -14   0   1    4.85    0.70
 -14   0  -1    3.86    0.63
  14   0   2    1.78    0.29
  14   0   2    1.78    0.29
 -14   0  -2    2.08    0.46
 -14   0  -2    2.08    0.46
 -14   0   2    3.10    0.42
 -14   0   2    3.10    0.42
  14   0   3    2.90    0.40
 -14   0   3    2.95    0.45
 -14   0   3    2.95    0.45
  14   0   3    2.90    0.40
  14   0   3    3.15    0.43
  14   0   3    3.15    0.43
 -15   0   0   -0.18    0.37
 -15   0   0   -0.18    0.37
 -15   0   1    0.16    0.37
 -15   0  -1   -0.10    0.39
 -15   0   1    0.16    0.37
 -15   0  -1   -0.10    0.39
 -15   0  -2    0.25    0.45
 -15   0   2   -0.11    0.26
 -15   0  -2    0.25    0.45
 -15   0   2   -0.11    0.26
 -15   0  -3   -0.27    0.53
  15   0   3    0.18    0.19
 -15   0   3    0.37    0.30
 -15   0  -3   -0.27    0.53
 -15   0   3    0.37    0.30
  15   0   3    0.18    0.19
  15   0   3   -0.05    0.30
  15   0   3   -0.05    0.30
 -16   0   0  137.56   11.60
 -16   0   0  137.56   11.60
 -16   0   1  100.38    8.54
 -16   0   1  100.38    8.54
 -16   0  -1  101.38    8.58
 -16   0  -1  101.38    8.58
 -16   0  -2  176.91   13.18
  16   0   2  140.65   13.04
  16   0   2  140.65   13.04
 -16   0   2  153.51   13.09
 -16   0  -2  176.91   13.18
 -16   0   2  153.51   13.09
 -17   0   0   -0.02    0.51
 -17   0   0   -0.02    0.51
 -17   0   1    0.22    0.41
 -17   0   1    0.22    0.41
 -17   0  -1   -0.07    0.54
 -17   0  -1   -0.07    0.54
   0   1  -1    0.05    0.03
   0  -1   1    0.06    0.02
   0  -1   1    0.01    0.02
   0   1  -1    0.13    0.03
   0  -1   1    0.02    0.02
   0  -1   1    0.02    0.02
   0  -1   1    0.06    0.02
   0  -1   1    0.01    0.02
   0  -1  -1    0.02    0.02
   0   1  -1    0.13    0.03
   0   1  -1    0.05    0.03
   0  -1  -1    0.02    0.02
   0  -1   2    0.49    0.08
   0   1  -2    0.33    0.06
   0   1   2    0.32    0.08
   0  -1   2    0.49    0.08
   0   1  -2    0.33    0.06
   0   1   2    0.32    0.08
   0   1   3    0.07    0.09
   0   1   3    0.04    0.05
   0   1   3    0.04    0.05
   0  -1   3    0.10    0.09
   0  -1   3    0.10    0.09
   0  -1   3   -0.04    0.10
   0  -1   3   -0.04    0.10
   0   1   3    0.07    0.09
   0   1   4    0.00    0.14
   0  -1   4    0.24    0.16
   0  -1   4    0.21    0.14
   0  -1   4    0.08    0.32
   0  -1   4    0.24    0.16
   0   1   4    0.11    0.15
   0   1   4    0.00    0.14
   0  -1   4    0.08    0.32
   0  -1   4    0.21    0.14
   0   1   4    0.11    0.15
   0  -1   5    0.04    0.22
   0   1   5   -0.24    0.16
   0  -1   5    0.59    0.45
   0   1   5    0.25    0.21
   0   1   5    0.05    0.44
   0   1   5    0.25    0.21
   0   1   5   -0.24    0.16
   0  -1   5    0.04    0.22
   0   1   5    0.05    0.44
   0  -1   5    0.14    0.11
   0  -1   5    0.59    0.45
   0  -1   5    0.14    0.11
   1  -1   1    1.47    0.16
  -1  -1  -1    1.69    0.16
   1  -1   1    1.78    0.18
   1  -1   1    1.47    0.16
   1  -1   1    1.84    0.15
   1  -1   1    1.78    0.18
   1  -1   1    2.00    0.16
   1  -1   1    1.84    0.15
  -1  -1  -1    1.69    0.16
   1  -1   1    2.00    0.16
   1  -1  -1    1.35    0.16
  -1  -1   1    2.09    0.16
   1   1   1    1.68    0.16
  -1   1  -1    1.78    0.16
   1   1   1    1.86    0.16
  -1   1  -1    1.50    0.16
  -1   1  -1    1.50    0.16
   1  -1  -1    1.35    0.16
  -1   1  -1    1.63    0.16
  -1   1  -1    1.78    0.16
  -1  -1   1    2.09    0.16
   1  -1  -1    1.49    0.16
   1   1   1    1.86    0.16
  -1   1  -1    1.63    0.16
   1  -1  -1    1.49    0.16
   1   1   1    1.68    0.16
   1  -1   2    0.69    0.11
   1  -1   2    0.67    0.17
  -1   1   2    0.81    0.10
  -1   1   2    0.81    0.10
   1  -1   2    0.93    0.10
   1  -1   2    0.77    0.13
   1  -1   2    0.93    0.10
  -1   1   2    0.65    0.11
   1  -1   2    0.77    0.13
   1  -1   2    0.69    0.11
  -1   1   2    0.65    0.11
   1  -1   2    0.67    0.17
  -1  -1   2    0.83    0.12
   1   1   2    0.64    0.12
  -1   1  -2    0.92    0.11
  -1  -1   2    1.05    0.12
   1   1   2    0.75    0.10
  -1  -1   2    0.83    0.12
   1   1   2    0.64    0.12
  -1  -1   2    1.05    0.12
  -1   1  -2    0.92    0.11
   1   1   2    0.75    0.10
  -1   1   3    1.34    0.19
   1  -1   3    1.00    0.19
  -1  -1  -3    1.24    0.15
  -1   1   3    1.16    0.16
  -1  -1  -3    1.24    0.15
   1  -1   3    1.17    0.15
   1  -1   3    1.00    0.19
   1  -1   3    0.89    0.23
  -1   1   3    1.16    0.16
   1  -1   3    1.28    0.17
   1  -1   3    1.17    0.15
   1  -1   3    0.89    0.23
   1  -1   3    1.28    0.17
  -1   1   3    1.34    0.19
   1   1   3    1.23    0.19
   1   1   3    1.50    0.19
   1   1   3    1.50    0.19
   1   1   3    1.23    0.19
  -1  -1   3    1.26    0.18
  -1  -1   3    1.26    0.18
   1   1   3    1.23    0.15
  -1   1  -3    1.47    0.16
   1   1   3    1.23    0.15
  -1   1  -3    1.47    0.16
   1  -1   4    0.60    0.17
   1  -1   4    0.80    0.16
  -1   1   4    0.50    0.17
   1  -1   4    0.60    0.17
   1  -1   4    0.48    0.28
  -1   1   4    0.50    0.17
   1  -1   4    0.80    0.16
   1  -1   4    0.48    0.28
  -1  -1   4    1.02    0.23
   1   1   4    0.55    0.19
  -1  -1   4    1.02    0.23
   1   1   4    0.37    0.32
   1   1   4    0.81    0.18
   1   1   4    0.37    0.32
   1   1   4    0.81    0.18
   1   1   4    0.55    0.19
  -1   1   5    0.90    0.47
  -1   1   5    0.76    0.24
   1  -1   5    1.72    0.49
   1  -1   5    0.93    0.22
   1  -1   5    0.62    0.15
  -1   1   5    0.90    0.47
  -1   1   5    0.76    0.24
   1  -1   5    0.62    0.15
   1  -1   5    1.72    0.49
   1  -1   5    0.93    0.22
  -1  -1   5    0.97    0.25
   1   1   5    0.63    0.26
   1   1   5    0.79    0.23
  -1  -1   5    0.75    0.19
  -1  -1   5    1.05    0.52
   1   1   5    1.72    0.49
  -1  -1   5    0.75    0.19
   1   1   5    0.63    0.26
  -1  -1   5    0.97    0.25
   1   1   5    0.63    0.16
   1   1   5    0.79    0.23
   1   1   5    0.63    0.16
   1   1   5    1.72    0.49
  -1  -1   5    1.05    0.52
  -2  -1   0   16.44    1.37
   2  -1   0   16.60    1.37
  -2   1   0   16.48    1.37
  -2   1   0   15.97    1.37
  -2   1   0   15.97    1.37
   2  -1   0   16.60    1.37
  -2  -1   0   16.44    1.37
  -2   1   0   16.48    1.37
   2  -1   1   37.40    3.02
  -2   1   1   39.39    3.04
  -2  -1  -1   36.65    3.05
   2  -1   1   38.08    3.02
  -2   1   1   35.52    3.02
   2  -1   1   37.57    3.03
   2  -1   1   38.08    3.02
  -2   1   1   33.12    3.03
  -2   1   1   35.52    3.02
  -2   1   1   33.12    3.03
  -2   1   1   39.38    3.04
   2  -1   1   37.57    3.03
  -2  -1  -1   36.65    3.05
   2   1  -1   37.17    3.04
   2   1  -1   37.17    3.04
   2  -1   1   37.40    3.02
   2   1   1   40.31    3.02
   2   1   1   35.11    3.03
  -2  -1   1   38.43    3.05
   2  -1  -1   41.24    3.04
  -2   1  -1   35.54    3.03
   2   1   1   38.74    3.03
  -2   1  -1   31.49    3.02
  -2  -1   1   32.02    3.03
  -2   1  -1   35.54    3.03
   2   1   1   35.11    3.03
  -2   1  -1   31.49    3.02
   2  -1  -1   30.92    3.02
  -2  -1   1   38.43    3.05
   2  -1  -1   41.24    3.04
   2   1   1   38.74    3.03
   2   1   1   40.31    3.02
  -2  -1   1   32.02    3.03
   2  -1  -1   30.92    3.02
   2  -1   2   13.96    1.20
   2  -1   2   14.77    1.18
   2  -1   2   14.18    1.23
  -2   1   2   14.17    1.19
  -2   1   2   14.17    1.19
   2  -1   2   14.77    1.18
   2  -1   2   14.18    1.23
   2  -1   2   14.36    1.18
   2  -1   2   13.96    1.20
  -2   1   2   12.82    1.20
  -2   1   2   12.82    1.20
   2  -1   2   14.36    1.18
  -2   1  -2   13.09    1.19
  -2  -1   2   14.88    1.20
  -2   1  -2   13.09    1.19
  -2  -1   2   13.89    1.20
  -2  -1   2   14.88    1.20
  -2  -1   2   13.89    1.20
   2  -1   3   24.04    1.91
  -2   1   3   22.00    1.89
   2  -1   3   21.00    1.95
   2  -1   3   21.26    1.88
   2  -1   3   21.48    1.88
   2  -1   3   21.48    1.88
   2  -1   3   21.26    1.88
   2  -1   3   21.00    1.95
  -2   1   3   22.00    1.89
   2  -1   3   24.04    1.91
  -2   1  -3   22.34    1.88
   2   1   3   23.23    1.90
   2   1   3   22.97    1.89
  -2   1  -3   22.34    1.88
  -2  -1   3   22.89    1.89
   2   1   3   23.23    1.90
  -2  -1   3   22.89    1.89
   2   1   3   22.97    1.89
   2   1   3   21.88    1.90
   2   1   3   21.88    1.90
   2  -1   4    8.65    0.95
   2  -1   4    9.61    0.79
   2  -1   4    9.61    0.79
   2  -1   4    8.65    0.95
   2  -1   4    9.42    0.83
  -2   1   4    8.12    0.81
   2  -1   4    9.42    0.83
  -2   1   4    8.12    0.81
   2   1   4    7.90    0.87
   2   1   4    9.00    0.82
  -2  -1   4    9.23    0.80
   2   1   4    7.70    0.82
   2   1   4   10.69    1.00
  -2  -1   4    8.34    0.83
   2   1   4   10.69    1.00
  -2  -1   4    8.34    0.83
  -2  -1   4    9.23    0.80
   2   1   4    9.00    0.82
   2   1   4    7.70    0.82
   2   1   4    7.90    0.87
   2  -1   5   12.98    1.17
  -2   1   5   12.55    1.21
   2  -1   5   14.19    1.21
   2  -1   5   11.02    1.38
   2  -1   5   12.98    1.17
  -2   1   5   12.55    1.21
   2  -1   5   14.19    1.21
   2  -1   5   11.02    1.38
  -2  -1   5   12.48    1.19
   2   1   5   14.60    1.21
  -2  -1   5   17.81    1.57
   2   1   5   13.71    1.21
   2   1   5   13.71    1.21
   2   1   5   14.97    1.44
  -2  -1   5   13.45    1.24
  -2  -1   5   13.53    1.20
  -2  -1   5   13.45    1.24
   2   1   5   14.60    1.21
  -2  -1   5   12.48    1.19
  -2  -1   5   17.81    1.57
   2   1   5   11.20    1.17
   2   1   5   14.97    1.44
   2   1   5   11.20    1.17
  -2  -1   5   13.53    1.20
  -3  -1   0  181.15   14.70
   3  -1   0  178.91   14.71
  -3   1   0  161.73   14.70
   3  -1   0  178.91   14.71
  -3  -1   0  181.15   14.70
   3   1   0  170.57   14.72
  -3   1   0  161.73   14.70
  -3  -1   0  194.69   14.72
  -3  -1   0  194.69   14.72
   3   1   0  170.57   14.72
  -3  -1  -1   80.45    6.59
  -3   1   1   81.44    6.62
  -3   1   1   72.68    6.60
   3  -1   1   87.91    6.59
  -3  -1  -1   80.45    6.59
   3  -1   1   87.91    6.59
  -3   1   1   81.44    6.62
   3  -1   1   84.06    6.60
  -3   1   1   80.90    6.61
   3  -1   1   84.07    6.60
  -3   1   1   72.68    6.60
  -3   1   1   80.90    6.61
   3   1   1   83.82    6.61
  -3   1  -1   77.41    6.60
   3   1   1   72.18    6.60
   3   1   1   72.15    6.60
   3   1   1   83.82    6.61
  -3   1  -1   77.41    6.60
   3   1   1   74.28    6.60
   3   1   1   74.28    6.60
   3  -1   2  105.92    8.71
   3  -1   2  117.36    8.75
   3  -1   2   98.68    8.70
  -3   1   2  116.54    8.73
   3  -1   2   98.68    8.70
   3  -1   2  105.91    8.71
  -3   1   2   97.37    8.73
   3  -1   2  117.36    8.75
  -3   1   2   97.37    8.73
   3  -1   2  102.59    8.72
  -3   1   2  116.54    8.73
   3  -1   2  102.59    8.72
   3   1   2  115.38    8.75
   3   1   2  115.38    8.75
  -3  -1   2   90.31    8.72
   3   1   2  102.64    8.70
  -3  -1   2   90.31    8.72
   3   1   2  100.88    8.71
   3   1   2   94.44    8.72
  -3  -1   2  118.36    8.75
   3   1   2   94.44    8.72
   3   1   2  102.64    8.70
   3   1   2  100.88    8.71
  -3  -1   2  118.36    8.75
  -3   1   3   42.46    3.32
   3  -1   3   37.18    3.29
   3  -1   3   36.62    3.28
   3  -1   3   37.18    3.29
   3  -1   3   40.87    3.36
   3  -1   3   40.87    3.36
   3  -1   3   42.41    3.31
  -3   1   3   42.46    3.32
   3  -1   3   36.62    3.28
   3  -1   3   42.41    3.31
   3   1   3   37.12    3.29
   3   1   3   38.75    3.30
  -3  -1   3   38.94    3.30
   3   1   3   37.12    3.29
   3   1   3   38.75    3.30
   3   1   3   38.87    3.29
   3   1   3   38.84    3.29
  -3  -1   3   41.04    3.32
   3   1   3   38.53    3.36
  -3  -1   3   41.04    3.32
  -3  -1   3   38.94    3.30
   3   1   3   38.53    3.36
   3  -1   4   44.06    3.95
   3  -1   4   50.35    3.92
  -3   1   4   45.15    3.95
   3  -1   4   44.06    3.95
   3  -1   4   48.27    4.04
   3  -1   4   50.35    3.92
   3  -1   4   48.27    4.04
  -3   1   4   45.15    3.95
  -3  -1   4   46.49    3.94
   3   1   4   44.58    3.94
   3   1   4   44.58    3.94
   3   1   4   50.30    4.05
   3   1   4   50.30    4.05
  -3  -1   4   46.49    3.94
  -3   1   5   19.07    1.77
  -3   1   5   19.07    1.77
   3  -1   5   20.14    1.76
  -3   1   5   22.85    1.79
  -3   1   5   22.85    1.79
   3  -1   5   20.08    1.94
   3  -1   5   20.08    1.94
   3  -1   5   20.14    1.76
  -3  -1   5   21.36    1.78
   3   1   5   20.44    1.95
   3   1   5   20.16    1.77
   3   1   5   18.20    1.75
   3   1   5   20.44    1.95
  -3  -1   5   20.99    1.85
   3   1   5   18.20    1.75
  -3  -1   5   20.99    1.85
   3   1   5   20.16    1.77
  -3  -1   5   21.36    1.78
  -4   1   0   79.68    7.37
  -4  -1   0   89.69    7.38
   4   1   0   87.59    7.37
  -4   1   0   98.18    7.39
   4   1   0   87.59    7.37
  -4  -1   0   88.95    7.37
  -4  -1   0   89.69    7.38
  -4  -1   0   88.95    7.37
  -4   1   0   79.68    7.37
  -4   1   0   98.18    7.39
  -4   1   1  162.74   15.17
  -4  -1  -1  208.72   15.17
  -4  -1  -1  169.34   15.18
  -4  -1  -1  208.72   15.17
   4  -1   1  190.34   15.18
   4  -1   1  190.34   15.18
  -4  -1  -1  169.34   15.18
   4  -1   1  180.13   15.19
  -4   1   1  162.74   15.17
   4  -1   1  180.12   15.19
   4   1   1  205.38   15.17
   4   1   1  180.90   15.17
   4   1   1  180.90   15.17
   4   1   1  170.29   15.20
  -4   1  -1  179.11   15.17
   4   1   1  205.38   15.17
   4   1   1  170.29   15.20
  -4   1  -1  179.11   15.17
   4  -1   2   53.99    4.67
  -4   1   2   58.65    4.66
  -4   1   2   58.65    4.66
  -4   1   2   47.53    4.68
   4  -1   2   54.01    4.70
   4  -1   2   54.01    4.70
   4  -1   2   54.00    4.67
   4  -1   2   60.04    4.66
  -4   1   2   60.69    4.70
  -4   1   2   60.69    4.70
  -4   1   2   47.53    4.68
   4  -1   2   60.04    4.66
   4   1   2   58.94    4.71
   4   1   2   58.25    4.66
   4   1   2   52.78    4.68
   4   1   2   58.25    4.66
   4   1   2   58.94    4.71
   4   1   2   52.78    4.68
   4  -1   3  101.37    8.72
   4  -1   3  102.47    8.71
   4  -1   3  107.04    8.89
   4  -1   3  102.47    8.71
   4  -1   3  107.04    8.89
   4  -1   3  102.61    8.73
   4  -1   3  101.38    8.72
   4  -1   3  102.61    8.73
  -4  -1   3  121.45    8.78
   4   1   3  104.26    8.78
  -4  -1   3  121.46    8.78
   4   1   3  107.45    8.74
  -4  -1   3   96.89    8.74
   4   1   3  107.45    8.74
   4   1   3  106.13    8.72
   4   1   3  106.13    8.72
   4   1   3  104.26    8.78
   4   1   3  100.62    8.73
   4   1   3  100.62    8.73
  -4  -1   3   96.89    8.74
  -4   1   4   27.31    2.36
   4  -1   4   25.40    2.43
   4  -1   4   25.40    2.43
   4  -1   4   26.42    2.35
   4  -1   4   26.23    2.34
  -4   1   4   27.31    2.36
   4  -1   4   26.23    2.34
   4  -1   4   26.42    2.35
  -4  -1   4   26.60    2.35
   4   1   4   30.87    2.36
   4   1   4   32.98    2.48
   4   1   4   30.87    2.36
   4   1   4   26.54    2.33
   4   1   4   26.54    2.33
  -4  -1   4   26.60    2.35
   4   1   4   32.98    2.48
  -4   1   5   48.38    4.01
   4  -1   5   46.90    4.12
  -4   1   5   43.07    4.01
  -4   1   5   48.38    4.01
   4  -1   5   46.74    3.99
  -4   1   5   43.07    4.01
   4  -1   5   46.74    3.99
   4  -1   5   46.90    4.12
   4   1   5   52.87    4.14
   4   1   5   45.40    4.02
  -4  -1   5   49.22    4.08
   4   1   5   52.87    4.14
   4   1   5   43.46    3.99
  -4  -1   5   51.60    4.00
  -4  -1   5   51.60    4.00
   4   1   5   43.46    3.99
   4   1   5   45.40    4.02
  -4  -1   5   49.22    4.08
  -5   1   0    1.90    0.23
  -5  -1   0    1.88    0.20
  -5  -1   0    2.32    0.24
  -5   1   0    2.06    0.22
  -5   1   0    1.90    0.23
  -5   1   0    2.06    0.22
  -5  -1   0    2.32    0.24
  -5  -1   0    1.88    0.20
   5  -1   1    0.56    0.09
  -5  -1  -1    0.41    0.07
  -5  -1  -1    0.46    0.11
  -5  -1  -1    0.41    0.07
  -5   1   1    0.76    0.14
  -5   1   1    0.76    0.14
   5  -1   1    0.56    0.09
   5  -1   1    0.38    0.07
   5  -1   1    0.38    0.07
  -5  -1  -1    0.46    0.11
   5   1   1    0.56    0.08
  -5  -1   1    0.48    0.12
   5   1   1    0.56    0.08
  -5   1  -1    0.36    0.08
  -5   1  -1    0.36    0.08
   5   1   1    0.48    0.08
   5   1   1    0.48    0.08
  -5  -1   1    0.48    0.12
  -5   1   2    1.43    0.21
  -5   1   2    1.41    0.14
   5  -1   2    1.30    0.15
   5  -1   2    1.31    0.14
  -5   1   2    1.12    0.17
  -5  -1  -2    0.92    0.15
  -5   1   2    1.41    0.14
  -5   1   2    1.43    0.21
  -5   1   2    1.12    0.17
   5  -1   2    1.31    0.14
   5  -1   2    1.60    0.20
  -5  -1  -2    0.92    0.15
   5  -1   2    1.60    0.20
   5  -1   2    1.30    0.15
   5   1   2    1.32    0.16
  -5  -1   2    1.20    0.16
   5   1   2    1.14    0.15
  -5  -1   2    1.20    0.16
   5   1   2    1.32    0.16
  -5  -1   2    1.11    0.24
   5   1   2    1.31    0.18
  -5  -1   2    1.00    0.16
   5   1   2    1.14    0.15
  -5  -1   2    1.11    0.24
  -5  -1   2    1.00    0.16
   5   1   2    1.31    0.18
  -5   1   3    0.10    0.13
   5  -1   3    0.21    0.08
   5  -1   3    0.24    0.07
   5  -1   3    0.24    0.07
   5  -1   3    0.30    0.07
   5  -1   3    0.21    0.08
  -5   1   3    0.10    0.13
   5  -1   3    0.30    0.07
  -5  -1   3    0.02    0.14
  -5  -1   3    0.06    0.11
  -5  -1   3    0.02    0.14
   5   1   3    0.13    0.08
  -5  -1   3    0.06    0.11
   5   1   3    0.13    0.08
  -5   1   4    0.68    0.19
  -5   1   4    0.68    0.19
   5  -1   4    0.68    0.17
   5  -1   4    0.56    0.26
   5  -1   4    0.68    0.17
   5  -1   4    0.56    0.26
   5   1   4    0.79    0.14
   5   1   4    0.40    0.29
   5   1   4    0.70    0.15
  -5  -1   4    0.58    0.19
   5   1   4    0.70    0.15
  -5  -1   4    0.58    0.19
   5   1   4    0.79    0.14
   5   1   4    0.40    0.29
   5   1   4    0.77    0.18
   5   1   4    0.77    0.18
   5  -1   5    0.22    0.37
  -5   1   5    0.18    0.16
   5  -1   5    0.18    0.12
   5  -1   5    0.18    0.12
   5  -1   5   -0.09    0.20
  -5   1   5    0.13    0.21
  -5   1   5    0.18    0.16
  -5   1   5    0.13    0.21
   5  -1   5    0.22    0.37
   5  -1   5   -0.09    0.20
  -5  -1   5    0.11    0.20
   5   1   5   -0.11    0.11
  -5  -1   5    0.05    0.16
  -5  -1   5    0.05    0.16
   5   1   5   -0.59    0.37
   5   1   5   -0.11    0.11
   5   1   5   -0.59    0.37
  -5  -1   5    0.11    0.20
  -6  -1   0   10.87    0.99
  -6  -1   0   11.67    1.02
  -6   1   0   12.29    1.02
  -6   1   0   12.29    1.02
  -6  -1   0   10.87    0.99
  -6  -1   0   11.67    1.02
  -6  -1  -1    7.85    0.76
   6  -1   1   10.60    0.77
  -6   1   1    7.87    0.79
  -6   1   1    7.87    0.79
  -6  -1  -1    7.85    0.76
   6  -1   1   10.60    0.77
   6   1   1    9.21    0.76
  -6  -1   1    7.40    0.80
   6   1   1    9.91    0.77
   6   1   1    9.21    0.76
  -6  -1   1    7.40    0.80
   6   1   1    9.91    0.77
   6  -1   2    9.46    0.75
   6  -1   2    8.31    0.71
   6  -1   2    9.06    0.71
  -6   1   2    6.67    0.72
   6  -1   2    9.46    0.75
   6  -1   2    8.31    0.71
   6  -1   2    9.06    0.71
  -6   1   2    6.67    0.72
  -6  -1   2    7.01    0.72
   6   1   2    8.55    0.71
   6   1   2    8.55    0.71
  -6  -1   2    7.01    0.72
   6   1   2    6.94    0.70
  -6  -1   2    8.12    0.72
   6   1   2    6.94    0.70
   6   1   2    8.77    0.73
  -6  -1   2    8.12    0.72
   6   1   2    8.77    0.73
   6  -1   3    7.05    0.64
  -6   1   3    5.72    0.57
  -6   1   3    5.98    0.59
   6  -1   3    7.05    0.64
  -6   1   3    5.98    0.59
   6  -1   3    5.99    0.53
  -6   1   3    5.72    0.57
   6  -1   3    5.99    0.53
   6   1   3    5.49    0.53
   6   1   3    5.36    0.53
  -6  -1   3    4.41    0.59
  -6  -1   3    5.27    0.56
   6   1   3    6.45    0.52
   6   1   3    5.49    0.53
  -6  -1   3    4.41    0.59
   6   1   3    5.36    0.53
  -6  -1   3    5.27    0.56
   6   1   3    6.45    0.52
   6  -1   4    3.64    0.45
   6  -1   4    5.08    0.67
   6  -1   4    3.64    0.45
  -6   1   4    4.45    0.52
   6  -1   4    5.08    0.67
  -6   1   4    4.45    0.52
   6   1   4    4.60    0.46
   6   1   4    4.90    0.45
  -6  -1   4    3.86    0.49
   6   1   4    4.24    0.43
   6   1   4    4.71    0.63
   6   1   4    4.24    0.43
   6   1   4    4.71    0.63
   6   1   4    4.60    0.46
   6   1   4    4.90    0.45
  -6  -1   4    3.86    0.49
  -6   1   5    2.46    0.43
  -6   1   5    2.46    0.43
  -6   1   5    2.64    0.41
   6  -1   5    3.32    0.36
  -6   1   5    2.64    0.41
   6  -1   5    2.35    0.56
   6  -1   5    3.32    0.36
   6  -1   5    2.35    0.56
  -6  -1   5    2.91    0.46
   6   1   5    2.97    0.36
  -6  -1   5    2.92    0.40
   6   1   5    3.63    0.58
  -6  -1   5    2.92    0.40
  -6  -1   5    2.91    0.46
   6   1   5    2.97    0.36
   6   1   5    3.63    0.58
  -7  -1   0   41.75    3.24
  -7  -1   0   41.75    3.24
  -7   1   0   34.93    3.23
  -7   1   0   34.93    3.23
  -7   1   1   43.99    4.00
  -7   1   1   43.99    4.00
   7  -1   1   45.81    3.97
   7  -1   1   45.81    3.97
   7   1   1   51.57    3.97
   7   1   1   51.57    3.97
   7   1   1   52.82    3.98
  -7  -1   1   43.08    4.01
  -7  -1   1   43.08    4.01
   7   1   1   52.82    3.98
  -7   1   2   23.28    2.03
   7  -1   2   24.39    2.03
   7  -1   2   25.64    2.01
  -7   1   2   23.28    2.03
  -7   1   2   20.91    2.07
  -7  -1  -2   21.55    2.00
   7  -1   2   25.64    2.01
  -7  -1  -2   21.55    2.00
   7  -1   2   24.39    2.03
  -7   1   2   20.91    2.07
   7   1   2   25.26    2.02
   7   1   2   25.57    2.01
   7   1   2   25.26    2.02
   7   1   2   25.57    2.01
   7  -1   3   29.62    2.56
  -7   1   3   28.77    2.59
   7  -1   3   33.14    2.62
  -7   1   3   28.77    2.59
   7  -1   3   29.62    2.56
   7  -1   3   33.14    2.62
   7   1   3   33.38    2.56
   7   1   3   33.38    2.56
  -7  -1   3   27.26    2.58
  -7  -1   3   27.26    2.58
  -7   1   4   14.60    1.34
   7  -1   4   14.35    1.41
  -7   1   4   14.73    1.35
   7  -1   4   12.45    1.28
   7  -1   4   14.35    1.41
   7  -1   4   15.24    1.29
  -7   1   4   14.73    1.35
   7  -1   4   12.45    1.28
   7  -1   4   15.24    1.29
  -7   1   4   14.60    1.34
   7   1   4   14.28    1.41
   7   1   4   16.60    1.27
  -7  -1   4   15.41    1.34
   7   1   4   16.60    1.27
   7   1   4   14.28    1.41
  -7  -1   4   15.41    1.34
  -7   1   5   14.10    1.29
   7  -1   5   14.16    1.47
  -7   1   5   12.94    1.29
   7  -1   5   14.16    1.47
  -7   1   5   14.10    1.29
   7  -1   5   13.66    1.23
   7  -1   5   13.66    1.23
  -7   1   5   12.94    1.29
   7   1   5   13.91    1.23
  -7  -1   5   13.11    1.27
  -7  -1   5   14.95    1.32
  -7  -1   5   13.11    1.27
   7   1   5   13.47    1.46
   7   1   5   13.91    1.23
  -7  -1   5   14.95    1.32
   7   1   5   13.47    1.46
  -8   1   0   44.80    4.02
  -8   1   0   44.80    4.02
  -8  -1   0   50.59    4.03
  -8  -1   0   50.59    4.03
  -8   1   1   48.08    4.47
   8  -1   1   53.09    4.44
   8  -1   1   53.09    4.44
  -8   1   1   48.08    4.47
   8   1   1   53.62    4.43
  -8  -1   1   57.93    4.50
  -8  -1   1   57.93    4.50
   8   1   1   53.62    4.43
  -8   1   2   38.38    3.16
  -8   1   2   38.38    3.16
   8  -1   2   39.50    3.14
   8  -1   2   38.44    3.15
  -8  -1  -2   39.02    3.14
   8  -1   2   38.44    3.15
   8  -1   2   39.50    3.14
  -8  -1  -2   39.02    3.14
   8   1   2   34.73    3.14
   8   1   2   34.68    3.14
   8   1   2   34.73    3.14
  -8  -1   2   37.58    3.17
   8   1   2   34.68    3.14
   8   1   2   36.75    3.13
  -8  -1   2   37.58    3.17
   8   1   2   36.75    3.13
  -8   1   3   34.99    3.11
   8  -1   3   38.63    3.13
   8  -1   3   36.68    3.08
   8  -1   3   36.68    3.08
   8  -1   3   38.63    3.13
  -8   1   3   34.99    3.11
   8   1   3   37.38    3.09
  -8  -1   3   34.63    3.11
   8   1   3   37.17    3.12
  -8  -1   3   34.63    3.11
   8   1   3   36.77    3.07
   8   1   3   37.17    3.12
   8   1   3   37.38    3.09
   8   1   3   36.77    3.07
   8  -1   4   21.88    1.94
  -8   1   4   22.10    1.89
  -8   1   4   18.08    1.88
  -8   1   4   18.08    1.88
   8  -1   4   21.88    1.94
  -8   1   4   22.10    1.89
  -8  -1   4   22.53    1.88
   8   1   4   22.96    1.95
  -8  -1   4   22.53    1.88
   8   1   4   22.96    1.95
   8  -1   5   17.69    1.58
  -8   1   5   17.72    1.64
   8  -1   5   18.52    1.79
  -8   1   5   18.44    1.66
  -8   1   5   18.44    1.66
   8  -1   5   18.52    1.79
  -8   1   5   17.72    1.64
   8  -1   5   17.69    1.58
   8   1   5   18.19    1.79
  -8  -1   5   16.90    1.65
  -8  -1   5   18.67    1.63
   8   1   5   18.60    1.59
   8   1   5   18.60    1.59
  -8  -1   5   18.67    1.63
   8   1   5   18.19    1.79
  -8  -1   5   16.90    1.65
  -9  -1   0    5.91    0.59
  -9  -1   0    5.91    0.59
  -9   1   0    5.10    0.59
  -9   1   0    5.10    0.59
   9  -1   1    5.17    0.51
   9  -1   1    5.17    0.51
  -9   1   1    6.46    0.61
  -9   1   1    6.46    0.61
  -9   1  -1    5.66    0.56
  -9  -1   1    5.35    0.62
  -9   1  -1    5.66    0.56
   9   1   1    5.41    0.50
  -9  -1   1    5.35    0.62
   9   1   1    5.41    0.50
   9  -1   2    4.41    0.43
   9  -1   2    4.41    0.43
  -9   1   2    4.52    0.48
   9  -1   2    4.22    0.41
   9  -1   2    4.22    0.41
  -9   1   2    4.52    0.48
   9   1   2    4.50    0.43
  -9  -1   2    4.61    0.48
   9   1   2    4.50    0.43
   9   1   2    4.03    0.42
   9   1   2    4.03    0.42
  -9  -1   2    4.61    0.48
  -9   1   3    4.87    0.54
   9  -1   3    4.88    0.56
   9  -1   3    4.88    0.56
  -9   1   3    4.87    0.54
   9   1   3    4.43    0.55
  -9  -1   3    4.58    0.52
  -9  -1   3    4.58    0.52
   9   1   3    4.43    0.55
  -9   1   4    4.29    0.54
   9  -1   4    3.69    0.43
   9  -1   4    3.51    0.55
  -9   1   4    2.60    0.48
  -9   1   4    4.29    0.54
   9  -1   4    3.51    0.55
   9  -1   4    3.69    0.43
  -9   1   4    2.60    0.48
  -9  -1   4    4.21    0.53
   9   1   4    4.17    0.56
   9   1   4    4.17    0.56
  -9  -1   4    4.21    0.53
 -10   1   0   52.60    4.99
 -10   1   0   52.60    4.99
 -10  -1   0   65.67    5.01
 -10  -1   0   65.67    5.01
 -10  -1  -1   19.82    1.71
 -10   1   1   20.00    1.75
  10  -1   1   19.93    1.66
  10  -1   1   19.93    1.66
 -10  -1  -1   19.82    1.71
 -10   1   1   20.00    1.75
 -10  -1   1   18.82    1.76
  10   1   1   18.83    1.65
 -10  -1   1   18.82    1.76
  10   1   1   18.83    1.65
 -10   1  -1   19.28    1.70
 -10   1  -1   19.28    1.70
  10  -1   2   43.52    3.64
 -10   1   2   50.29    3.68
  10  -1   2   43.52    3.64
 -10   1   2   50.29    3.68
  10   1   2   40.30    3.64
  10   1   2   38.12    3.63
 -10  -1   2   45.09    3.68
 -10  -1   2   45.09    3.68
  10   1   2   38.12    3.63
  10   1   2   40.30    3.64
 -10   1   3   14.38    1.28
  10  -1   3   15.21    1.29
 -10   1   3   14.38    1.28
  10  -1   3   15.21    1.29
  10   1   3   14.20    1.28
  10   1   3   12.42    1.23
 -10  -1   3   14.76    1.28
  10   1   3   14.20    1.28
  10   1   3   12.42    1.23
 -10  -1   3   14.76    1.28
 -10   1   4   29.59    2.53
  10  -1   4   27.34    2.45
  10  -1   4   27.34    2.45
  10  -1   4   30.86    2.57
  10  -1   4   30.86    2.57
 -10   1   4   29.59    2.53
  10   1   4   31.25    2.57
 -10  -1   4   26.38    2.51
 -10  -1   4   26.38    2.51
  10   1   4   31.25    2.57
 -11  -1   0    2.04    0.37
 -11  -1   0    2.04    0.37
 -11   1   1    2.81    0.41
 -11   1   1    2.81    0.41
 -11   1  -1    2.27    0.36
 -11   1  -1    2.27    0.36
 -11  -1   1    2.39    0.44
 -11  -1   1    2.39    0.44
  11  -1   2    1.85    0.23
  11  -1   2    1.85    0.23
  11  -1   2    1.37    0.23
 -11   1   2    2.05    0.29
 -11   1   2    2.05    0.29
  11  -1   2    1.37    0.23
  11   1   2    1.20    0.20
 -11  -1   2    1.10    0.27
 -11  -1   2    1.10    0.27
  11   1   2    1.20    0.20
  11  -1   3    1.33    0.28
  11  -1   3    1.33    0.28
 -11   1   3    1.16    0.27
 -11   1   3    1.16    0.27
  11   1   3    0.93    0.27
  11   1   3    0.93    0.27
 -11  -1   3    1.49    0.28
 -11  -1   3    1.49    0.28
  11  -1   4    1.20    0.38
  11  -1   4    0.93    0.19
  11  -1   4    1.20    0.38
 -11   1   4    0.64    0.30
 -11   1   4    0.64    0.30
  11  -1   4    0.93    0.19
  11   1   4    0.62    0.18
 -11  -1   4    0.58    0.31
 -11  -1   4    0.58    0.31
  11   1   4    0.62    0.18
 -12   1   0   22.91    2.09
 -12   1   0   22.91    2.09
 -12  -1   0   23.38    2.09
 -12  -1   0   23.38    2.09
 -12   1   1   22.75    1.82
 -12  -1  -1   21.38    1.79
 -12   1   1   22.75    1.82
 -12  -1  -1   21.38    1.79
 -12   1  -1   16.77    1.79
 -12  -1   1   18.19    1.81
 -12  -1   1   18.19    1.81
 -12   1  -1   16.77    1.79
  12  -1   2   17.27    1.67
 -12   1   2   21.85    1.73
 -12   1   2   21.85    1.73
  12  -1   2   17.27    1.67
 -12  -1   2   19.03    1.73
 -12  -1   2   19.03    1.73
 -12   1   3   13.81    1.28
  12  -1   3   15.51    1.28
  12  -1   3   13.58    1.21
  12  -1   3   15.51    1.28
 -12   1   3   13.81    1.28
  12  -1   3   13.58    1.21
  12   1   3   11.51    1.24
  12   1   3   11.51    1.24
 -12  -1   3   14.64    1.29
 -12  -1   3   14.64    1.29
  12  -1   4   11.85    1.02
  12  -1   4   10.60    1.16
 -12   1   4   11.31    1.16
 -12   1   4   11.31    1.16
  12  -1   4   10.60    1.16
  12  -1   4   11.85    1.02
  12   1   4   11.11    1.02
  12   1   4   10.12    1.16
 -12  -1   4   10.70    1.14
  12   1   4   11.11    1.02
  12   1   4   10.12    1.16
 -12  -1   4   10.70    1.14
 -13   1   0   39.83    3.46
 -13  -1   0   39.38    3.46
 -13   1   0   39.83    3.46
 -13  -1   0   39.38    3.46
 -13   1   1   63.03    4.87
 -13   1   1   63.03    4.87
 -13  -1  -1   60.11    4.86
 -13  -1  -1   60.11    4.86
 -13  -1   1   52.51    4.87
 -13   1  -1   51.89    4.85
 -13  -1   1   52.51    4.87
 -13   1  -1   51.89    4.85
 -13  -1  -2   37.56    3.31
 -13   1   2   42.83    3.29
  13  -1   2   37.93    3.23
  13  -1   2   37.93    3.23
 -13   1   2   42.83    3.29
 -13  -1  -2   37.56    3.31
 -13   1  -2   35.10    3.30
  13   1   2   35.47    3.22
 -13   1  -2   35.10    3.30
  13   1   2   35.47    3.22
 -13  -1   2   39.99    3.29
 -13  -1   2   39.99    3.29
 -13   1   3   42.34    3.74
 -13   1   3   42.34    3.74
  13   1   3   44.60    3.70
 -13  -1   3   43.77    3.74
  13   1   3   44.61    3.70
 -13  -1   3   43.77    3.74
 -14  -1   0    1.22    0.40
 -14   1   0    1.30    0.43
 -14  -1   0    1.22    0.40
 -14   1   0    1.30    0.43
 -14  -1  -1   56.43    5.01
 -14   1   1   57.47    5.01
 -14  -1  -1   56.43    5.01
 -14   1   1   57.47    5.01
 -14  -1   1   57.54    5.02
 -14   1  -1   62.64    5.03
 -14   1  -1   62.64    5.03
 -14  -1   1   57.54    5.02
 -14  -1  -2    2.71    0.51
 -14  -1  -2    2.71    0.51
 -14  -1   2    2.05    0.40
 -14   1  -2    1.39    0.48
 -14  -1   2    2.05    0.40
 -14   1  -2    1.39    0.48
  14  -1   3   49.36    3.96
  14  -1   3   49.36    3.96
  14  -1   3   47.84    3.98
  14  -1   3   47.84    3.98
 -14   1   3   47.15    4.02
 -14   1   3   47.15    4.02
  14   1   3   44.68    3.96
  14   1   3   40.83    3.96
  14   1   3   44.67    3.96
  14   1   3   40.83    3.96
 -14  -1   3   51.36    4.03
 -14  -1   3   51.36    4.03
 -15  -1   0    1.35    0.46
 -15  -1   0    1.35    0.46
 -15   1   0    0.96    0.45
 -15   1   0    0.96    0.45
 -15  -1  -1    9.06    1.00
 -15  -1  -1    9.06    1.00
 -15   1   1    5.75    0.88
 -15   1   1    5.75    0.88
 -15  -1   1    6.29    0.87
 -15  -1   1    6.29    0.87
 -15   1  -1    6.96    0.98
 -15   1  -1    6.96    0.98
  15  -1   2    0.81    0.22
 -15  -1  -2    0.84    0.52
 -15   1   2    0.87    0.32
 -15   1   2    0.87    0.32
  15  -1   2    0.81    0.22
 -15  -1  -2    0.84    0.52
 -15  -1   2    0.65    0.31
  15   1   2    0.81    0.22
 -15   1  -2    1.06    0.50
 -15   1  -2    1.06    0.50
  15   1   2    0.81    0.22
 -15  -1   2    0.65    0.31
  15  -1   3    4.44    0.51
  15  -1   3    3.70    0.54
 -15  -1  -3    2.82    0.72
 -15   1   3    4.63    0.59
  15  -1   3    3.70    0.54
 -15  -1  -3    2.82    0.72
 -15   1   3    4.63    0.59
  15  -1   3    4.44    0.51
  15   1   3    3.82    0.52
  15   1   3    4.40    0.51
 -15   1  -3    3.14    0.77
 -15  -1   3    4.01    0.57
  15   1   3    3.82    0.52
 -15   1  -3    3.14    0.77
 -15  -1   3    4.01    0.57
  15   1   3    4.41    0.51
 -16  -1   0    3.33    0.66
 -16   1   0    2.61    0.62
 -16  -1   0    3.33    0.66
 -16   1   0    2.61    0.62
 -16  -1  -1    2.34    0.59
 -16   1   1    2.34    0.53
 -16   1   1    2.34    0.53
 -16  -1  -1    2.34    0.59
 -16   1  -1    1.65    0.73
 -16  -1   1    2.04    0.51
 -16  -1   1    2.04    0.51
 -16   1  -1    1.65    0.73
 -16   1   2    3.31    0.53
 -16  -1  -2    3.52    0.69
 -16  -1  -2    3.52    0.69
 -16   1   2    3.31    0.53
  16  -1   2    3.72    0.48
  16  -1   2    3.72    0.48
  16   1   2    2.77    0.44
 -16  -1   2    4.48    0.59
  16   1   2    2.77    0.44
 -16   1  -2    3.71    0.72
 -16  -1   2    4.48    0.59
 -16   1  -2    3.71    0.72
 -17   1   0   -0.41    0.50
 -17  -1   0    0.92    0.55
 -17  -1   0    0.92    0.55
 -17   1   0   -0.41    0.50
 -17  -1  -1   -0.18    0.53
 -17  -1  -1   -0.18    0.53
 -17   1   1   -0.08    0.39
 -17   1   1   -0.08    0.39
 -17  -1   1   -0.35    0.41
 -17   1  -1    0.20    0.59
 -17   1  -1    0.20    0.59
 -17  -1   1   -0.35    0.41
   0  -2   0   10.24    0.92
   0  -2   0   10.24    0.92
   0   2   0   10.07    0.92
   0   2   0   11.80    0.92
   0  -2   0   10.36    0.92
   0  -2   0   10.36    0.92
   0  -2   0   11.91    0.93
   0  -2   0   11.91    0.93
   0   2   0   11.80    0.92
   0   2   0   11.42    0.92
   0   2   0   11.42    0.92
   0   2   0   10.07    0.92
   0  -2  -1   16.85    1.61
   0  -2   1   19.77    1.60
   0   2   1   20.48    1.60
   0  -2   1   18.24    1.62
   0   2  -1   19.32    1.61
   0  -2   1   20.32    1.62
   0  -2   1   18.24    1.62
   0  -2  -1   16.85    1.61
   0   2   1   20.48    1.60
   0  -2   1   19.22    1.59
   0   2  -1   19.32    1.61
   0  -2   1   19.77    1.60
   0  -2   1   20.32    1.62
   0  -2   1   19.22    1.59
   0   2   1   18.56    1.61
   0   2   1   18.56    1.61
   0   2   2    8.96    0.73
   0  -2   2    8.03    0.78
   0  -2   2    8.79    0.76
   0   2   2    7.80    0.74
   0   2   2    7.80    0.74
   0  -2   2    8.03    0.78
   0   2   2    8.96    0.73
   0  -2   2    8.79    0.76
   0  -2   3   13.07    1.09
   0  -2   3   12.49    1.13
   0  -2   3   12.49    1.13
   0   2   3   11.86    1.06
   0   2   3   11.86    1.06
   0  -2   3   12.84    1.05
   0  -2   3   12.84    1.05
   0  -2   3   12.39    1.04
   0  -2   3   13.07    1.09
   0   2   3   10.44    1.04
   0  -2   3   12.39    1.04
   0   2   3   10.44    1.04
   0  -2   4    7.38    0.79
   0   2   4    5.61    0.59
   0   2   4    5.47    0.59
   0  -2   4    6.10    0.56
   0   2   4    5.61    0.59
   0  -2   4    7.38    0.79
   0   2   4    5.47    0.59
   0  -2   4    6.10    0.56
   0   2   5    8.36    1.05
   0   2   5    7.26    0.76
   0   2   5    6.80    0.72
   0   2   5    7.26    0.76
   0  -2   5    7.03    0.70
   0  -2   5    9.44    1.08
   0   2   5    8.36    1.05
   0  -2   5    7.03    0.70
   0   2   5    6.80    0.72
   0  -2   5    9.44    1.08
  -1   2   0   16.30    1.22
  -1   2   0   12.88    1.21
   1  -2   0   14.74    1.22
   1  -2   0   15.99    1.22
  -1   2   0   15.11    1.22
  -1  -2   0   15.18    1.22
   1   2   0   17.00    1.21
   1  -2   0   14.74    1.22
  -1  -2   0   15.18    1.22
   1   2   0   17.00    1.21
   1  -2   0   12.80    1.22
  -1   2   0   12.41    1.23
  -1   2   0   16.30    1.22
  -1   2   0   15.11    1.22
   1   2   0   14.99    1.22
  -1   2   0   12.88    1.21
   1  -2   0   15.99    1.22
  -1  -2   0   13.17    1.22
  -1   2   0   15.01    1.22
   1  -2   0   12.80    1.22
  -1  -2   0   13.17    1.22
   1   2   0   14.99    1.22
  -1   2   0   12.41    1.23
  -1   2   0   15.01    1.22
   1  -2   1   23.79    2.00
  -1   2   1   24.15    2.00
   1   2  -1   26.34    2.01
   1  -2   1   21.91    2.00
  -1   2   1   24.15    2.00
   1   2  -1   26.34    2.01
   1  -2   1   21.91    2.00
  -1   2   1   22.65    1.99
  -1   2   1   22.65    1.99
   1  -2   1   23.79    2.00
  -1   2  -1   21.62    2.00
  -1  -2   1   27.26    2.02
   1   2   1   27.14    2.00
  -1   2  -1   22.59    1.98
   1   2   1   27.14    2.00
  -1   2  -1   22.59    1.98
  -1  -2   1   26.71    2.00
   1  -2  -1   23.73    2.00
  -1   2  -1   21.62    2.00
  -1  -2   1   23.86    1.99
  -1  -2   1   26.71    2.00
  -1  -2   1   27.26    2.02
  -1   2  -1   23.69    2.00
  -1   2  -1   23.69    2.00
   1  -2  -1   23.73    2.00
   1  -2  -1   19.66    1.99
  -1  -2   1   23.86    1.99
   1  -2  -1   19.65    1.99
  -1   2   2   10.97    0.97
   1  -2   2   11.92    1.00
  -1   2   2   10.46    0.95
  -1   2   2   10.97    0.97
   1  -2   2   11.32    0.98
  -1   2   2   10.46    0.95
   1  -2   2   11.32    0.98
   1  -2   2   11.07    0.95
   1  -2   2   11.07    0.95
   1  -2   2   11.92    1.00
  -1   2  -2   11.42    0.96
  -1   2  -2   12.13    0.96
  -1  -2   2   13.42    0.98
   1   2   2   10.58    0.95
   1   2   2   10.36    0.97
   1   2   2   10.36    0.97
  -1   2  -2   11.42    0.96
   1  -2  -2    9.87    0.94
  -1  -2   2   11.79    0.96
  -1  -2   2   13.42    0.98
  -1  -2   2   11.79    0.96
   1   2   2   10.58    0.95
   1  -2  -2    9.87    0.94
  -1   2  -2   12.13    0.96
   1  -2   3   13.99    1.33
  -1   2   3   16.21    1.28
   1  -2   3   13.99    1.33
   1  -2   3   14.94    1.25
   1  -2   3   15.31    1.26
  -1   2   3   13.23    1.25
  -1   2   3   13.23    1.25
   1  -2   3   14.96    1.29
   1  -2   3   14.96    1.29
   1  -2   3   14.94    1.25
  -1   2   3   16.21    1.28
   1  -2   3   15.31    1.26
  -1  -2   3   15.85    1.27
  -1  -2   3   15.85    1.27
  -1  -2   3   14.53    1.26
  -1   2  -3   12.55    1.24
   1   2   3   15.72    1.26
  -1   2  -3   12.55    1.24
  -1  -2   3   14.53    1.26
   1   2   3   15.72    1.26
   1  -2   4    7.26    0.67
   1  -2   4    7.27    0.87
  -1   2   4    6.81    0.70
   1  -2   4    7.78    0.73
   1  -2   4    7.53    0.66
   1  -2   4    7.53    0.66
   1  -2   4    7.78    0.73
   1  -2   4    7.27    0.87
   1  -2   4    7.26    0.67
  -1   2   4    6.81    0.70
   1   2   4    7.63    0.71
  -1  -2   4    9.10    0.91
  -1  -2   4    7.48    0.68
  -1  -2   4    7.48    0.68
   1   2   4    7.63    0.71
  -1  -2   4    9.10    0.91
   1   2   4    7.19    0.72
   1   2   4    7.19    0.72
  -1   2   5    7.69    0.81
  -1   2   5    7.79    0.82
  -1   2   5    7.69    0.81
   1  -2   5    7.46    0.77
   1  -2   5    9.98    1.06
   1  -2   5    9.98    1.06
  -1   2   5    7.79    0.82
   1  -2   5    7.46    0.77
   1   2   5    9.45    0.84
  -1  -2   5   11.44    1.16
  -1  -2   5    7.63    0.84
   1   2   5   10.92    1.14
  -1  -2   5    7.89    0.79
   1   2   5    8.26    0.78
   1   2   5    9.45    0.84
   1   2   5    8.26    0.78
   1   2   5    9.08    0.88
  -1  -2   5    7.63    0.84
   1   2   5   10.92    1.14
  -1  -2   5   11.44    1.16
  -1  -2   5    7.89    0.79
   1   2   5    9.08    0.88
  -2  -2   0   20.52    1.72
  -2   2   0   22.56    1.72
  -2   2   0   22.56    1.72
  -2   2   0   20.99    1.72
  -2   2   0   17.48    1.72
   2  -2   0   22.61    1.72
  -2  -2   0   20.52    1.72
   2  -2   0   22.61    1.72
  -2   2   0   17.48    1.72
  -2   2   0   20.99    1.72
   2  -2   0   18.16    1.72
   2  -2   0   18.16    1.72
   2  -2   0   21.57    1.71
   2  -2   0   21.57    1.71
  -2  -2  -1   17.40    1.66
   2  -2   1   17.46    1.67
   2   2  -1   20.98    1.68
   2  -2   1   22.07    1.66
  -2   2   1   20.78    1.67
   2   2  -1   20.98    1.68
  -2   2   1   20.40    1.67
  -2   2   1   21.63    1.66
  -2   2   1   20.78    1.67
  -2   2   1   21.63    1.66
  -2  -2  -1   17.40    1.66
   2  -2   1   22.07    1.66
   2  -2   1   17.46    1.67
  -2   2   1   20.40    1.67
  -2  -2   1   20.11    1.66
   2   2   1   20.85    1.67
  -2   2  -1   19.07    1.67
  -2   2  -1   17.19    1.67
  -2  -2   1   20.38    1.67
  -2  -2   1   20.38    1.67
  -2   2  -1   17.79    1.67
   2   2   1   22.86    1.67
   2   2   1   22.86    1.67
  -2   2  -1   18.25    1.66
  -2   2  -1   17.19    1.67
  -2   2  -1   18.25    1.66
   2   2   1   20.85    1.67
  -2   2  -1   20.83    1.65
  -2   2  -1   17.79    1.67
  -2  -2   1   20.11    1.66
  -2   2  -1   20.83    1.65
  -2   2  -1   19.07    1.67
   2  -2   2   12.68    1.19
   2  -2   2   14.89    1.24
  -2   2   2   16.65    1.23
   2  -2   2   12.69    1.19
  -2   2   2   16.65    1.23
   2  -2   2   13.44    1.21
   2  -2   2   13.44    1.21
  -2   2   2   14.45    1.20
  -2   2   2   14.45    1.20
   2  -2   2   14.89    1.24
  -2   2  -2   12.55    1.20
  -2  -2   2   12.17    1.20
   2   2   2   12.87    1.19
  -2   2  -2   14.80    1.19
   2   2   2   14.43    1.22
   2   2   2   12.87    1.19
   2   2   2   14.43    1.22
  -2  -2   2   16.67    1.23
  -2  -2   2   16.67    1.23
  -2   2  -2   14.80    1.19
  -2   2  -2   12.55    1.20
   2  -2  -2   15.51    1.18
   2  -2  -2   15.51    1.18
   2   2   2   13.91    1.20
   2   2   2   13.91    1.20
  -2  -2   2   12.17    1.20
  -2   2   3   11.43    0.96
   2  -2   3   10.63    0.93
  -2   2   3   11.43    0.96
   2  -2   3   10.71    0.95
  -2   2   3   10.92    0.97
   2  -2   3    9.51    1.01
   2  -2   3   11.25    0.98
   2  -2   3   10.71    0.95
  -2   2   3   10.92    0.97
   2  -2   3    9.51    1.01
   2  -2   3   10.63    0.93
   2  -2   3   11.25    0.98
  -2   2  -3   10.38    0.95
  -2  -2   3   10.05    0.95
  -2  -2   3   13.09    0.98
   2   2   3   11.58    0.96
  -2   2  -3   10.38    0.95
   2   2   3   11.42    0.95
   2   2   3   10.52    0.97
  -2  -2   3   13.09    0.98
   2   2   3   11.58    0.96
  -2  -2   3   10.05    0.95
   2   2   3   11.41    0.95
   2   2   3   10.52    0.97
   2  -2   4    6.96    0.69
   2  -2   4    5.67    0.79
  -2   2   4    6.65    0.67
  -2   2   4    6.65    0.67
   2  -2   4    5.67    0.79
   2  -2   4    6.96    0.69
   2   2   4    7.15    0.67
   2   2   4    7.09    0.84
   2   2   4    7.65    0.69
   2   2   4    7.65    0.69
   2   2   4    7.09    0.84
   2   2   4    7.15    0.67
  -2   2   5    4.47    0.53
   2  -2   5    5.52    0.54
   2  -2   5    5.17    0.75
  -2   2   5    4.47    0.53
  -2   2   5    5.17    0.61
  -2   2   5    5.17    0.61
   2  -2   5    5.17    0.75
   2  -2   5    5.52    0.54
  -2  -2   5    5.85    0.59
   2   2   5    5.26    0.78
   2   2   5    5.71    0.60
   2   2   5    5.13    0.55
  -2  -2   5    8.68    1.04
  -2  -2   5    5.88    0.65
   2   2   5    5.26    0.78
   2   2   5    5.12    0.55
   2   2   5    5.22    0.63
   2   2   5    5.22    0.63
  -2  -2   5    5.88    0.65
  -2  -2   5    5.85    0.59
  -2  -2   5    8.68    1.04
   2   2   5    5.71    0.60
   3  -2   0    8.81    0.70
  -3   2   0    7.66    0.70
  -3   2   0    8.88    0.71
  -3   2   0    8.88    0.71
   3  -2   0    8.81    0.70
  -3  -2   0    7.98    0.71
  -3  -2   0    7.98    0.71
   3  -2   0    7.72    0.71
  -3   2   0    7.66    0.70
   3  -2   0    7.72    0.71
   3  -2   1   10.78    0.90
  -3   2   1   11.28    0.89
  -3   2   1   10.77    0.89
  -3   2   1    9.28    0.89
   3  -2   1   11.33    0.89
   3  -2   1   10.78    0.90
  -3   2   1   11.28    0.89
  -3   2   1    9.28    0.89
  -3   2   1   10.77    0.89
   3  -2   1   10.29    0.88
   3  -2   1   11.33    0.89
   3  -2   1   10.29    0.88
  -3   2  -1   10.55    0.88
  -3   2  -1   10.01    0.89
   3   2   1   11.98    0.90
  -3  -2   1    8.49    0.89
  -3  -2   1    9.72    0.90
   3   2   1   10.89    0.89
   3   2   1    9.37    0.89
   3   2   1   10.89    0.89
   3  -2  -1   11.08    0.89
  -3   2  -1   10.01    0.89
   3  -2  -1   11.08    0.89
  -3  -2   1    8.49    0.89
   3   2   1   11.98    0.90
   3   2   1    9.37    0.89
  -3   2  -1   10.55    0.88
  -3  -2   1    9.72    0.90
   3  -2   2    4.43    0.46
  -3   2   2    5.07    0.43
  -3   2   2    5.07    0.43
   3  -2   2    4.72    0.44
   3  -2   2    4.43    0.46
  -3   2   2    4.92    0.45
  -3   2   2    4.92    0.45
   3  -2   2    4.72    0.44
  -3  -2   2    4.31    0.47
  -3  -2   2    3.99    0.43
  -3  -2   2    4.31    0.47
   3   2   2    4.91    0.45
   3   2   2    5.00    0.41
  -3   2  -2    5.20    0.43
   3   2   2    4.91    0.45
  -3  -2   2    3.99    0.43
   3   2   2    4.80    0.43
   3   2   2    5.00    0.41
   3   2   2    4.80    0.43
  -3   2  -2    5.20    0.43
  -3   2   3    5.40    0.49
   3  -2   3    5.51    0.52
   3  -2   3    5.44    0.48
   3  -2   3    5.51    0.52
   3  -2   3    5.44    0.48
  -3   2   3    5.40    0.49
   3  -2   3    4.72    0.59
   3  -2   3    4.72    0.59
   3   2   3    5.86    0.60
   3   2   3    5.86    0.60
  -3  -2   3    5.31    0.50
   3   2   3    5.23    0.49
  -3  -2   3    5.31    0.50
   3   2   3    5.28    0.48
   3   2   3    5.08    0.51
   3   2   3    5.23    0.49
   3   2   3    5.08    0.51
   3   2   3    5.28    0.48
  -3   2   4    2.22    0.34
   3  -2   4    2.14    0.26
   3  -2   4    2.14    0.26
   3  -2   4    2.69    0.35
   3  -2   4    2.77    0.46
   3  -2   4    2.77    0.46
   3  -2   4    2.69    0.35
  -3   2   4    2.22    0.34
   3   2   4    2.38    0.31
  -3  -2   4    2.54    0.31
   3   2   4    2.38    0.31
   3   2   4    3.09    0.48
   3   2   4    2.33    0.32
   3   2   4    3.09    0.48
  -3  -2   4    2.54    0.31
   3   2   4    2.33    0.32
  -3   2   5    3.14    0.44
   3  -2   5    2.91    0.35
   3  -2   5    2.22    0.56
   3  -2   5    2.12    0.36
   3  -2   5    2.22    0.56
   3  -2   5    2.12    0.36
   3  -2   5    2.91    0.35
  -3   2   5    3.14    0.44
   3   2   5    2.71    0.55
  -3  -2   5    2.43    0.39
   3   2   5    2.61    0.38
  -3  -2   5    2.72    0.37
   3   2   5    2.15    0.33
   3   2   5    2.61    0.38
  -3  -2   5    3.39    0.72
   3   2   5    3.23    0.34
   3   2   5    3.23    0.34
  -3  -2   5    2.72    0.37
  -3  -2   5    3.39    0.72
   3   2   5    2.71    0.55
   3   2   5    2.15    0.33
  -3  -2   5    2.43    0.39
   4  -2   0   29.14    2.50
   4  -2   0   29.14    2.50
  -4  -2   0   32.22    2.52
   4  -2   0   30.38    2.50
  -4  -2   0   32.22    2.52
  -4  -2   0   32.31    2.49
   4  -2   0   30.38    2.50
  -4   2   0   25.63    2.51
  -4  -2   0   32.31    2.49
  -4   2   0   25.63    2.51
   4  -2   1   75.34    6.04
   4  -2   1   75.35    6.04
  -4   2   1   68.57    6.05
  -4   2   1   74.69    6.07
   4  -2   1   85.64    6.06
  -4  -2  -1   75.82    6.03
   4  -2   1   85.64    6.06
  -4   2   1   63.73    6.05
  -4   2   1   63.73    6.05
  -4   2   1   74.69    6.07
  -4  -2  -1   75.82    6.03
  -4   2   1   68.57    6.05
  -4  -2   1   83.19    6.07
   4  -2  -1   63.92    6.05
  -4   2  -1   71.95    6.05
  -4   2  -1   71.95    6.05
  -4   2  -1   66.15    6.04
  -4   2  -1   66.15    6.04
  -4  -2   1   83.19    6.07
   4  -2  -1   63.92    6.05
   4   2   1   72.40    6.05
   4   2   1   72.40    6.05
  -4   2   2   16.71    1.53
  -4   2   2   16.05    1.55
   4  -2   2   17.88    1.53
   4  -2   2   21.90    1.55
   4  -2   2   21.90    1.55
  -4   2   2   16.05    1.55
  -4   2   2   16.71    1.53
   4  -2   2   18.52    1.57
   4  -2   2   17.88    1.53
   4  -2   2   18.52    1.57
   4   2   2   17.64    1.54
  -4  -2   2   15.60    1.54
   4   2   2   19.60    1.56
  -4  -2   2   15.60    1.54
   4   2   2   20.47    1.58
   4   2   2   17.64    1.54
   4   2   2   20.47    1.58
   4   2   2   19.60    1.56
  -4   2   3   48.78    3.63
  -4   2   3   47.35    3.64
  -4   2   3   47.35    3.64
   4  -2   3   40.80    3.60
   4  -2   3   43.50    3.62
  -4   2   3   48.78    3.63
   4  -2   3   43.50    3.62
   4  -2   3   40.80    3.60
  -4  -2   3   37.81    3.61
   4   2   3   40.57    3.59
   4   2   3   45.58    3.61
   4   2   3   45.58    3.61
   4   2   3   40.57    3.59
  -4  -2   3   35.98    3.69
   4   2   3   45.44    3.62
   4   2   3   44.78    3.67
   4   2   3   44.78    3.67
  -4  -2   3   37.81    3.61
   4   2   3   45.44    3.62
  -4  -2   3   35.98    3.69
   4  -2   4    9.37    1.01
   4  -2   4    9.55    0.91
   4  -2   4    9.37    1.01
   4  -2   4    9.55    0.91
  -4   2   4    9.50    0.91
  -4   2   4    9.50    0.91
   4   2   4   12.39    1.06
   4   2   4    9.57    0.87
  -4  -2   4    9.98    0.96
  -4  -2   4   10.01    0.89
   4   2   4   12.39    1.06
  -4  -2   4    9.98    0.96
  -4  -2   4   10.01    0.89
   4   2   4    9.57    0.87
   4  -2   5   18.90    1.81
  -4   2   5   17.11    1.65
   4  -2   5   17.45    1.63
  -4   2   5   17.11    1.65
   4  -2   5   17.72    1.66
   4  -2   5   17.44    1.63
  -4   2   5   19.87    1.67
  -4   2   5   19.87    1.67
   4  -2   5   17.72    1.66
   4  -2   5   18.90    1.81
   4   2   5   20.84    1.67
   4   2   5   18.14    1.81
  -4  -2   5   24.58    2.05
  -4  -2   5   21.17    1.76
   4   2   5   17.11    1.63
   4   2   5   17.11    1.63
  -4  -2   5   21.17    1.76
   4   2   5   18.14    1.81
   4   2   5   20.84    1.67
  -4  -2   5   18.99    1.65
  -4  -2   5   18.99    1.65
  -4  -2   5   24.58    2.05
  -5   2   0   47.87    3.60
  -5   2   0   47.87    3.60
  -5  -2   0   40.48    3.59
  -5  -2   0   40.48    3.59
   5   2   0   36.90    3.57
  -5   2   0   44.54    3.60
  -5   2   0   44.54    3.60
  -5  -2   0   44.45    3.57
   5   2   0   36.90    3.57
  -5  -2   0   44.45    3.57
  -5   2   1   54.30    5.16
  -5  -2  -1   63.02    5.12
   5  -2   1   68.52    5.13
  -5   2   1   54.30    5.16
   5  -2   1   68.51    5.13
  -5  -2  -1   63.02    5.12
   5   2   1   64.07    5.14
  -5   2  -1   57.76    5.13
  -5   2  -1   57.76    5.13
   5   2   1   64.07    5.14
   5  -2   2   26.32    2.44
  -5   2   2   25.61    2.43
  -5   2   2   29.99    2.42
   5  -2   2   29.93    2.41
  -5   2   2   29.99    2.42
  -5   2   2   33.76    2.46
  -5   2   2   33.76    2.46
  -5   2   2   25.61    2.43
   5  -2   2   29.93    2.41
   5  -2   2   26.32    2.44
   5   2   2   30.81    2.43
   5   2   2   27.65    2.44
   5   2   2   27.65    2.44
   5   2   2   30.82    2.43
  -5  -2   2   25.69    2.42
   5   2   2   28.86    2.43
  -5  -2   2   25.69    2.42
   5   2   2   28.86    2.43
   5  -2   3   28.38    2.64
  -5   2   3   31.50    2.67
   5  -2   3   28.38    2.64
   5  -2   3   31.03    2.63
  -5   2   3   31.50    2.67
   5  -2   3   31.03    2.63
   5   2   3   36.06    2.62
   5   2   3   36.06    2.62
   5   2   3   29.30    2.65
   5   2   3   30.52    2.65
   5   2   3   29.30    2.65
   5   2   3   33.01    2.70
   5   2   3   33.01    2.70
   5   2   3   30.51    2.65
   5  -2   4   14.59    1.44
   5  -2   4   17.13    1.55
   5  -2   4   17.13    1.55
  -5   2   4   17.14    1.47
  -5   2   4   17.14    1.47
   5  -2   4   14.59    1.44
   5   2   4   15.83    1.41
  -5  -2   4   16.50    1.45
   5   2   4   15.83    1.41
   5   2   4   18.75    1.46
   5   2   4   18.75    1.46
  -5  -2   4   16.50    1.45
  -5   2   5    8.93    0.89
  -5   2   5    8.89    0.88
  -5   2   5    8.89    0.88
   5  -2   5   10.27    1.11
   5  -2   5    7.96    0.83
  -5   2   5    8.93    0.89
   5  -2   5    8.57    0.86
   5  -2   5    8.57    0.86
   5  -2   5    7.95    0.83
   5  -2   5   10.27    1.11
   5   2   5    8.46    1.06
  -5  -2   5   10.65    1.00
   5   2   5   10.88    0.90
   5   2   5   10.88    0.90
  -5  -2   5   10.65    1.00
   5   2   5    8.46    1.06
   5   2   5    9.22    0.85
   5   2   5    9.22    0.85
  -5  -2   5    8.97    0.88
  -5  -2   5    8.97    0.88
   6   2   0   14.46    1.34
   6   2   0   14.46    1.34
  -6  -2   0   16.73    1.33
  -6   2   0   16.12    1.37
  -6  -2   0   16.73    1.33
  -6   2   0   16.12    1.37
  -6   2   1   24.82    2.11
   6  -2   1   27.21    2.08
  -6  -2  -1   23.34    2.10
   6  -2   1   27.21    2.08
  -6   2   1   24.82    2.11
  -6  -2  -1   23.34    2.10
   6   2   1   26.28    2.10
   6   2   1   26.28    2.10
  -6  -2   1   21.33    2.13
   6   2   1   25.60    2.08
  -6  -2   1   21.33    2.13
   6   2   1   25.60    2.08
   6  -2   2   11.76    0.94
   6  -2   2   11.76    0.94
   6  -2   2   11.71    0.90
  -6   2   2    9.36    0.95
  -6   2   2    9.36    0.95
   6  -2   2   11.71    0.90
  -6   2   2   11.60    0.93
  -6   2   2   11.60    0.93
   6   2   2   10.00    0.93
   6   2   2   10.81    0.92
  -6  -2   2    8.96    0.92
   6   2   2   10.81    0.92
   6   2   2    9.82    0.92
   6   2   2    9.82    0.92
  -6  -2   2    8.96    0.92
   6   2   2   10.00    0.93
   6  -2   3   15.76    1.48
  -6   2   3   17.69    1.52
   6  -2   3   17.24    1.47
  -6   2   3   16.62    1.52
   6  -2   3   20.48    1.57
   6  -2   3   17.24    1.47
  -6   2   3   16.62    1.52
   6  -2   3   20.48    1.57
   6  -2   3   15.76    1.48
  -6   2   3   17.69    1.52
  -6  -2   3   15.85    1.50
   6   2   3   17.12    1.50
   6   2   3   19.72    1.56
  -6  -2   3   15.85    1.50
   6   2   3   17.12    1.50
   6   2   3   19.72    1.56
  -6   2   4    2.98    0.39
   6  -2   4    2.28    0.28
  -6   2   4    3.12    0.39
   6  -2   4    2.28    0.28
   6  -2   4    2.29    0.34
   6  -2   4    2.66    0.47
  -6   2   4    2.98    0.39
   6  -2   4    2.29    0.34
   6  -2   4    2.66    0.47
  -6   2   4    3.12    0.39
   6   2   4    2.93    0.37
  -6  -2   4    2.36    0.34
   6   2   4    2.83    0.47
  -6  -2   4    2.36    0.34
   6   2   4    2.93    0.37
   6   2   4    2.83    0.47
   6  -2   5    9.24    1.13
  -6   2   5    9.62    0.96
   6  -2   5    8.58    0.88
   6  -2   5    8.86    0.92
   6  -2   5    9.24    1.13
   6  -2   5    8.58    0.88
  -6   2   5    9.62    0.96
  -6   2   5   10.05    0.95
  -6   2   5   10.05    0.95
   6  -2   5    8.86    0.92
   6   2   5    9.55    1.12
   6   2   5   10.72    0.90
  -6  -2   5   10.17    0.94
  -6  -2   5    8.99    0.96
   6   2   5   10.72    0.90
  -6  -2   5    8.99    0.96
   6   2   5   11.22    0.92
   6   2   5   11.22    0.92
  -6  -2   5   10.17    0.94
   6   2   5    9.55    1.12
  -7   2   0   51.06    4.77
  -7  -2   0   61.97    4.79
  -7  -2   0   61.97    4.79
  -7  -2   0   57.81    4.74
  -7  -2   0   57.81    4.74
  -7   2   0   51.06    4.77
  -7   2   1   48.03    4.48
  -7   2   1   48.03    4.48
  -7  -2  -1   61.21    4.47
  -7  -2  -1   61.21    4.47
   7   2   1   51.62    4.46
   7   2   1   54.83    4.44
  -7  -2   1   51.11    4.50
  -7  -2   1   51.11    4.50
   7   2   1   54.83    4.44
   7   2   1   51.62    4.46
  -7   2   2   30.17    3.01
   7  -2   2   35.65    2.99
  -7   2   2   33.48    2.99
   7  -2   2   38.61    2.96
   7  -2   2   38.61    2.96
   7  -2   2   35.65    2.99
  -7   2   2   30.17    3.01
  -7   2   2   33.48    2.99
  -7  -2  -2   33.10    2.95
  -7  -2  -2   33.10    2.95
   7   2   2   37.94    2.98
   7   2   2   33.65    2.98
   7   2   2   40.52    2.98
   7   2   2   33.65    2.98
   7   2   2   40.52    2.98
   7   2   2   37.94    2.98
  -7   2   3   29.54    2.70
  -7   2   3   29.12    2.68
   7  -2   3   33.45    2.64
   7  -2   3   33.45    2.64
   7  -2   3   34.62    2.71
  -7   2   3   29.12    2.68
  -7   2   3   29.54    2.70
   7  -2   3   34.62    2.71
   7   2   3   33.02    2.66
  -7  -2   3   28.77    2.67
  -7  -2   3   28.77    2.67
   7   2   3   33.02    2.66
   7  -2   4   22.11    2.05
  -7   2   4   21.80    1.99
   7  -2   4   22.11    2.05
  -7   2   4   23.15    2.00
   7  -2   4   19.63    1.95
  -7   2   4   23.15    2.00
   7  -2   4   19.63    1.95
  -7   2   4   21.80    1.99
  -7  -2   4   23.66    1.98
   7   2   4   24.76    1.95
   7   2   4   24.74    2.06
   7   2   4   24.74    2.06
  -7  -2   4   23.66    1.98
   7   2   4   24.76    1.95
  -7   2   5   13.90    1.41
   7  -2   5   16.73    1.37
  -7   2   5   13.90    1.41
   7  -2   5   16.68    1.59
   7  -2   5   16.68    1.59
   7  -2   5   16.73    1.37
  -7   2   5   17.03    1.43
  -7   2   5   17.03    1.43
  -7  -2   5   16.16    1.40
  -7  -2   5   12.95    1.42
  -7  -2   5   16.16    1.40
  -7  -2   5   12.95    1.42
  -8  -2   0    2.25    0.27
  -8  -2   0    1.17    0.23
  -8   2   0    1.67    0.26
  -8  -2   0    1.17    0.23
  -8  -2   0    2.25    0.27
  -8   2   0    1.67    0.26
   8  -2   1    2.00    0.24
  -8   2   1    2.59    0.33
   8  -2   1    2.00    0.24
  -8   2   1    2.59    0.33
  -8  -2   1    1.93    0.33
  -8  -2   1    1.93    0.33
   8   2   1    2.35    0.25
   8   2   1    2.35    0.25
   8   2   1    2.29    0.23
   8   2   1    2.29    0.23
   8  -2   2    1.32    0.20
  -8   2   2    0.98    0.24
   8  -2   2    1.32    0.20
   8  -2   2    1.53    0.16
  -8  -2  -2    1.13    0.17
   8  -2   2    1.53    0.16
  -8   2   2    1.45    0.22
  -8   2   2    1.45    0.22
  -8   2   2    0.98    0.24
  -8  -2  -2    1.13    0.17
   8   2   2    1.07    0.18
   8   2   2    1.11    0.17
  -8  -2   2    1.45    0.22
   8   2   2    1.32    0.18
  -8  -2   2    1.45    0.22
   8   2   2    1.11    0.17
   8   2   2    1.32    0.18
   8   2   2    1.07    0.18
  -8   2   3    1.23    0.25
  -8   2   3    1.14    0.24
   8  -2   3    1.82    0.31
   8  -2   3    1.82    0.31
   8  -2   3    1.52    0.19
  -8   2   3    1.23    0.25
  -8   2   3    1.14    0.24
   8  -2   3    1.52    0.19
  -8  -2   3    1.70    0.25
   8   2   3    1.67    0.29
   8   2   3    1.67    0.29
  -8  -2   3    1.70    0.25
   8  -2   4    0.79    0.34
  -8   2   4    0.78    0.26
   8  -2   4    0.76    0.20
  -8   2   4    0.46    0.19
  -8   2   4    0.46    0.19
   8  -2   4    0.76    0.20
   8  -2   4    0.85    0.21
  -8   2   4    0.78    0.26
   8  -2   4    0.79    0.34
   8  -2   4    0.85    0.21
   8   2   4    0.68    0.19
   8   2   4    0.49    0.31
  -8  -2   4    0.33    0.19
  -8  -2   4    1.12    0.25
   8   2   4    0.68    0.19
  -8  -2   4    0.33    0.19
  -8  -2   4    1.12    0.25
   8   2   4    0.49    0.31
   8  -2   5    0.59    0.47
  -8   2   5    1.00    0.30
  -8   2   5    1.00    0.30
   8  -2   5    0.88    0.19
  -8   2   5    0.81    0.25
   8  -2   5    0.59    0.47
  -8   2   5    0.81    0.25
   8  -2   5    0.88    0.19
   8   2   5    0.31    0.47
  -8  -2   5    0.56    0.26
   8   2   5    0.98    0.20
   8   2   5    0.31    0.47
  -8  -2   5    0.56    0.26
   8   2   5    0.98    0.20
  -9  -2   0    0.20    0.15
  -9  -2   0    0.20    0.15
  -9   2   0    0.30    0.18
  -9   2   0    0.30    0.18
   9  -2   1   38.15    2.94
   9  -2   1   38.15    2.94
  -9   2   1   36.74    2.99
  -9   2   1   36.74    2.99
   9   2   1   32.07    2.92
  -9   2  -1   32.96    2.96
  -9   2  -1   32.96    2.96
   9   2   1   32.07    2.92
   9  -2   2    0.33    0.14
  -9   2   2    0.47    0.16
  -9   2   2    0.47    0.16
   9  -2   2    0.30    0.09
   9  -2   2    0.30    0.09
  -9  -2  -2    0.13    0.12
   9  -2   2    0.33    0.14
  -9  -2  -2    0.13    0.12
   9   2   2    0.18    0.10
   9   2   2    0.18    0.10
  -9  -2   2    0.25    0.17
   9   2   2    0.22    0.10
   9   2   2    0.12    0.09
   9   2   2    0.22    0.10
  -9  -2   2    0.25    0.17
   9   2   2    0.12    0.09
   9  -2   3   21.78    2.07
  -9   2   3   23.86    2.07
   9  -2   3   23.80    2.01
  -9   2   3   23.86    2.07
   9  -2   3   21.78    2.07
   9  -2   3   23.80    2.01
  -9  -2   3   23.89    2.06
   9   2   3   25.81    2.07
   9   2   3   23.32    2.02
   9   2   3   23.32    2.02
  -9  -2   3   23.89    2.06
   9   2   3   25.81    2.07
  -9   2   4    0.35    0.21
  -9   2   4    0.28    0.25
   9  -2   4    0.32    0.32
  -9   2   4    0.28    0.25
   9  -2   4    0.32    0.32
  -9   2   4    0.35    0.21
   9   2   4    0.55    0.32
  -9  -2   4    0.27    0.24
   9   2   4    0.54    0.18
   9   2   4    0.54    0.18
   9   2   4    0.55    0.32
  -9  -2   4    0.27    0.24
 -10   2   0    7.15    0.78
 -10  -2   0    8.56    0.92
 -10   2   0    7.15    0.78
 -10  -2   0    8.56    0.92
 -10  -2  -1    0.66    0.19
  10  -2   1    0.45    0.13
 -10  -2  -1    0.66    0.19
  10  -2   1    0.45    0.13
  10   2   1    0.54    0.11
 -10   2  -1    0.68    0.19
  10   2   1    0.54    0.11
 -10  -2   1    0.35    0.27
 -10   2  -1    0.68    0.19
 -10  -2   1    0.35    0.27
  10  -2   2    7.03    0.64
  10  -2   2    6.51    0.67
 -10   2   2    8.42    0.72
  10  -2   2    7.03    0.64
 -10   2   2    8.42    0.72
  10  -2   2    6.51    0.67
  10   2   2    6.43    0.65
 -10  -2   2    7.79    0.75
 -10  -2   2    7.79    0.75
  10   2   2    6.43    0.65
  10  -2   3   -0.06    0.21
  10  -2   3   -0.06    0.21
 -10   2   3    0.05    0.18
 -10   2   3    0.05    0.18
  10   2   3    0.25    0.14
 -10  -2   3    0.46    0.19
 -10  -2   3    0.46    0.19
  10   2   3    0.07    0.19
  10   2   3    0.25    0.14
  10   2   3    0.07    0.19
 -10   2   4    4.74    0.65
  10  -2   4    4.41    0.64
 -10   2   4    3.35    0.57
 -10   2   4    3.35    0.57
 -10   2   4    4.74    0.65
  10  -2   4    4.41    0.64
 -10  -2   4    6.14    0.64
  10   2   4    4.91    0.49
  10   2   4    6.02    0.72
  10   2   4    6.02    0.72
 -10  -2   4    6.14    0.64
  10   2   4    4.91    0.49
 -11  -2   0    9.46    0.98
 -11   2   0    9.98    0.98
 -11  -2   0    9.46    0.98
 -11   2   0    9.98    0.98
 -11  -2  -1    2.77    0.39
 -11   2   1    2.49    0.37
 -11  -2  -1    2.77    0.39
 -11   2   1    2.49    0.37
 -11  -2   1    1.94    0.41
 -11   2  -1    2.01    0.34
 -11   2  -1    2.01    0.34
 -11  -2   1    1.94    0.41
  11  -2   2    9.34    0.79
  11  -2   2    9.12    0.81
  11  -2   2    9.34    0.79
 -11   2   2    9.39    0.85
  11  -2   2    9.12    0.81
 -11   2   2    9.39    0.85
  11   2   2    7.59    0.78
  11   2   2    7.97    0.81
  11   2   2    7.97    0.81
 -11  -2   2    9.69    0.89
  11   2   2    7.59    0.78
 -11  -2   2    9.69    0.89
  11  -2   3    0.77    0.24
 -11   2   3    0.61    0.22
  11  -2   3    0.77    0.24
 -11   2   3    0.61    0.22
 -11  -2   3    1.03    0.25
  11   2   3    0.19    0.21
 -11  -2   3    1.03    0.25
  11   2   3    0.19    0.21
  11  -2   4    6.31    0.83
  11  -2   4    6.31    0.83
 -11   2   4    5.89    0.77
  11  -2   4    6.70    0.60
  11  -2   4    6.69    0.60
 -11   2   4    5.89    0.77
  11   2   4    7.06    0.83
  11   2   4    5.69    0.62
 -11  -2   4    5.44    0.75
 -11  -2   4    5.44    0.75
  11   2   4    5.69    0.62
  11   2   4    7.06    0.83
 -12   2   0    1.96    0.42
 -12  -2   0    2.11    0.41
 -12   2   0    1.96    0.42
 -12  -2   0    2.11    0.41
 -12   2   1   48.67    3.97
 -12  -2  -1   45.80    3.96
 -12   2   1   48.67    3.97
 -12  -2  -1   45.80    3.96
 -12  -2   1   44.42    4.00
 -12  -2   1   44.42    4.00
 -12   2   2    3.30    0.43
 -12   2   2    3.30    0.43
  12  -2   2    2.41    0.32
  12  -2   2    2.30    0.29
  12  -2   2    2.41    0.32
  12  -2   2    2.30    0.29
  12   2   2    1.95    0.32
 -12  -2   2    2.33    0.40
  12   2   2    1.92    0.28
  12   2   2    1.95    0.32
 -12  -2   2    2.33    0.40
  12   2   2    1.92    0.28
  12  -2   3   26.52    2.34
 -12   2   3   30.57    2.38
  12  -2   3   26.52    2.34
 -12   2   3   30.57    2.38
  12   2   3   24.00    2.31
  12   2   3   24.00    2.31
  12  -2   4    2.65    0.49
  12  -2   4    3.13    0.36
 -12   2   4    3.03    0.48
 -12   2   4    3.03    0.48
  12  -2   4    2.65    0.49
  12  -2   4    3.12    0.36
 -12  -2   4    2.67    0.46
  12   2   4    1.84    0.47
  12   2   4    2.12    0.36
 -12  -2   4    2.67    0.46
  12   2   4    1.84    0.47
  12   2   4    2.12    0.36
 -13   2   0    8.54    1.01
 -13  -2   0    9.79    1.04
 -13  -2   0    9.79    1.04
 -13   2   0    8.54    1.01
 -13  -2  -1   12.64    1.31
 -13   2   1   14.94    1.33
 -13  -2  -1   12.64    1.31
 -13   2   1   14.94    1.33
 -13   2  -1   11.76    1.32
 -13   2  -1   11.76    1.32
 -13  -2   1   14.78    1.37
 -13  -2   1   14.78    1.37
  13  -2   2    9.02    0.92
 -13   2   2    9.80    0.97
 -13   2   2    9.80    0.97
  13  -2   2    9.02    0.92
 -13   2  -2    9.43    1.05
  13   2   2   10.71    0.93
 -13  -2   2    9.82    1.01
  13   2   2   10.71    0.93
 -13  -2   2    9.82    1.01
 -13   2  -2    9.43    1.05
  13  -2   3   10.11    0.90
  13  -2   3   10.11    0.90
  13  -2   3   11.04    0.99
  13  -2   3   11.04    0.99
 -13   2   3   11.37    1.01
 -13   2   3   11.37    1.01
  13   2   3    8.09    0.92
 -13  -2   3   11.05    1.00
  13   2   3    8.61    0.94
 -13  -2   3   11.05    1.00
  13   2   3    8.09    0.92
  13   2   3    8.61    0.94
 -14  -2   0    0.68    0.37
 -14   2   0    1.00    0.42
 -14   2   0    1.00    0.42
 -14  -2   0    0.68    0.37
 -14  -2  -1    0.43    0.35
 -14   2   1    0.46    0.32
 -14   2   1    0.46    0.32
 -14  -2  -1    0.43    0.35
 -14   2  -1    0.47    0.39
 -14   2  -1    0.47    0.39
 -14  -2   1   -0.21    0.31
 -14  -2   1   -0.21    0.31
 -14   2   2    0.72    0.28
 -14   2   2    0.72    0.28
 -14  -2  -2    0.95    0.43
 -14  -2  -2    0.95    0.43
  14  -2   2    0.75    0.19
  14  -2   2    0.75    0.19
 -14   2  -2    0.80    0.43
 -14  -2   2    0.64    0.32
 -14   2  -2    0.80    0.43
 -14  -2   2    0.64    0.32
 -14   2   3    0.13    0.27
  14  -2   3    0.26    0.16
 -14   2   3    0.13    0.27
  14  -2   3    0.33    0.29
  14  -2   3    0.33    0.29
  14  -2   3    0.26    0.16
 -14   2  -3   -0.32    0.50
  14   2   3    0.34    0.17
  14   2   3    0.26    0.25
  14   2   3    0.34    0.17
 -14   2  -3   -0.32    0.50
  14   2   3    0.26    0.25
 -15   2   0    0.97    0.46
 -15  -2   0    2.34    0.54
 -15  -2   0    2.34    0.54
 -15   2   0    0.97    0.46
 -15  -2  -1   -0.09    0.40
 -15   2   1    0.14    0.33
 -15   2   1    0.14    0.33
 -15  -2  -1   -0.09    0.40
 -15  -2   1    0.26    0.35
 -15   2  -1    0.43    0.46
 -15  -2   1    0.26    0.35
 -15   2  -1    0.43    0.46
 -15   2   2    1.30    0.33
 -15  -2  -2    1.39    0.50
 -15   2   2    1.30    0.33
  15  -2   2    1.10    0.25
 -15  -2  -2    1.39    0.50
  15  -2   2    1.10    0.25
  15   2   2    1.25    0.26
  15   2   2    1.25    0.26
 -15  -2   2    1.35    0.41
 -15   2  -2    1.08    0.53
 -15  -2   2    1.35    0.41
 -15   2  -2    1.08    0.53
 -16  -2   0    7.49    1.05
 -16   2   0    7.01    0.94
 -16  -2   0    7.49    1.05
 -16   2   0    7.01    0.94
 -16   2   1    8.91    1.00
 -16  -2  -1    9.15    1.14
 -16   2   1    8.91    1.00
 -16  -2  -1    9.15    1.14
  16  -2   1    7.49    0.80
  16  -2   1    7.49    0.80
 -16  -2   1    7.56    1.04
 -16  -2   1    7.56    1.04
 -16   2  -1    9.17    1.21
 -16   2  -1    9.17    1.21
 -16   2   2    8.09    0.90
 -16   2   2    8.09    0.90
 -16  -2  -2   12.55    1.60
  16  -2   2    7.97    0.79
  16  -2   2    7.97    0.79
 -16  -2  -2   12.55    1.60
 -16   2  -2    8.94    1.27
  16   2   2    6.66    0.78
 -16   2  -2    8.94    1.27
 -16  -2   2    7.67    0.93
 -16  -2   2    7.67    0.93
  16   2   2    6.66    0.78
 -17   2   0   22.35    2.05
 -17  -2   0   18.24    2.03
 -17  -2   0   18.24    2.03
 -17   2   0   22.35    2.05
 -17  -2  -1    7.76    1.10
 -17   2   1    7.65    1.04
  17  -2   1    8.19    0.85
 -17  -2  -1    7.76    1.10
  17  -2   1    8.18    0.85
 -17   2   1    7.65    1.04
 -17  -2   1    9.93    1.14
 -17   2  -1   10.25    1.35
 -17  -2   1    9.93    1.14
 -17   2  -1   10.25    1.35
   0   3   0   -0.08    0.02
   0  -3   0   -0.06    0.02
   0   3   0   -0.07    0.02
   0  -3   0   -0.04    0.02
   0   3   0   -0.07    0.02
   0   3   0   -0.06    0.03
   0   3   0   -0.08    0.02
   0  -3   0   -0.07    0.02
   0  -3   0   -0.07    0.02
   0  -3   0   -0.06    0.02
   0   3   0   -0.08    0.02
   0   3   0   -0.06    0.03
   0  -3   0   -0.04    0.02
   0   3   0   -0.08    0.02
   0   3  -1   -0.08    0.04
   0  -3   1    0.03    0.05
   0   3  -1   -0.05    0.06
   0   3  -1   -0.08    0.04
   0  -3  -1   -0.05    0.05
   0  -3  -1    0.02    0.04
   0  -3   1   -0.01    0.06
   0   3   1   -0.06    0.03
   0   3  -1    0.00    0.02
   0  -3   1   -0.08    0.05
   0   3  -1   -0.05    0.04
   0  -3   1    0.03    0.05
   0   3  -1   -0.05    0.06
   0  -3  -1    0.02    0.04
   0   3   1   -0.06    0.03
   0   3  -1    0.00    0.02
   0  -3  -1   -0.09    0.04
   0   3  -1   -0.05    0.04
   0  -3  -1   -0.09    0.04
   0   3   1    0.00    0.02
   0  -3  -1   -0.05    0.05
   0  -3   1   -0.01    0.06
   0   3   1    0.00    0.02
   0  -3   1   -0.08    0.05
   0  -3   2   -0.01    0.04
   0  -3   2    0.06    0.04
   0  -3   2    0.01    0.05
   0  -3  -2   -0.03    0.05
   0  -3   2    0.02    0.04
   0  -3   2    0.08    0.10
   0  -3   2    0.00    0.06
   0   3   2    0.07    0.07
   0  -3  -2   -0.03    0.05
   0   3   2   -0.04    0.03
   0   3  -2   -0.03    0.06
   0  -3   2    0.00    0.06
   0   3  -2   -0.03    0.06
   0  -3   2    0.08    0.10
   0   3   2   -0.04    0.03
   0   3   2    0.07    0.07
   0  -3   2    0.01    0.05
   0  -3   2   -0.01    0.04
   0  -3   2    0.06    0.04
   0  -3   2    0.02    0.04
   0  -3   3    0.02    0.15
   0   3   3   -0.07    0.08
   0  -3   3    0.03    0.07
   0   3   3   -0.07    0.08
   0  -3   3   -0.04    0.10
   0  -3   3    0.01    0.06
   0  -3   3    0.12    0.08
   0  -3   3   -0.04    0.10
   0   3   3    0.02    0.05
   0  -3  -3   -0.01    0.06
   0   3   3    0.02    0.05
   0  -3   3    0.12    0.08
   0  -3  -3   -0.01    0.06
   0  -3   3    0.02    0.15
   0   3  -3   -0.07    0.07
   0  -3   3    0.03    0.07
   0   3  -3   -0.07    0.07
   0  -3   3    0.01    0.06
   0  -3   4    0.05    0.11
   0   3   4    0.01    0.15
   0   3   4    0.01    0.15
   0  -3   4    0.14    0.18
   0  -3   4   -0.14    0.25
   0  -3   4   -0.14    0.25
   0  -3   4    0.05    0.11
   0  -3   4    0.14    0.18
   0  -3   5   -0.01    0.12
   0  -3   5   -0.26    0.18
   0   3   5   -0.03    0.22
   0  -3   5   -0.26    0.18
   0   3   5   -0.03    0.22
   0  -3   5   -0.49    0.40
   0  -3   5   -0.01    0.12
   0  -3   5   -0.49    0.40
  -1  -3   0   31.37    2.67
   1   3   0   30.52    2.67
   1  -3   0   31.51    2.67
   1  -3   0   28.35    2.67
   1  -3   0   28.35    2.67
  -1  -3   0   30.29    2.67
  -1   3   0   34.53    2.67
  -1  -3   0   30.29    2.67
   1  -3   0   31.51    2.67
  -1  -3   0   31.37    2.67
  -1   3   0   34.23    2.67
   1  -3   0   33.35    2.66
   1   3   0   33.74    2.66
   1   3   0   30.52    2.67
  -1   3   0   34.53    2.67
   1  -3   0   33.35    2.66
   1   3   0   33.74    2.66
  -1   3   0   34.23    2.67
  -1   3   1   48.10    3.69
  -1  -3  -1   38.68    3.70
   1  -3   1   53.05    3.71
  -1  -3  -1   38.68    3.70
   1  -3   1   53.05    3.71
  -1   3   1   48.10    3.69
  -1  -3   1   42.92    3.69
   1   3   1   48.99    3.70
  -1   3  -1   40.63    3.70
  -1  -3   1   48.72    3.71
  -1  -3   1   41.66    3.71
   1  -3  -1   45.94    3.71
  -1   3  -1   42.13    3.69
  -1   3  -1   42.13    3.69
  -1   3  -1   40.63    3.70
  -1   3  -1   42.66    3.71
  -1  -3   1   42.92    3.69
  -1   3  -1   39.61    3.70
  -1   3  -1   39.61    3.70
  -1  -3   1   48.72    3.71
   1  -3  -1   45.94    3.71
  -1  -3   1   41.66    3.71
   1   3   1   48.99    3.70
  -1   3  -1   42.66    3.71
   1  -3   2   21.97    1.81
  -1   3   2   20.99    1.77
   1  -3   2   21.73    1.79
  -1   3   2   20.99    1.77
   1  -3   2   21.97    1.81
   1  -3   2   21.73    1.79
   1  -3   2   19.77    1.77
   1  -3   2   19.77    1.77
  -1  -3   2   19.42    1.80
  -1   3  -2   18.62    1.76
   1   3   2   22.16    1.77
  -1   3  -2   19.52    1.77
  -1  -3   2   22.86    1.79
  -1  -3   2   23.11    1.76
   1   3   2   22.16    1.77
  -1  -3   2   20.90    1.77
   1   3   2   21.02    1.78
  -1  -3   2   23.11    1.76
  -1  -3   2   20.90    1.77
  -1  -3   2   20.98    1.79
   1   3   2   21.02    1.78
  -1  -3   2   22.86    1.79
  -1   3  -2   19.52    1.77
  -1  -3   2   19.42    1.80
  -1  -3   2   20.98    1.79
  -1   3  -2   18.62    1.76
   1  -3   3   27.45    2.50
  -1   3   3   31.60    2.50
  -1   3   3   27.40    2.47
   1  -3   3   29.98    2.48
   1  -3   3   29.98    2.48
   1  -3   3   27.45    2.50
  -1   3   3   31.60    2.50
  -1   3   3   27.40    2.47
   1  -3   3   31.11    2.55
   1  -3   3   31.11    2.55
  -1  -3   3   28.50    2.46
  -1  -3   3   30.29    2.49
   1   3   3   28.71    2.49
   1   3   3   28.71    2.49
   1   3   3   32.82    2.48
  -1  -3   3   27.39    2.51
  -1  -3   3   27.92    2.54
  -1  -3   3   27.39    2.51
  -1  -3   3   30.29    2.49
  -1  -3   3   29.65    2.47
  -1  -3   3   27.92    2.54
  -1  -3   3   29.65    2.47
   1   3   3   32.82    2.48
  -1  -3   3   28.50    2.46
  -1   3   4   11.69    1.08
   1  -3   4   11.33    1.19
  -1   3   4   11.69    1.08
   1  -3   4   11.33    1.19
  -1  -3   4   12.42    1.04
  -1  -3   4   14.87    1.25
   1   3   4   10.96    1.08
   1   3   4   10.96    1.08
  -1  -3   4   14.87    1.25
   1   3   4   11.74    1.07
   1   3   4   11.74    1.07
  -1  -3   4   12.42    1.04
  -1   3   5   11.87    1.13
  -1   3   5   11.32    1.15
  -1   3   5   11.63    1.17
  -1   3   5   11.32    1.15
   1  -3   5   13.16    1.37
  -1   3   5   11.87    1.13
   1  -3   5   13.16    1.37
  -1   3   5   11.63    1.17
   1  -3   5   12.63    1.14
   1  -3   5   12.63    1.14
  -1  -3   5   14.99    1.22
   1   3   5   12.67    1.16
   1   3   5   12.46    1.18
   1   3   5   14.43    1.42
  -1  -3   5   12.10    1.15
  -1  -3   5   17.11    1.49
  -1  -3   5   12.10    1.15
   1   3   5   12.46    1.18
  -1  -3   5   17.11    1.49
   1   3   5   12.67    1.16
   1   3   5   14.43    1.42
  -1  -3   5   14.99    1.22
  -2   3   0   98.01    7.65
  -2  -3   0   93.92    7.64
  -2  -3   0   93.92    7.64
  -2   3   0   95.34    7.64
   2  -3   0  102.16    7.65
   2  -3   0   83.94    7.63
  -2   3   0  103.25    7.64
   2   3   0   94.85    7.64
  -2   3   0   81.16    7.64
  -2   3   0   81.16    7.64
   2  -3   0   76.46    7.64
   2  -3   0   76.46    7.64
   2  -3   0  102.16    7.65
  -2   3   0   98.01    7.65
   2  -3   0   83.93    7.63
   2   3   0   94.85    7.64
  -2   3   0   95.34    7.64
  -2   3   0  103.25    7.64
  -2   3   1   21.20    1.99
   2  -3   1   26.35    1.99
   2  -3   1   26.95    1.97
   2  -3   1   26.95    1.97
   2  -3   1   26.35    1.99
  -2   3   1   25.49    1.98
   2  -3   1   22.29    1.98
  -2   3   1   25.48    1.98
   2   3  -1   24.89    1.98
   2  -3   1   24.05    1.98
   2  -3   1   24.05    1.98
   2  -3   1   22.29    1.98
   2   3  -1   24.89    1.98
  -2   3   1   21.20    1.99
  -2  -3   1   25.06    1.98
  -2   3  -1   20.53    1.98
   2   3   1   24.36    1.98
  -2  -3   1   23.61    1.98
  -2   3  -1   20.53    1.98
   2   3   1   24.58    1.99
  -2   3  -1   21.12    1.99
  -2  -3   1   23.61    1.98
   2  -3  -1   24.25    1.98
   2   3   1   24.36    1.98
  -2   3  -1   20.41    1.97
   2  -3  -1   24.25    1.98
  -2   3  -1   20.41    1.97
  -2   3  -1   21.12    1.99
  -2  -3   1   25.06    1.98
   2   3   1   24.58    1.99
  -2   3   2   51.43    4.66
   2  -3   2   61.70    4.68
  -2   3   2   59.01    4.69
  -2   3   2   59.01    4.69
   2  -3   2   50.56    4.69
   2  -3   2   58.07    4.68
   2  -3   2   61.70    4.68
  -2   3   2   51.43    4.66
   2  -3   2   50.56    4.69
   2  -3   2   58.07    4.68
  -2  -3   2   51.74    4.70
  -2  -3   2   55.02    4.67
   2   3   2   53.91    4.67
  -2   3  -2   53.89    4.65
   2   3   2   57.06    4.65
  -2  -3   2   64.13    4.65
  -2   3  -2   53.20    4.67
  -2   3  -2   53.89    4.65
  -2  -3   2   53.14    4.66
   2   3   2   57.06    4.65
  -2   3  -2   53.20    4.67
   2   3   2   56.85    4.68
   2   3   2   53.91    4.67
  -2  -3   2   51.74    4.70
  -2  -3   2   55.02    4.67
   2  -3  -2   59.92    4.65
  -2  -3   2   53.14    4.66
   2  -3  -2   59.92    4.65
   2   3   2   56.85    4.68
  -2  -3   2   64.13    4.65
   2  -3   3   11.92    1.02
   2  -3   3   11.75    1.06
   2  -3   3    9.51    1.13
   2  -3   3   11.75    1.06
  -2   3   3   12.07    1.03
   2  -3   3    9.51    1.13
  -2   3   3   12.07    1.03
   2  -3   3   11.92    1.02
  -2  -3   3   13.87    1.06
  -2  -3   3   12.03    1.02
   2   3   3   10.79    1.05
  -2  -3   3   11.45    1.03
   2   3   3   12.06    1.03
  -2  -3   3   11.45    1.03
   2   3   3   11.99    1.02
   2   3   3   10.79    1.05
  -2  -3   3   13.87    1.06
   2   3   3   11.99    1.02
  -2  -3   3   12.03    1.02
   2   3   3   12.06    1.03
  -2   3   4   26.79    2.39
   2  -3   4   27.07    2.47
   2  -3   4   27.07    2.47
  -2   3   4   26.79    2.39
   2  -3   4   25.79    2.36
   2  -3   4   25.12    2.44
   2  -3   4   25.79    2.36
   2  -3   4   25.12    2.44
   2   3   4   26.87    2.36
  -2  -3   4   31.63    2.36
  -2  -3   4   31.63    2.36
   2   3   4   26.87    2.36
  -2  -3   4   33.02    2.55
   2   3   4   28.55    2.40
  -2  -3   4   33.02    2.55
   2   3   4   28.55    2.40
   2  -3   5    8.30    0.97
   2  -3   5    8.30    0.97
   2  -3   5    6.50    0.73
  -2   3   5    6.76    0.73
   2  -3   5    6.50    0.73
  -2   3   5    6.49    0.66
  -2   3   5    6.76    0.73
  -2   3   5    6.49    0.66
   2   3   5    6.92    0.69
   2   3   5    6.92    0.69
   2   3   5    8.34    1.01
  -2  -3   5   10.87    1.12
   2   3   5    6.90    0.70
   2   3   5    6.90    0.70
  -2  -3   5    6.81    0.71
  -2  -3   5   10.87    1.12
   2   3   5    8.34    1.01
  -2  -3   5    6.81    0.71
   3  -3   0  174.74   12.77
   3  -3   0  174.74   12.77
  -3  -3   0  171.64   12.78
   3  -3   0  128.26   12.76
  -3   3   0  163.40   12.78
  -3   3   0  163.40   12.78
   3  -3   0  128.26   12.76
   3  -3   0  131.88   12.80
   3  -3   0  131.88   12.80
  -3  -3   0  171.64   12.78
   3  -3   1  349.77   28.07
   3  -3   1  300.58   28.09
  -3   3   1  325.81   28.10
  -3   3   1  345.24   28.11
   3  -3   1  349.74   28.07
  -3   3   1  325.82   28.10
  -3   3   1  289.23   28.04
   3  -3   1  300.58   28.09
  -3   3   1  345.24   28.11
  -3   3   1  289.23   28.04
   3  -3  -1  319.35   28.05
  -3   3  -1  327.43   28.06
  -3   3  -1  327.44   28.06
  -3   3  -1  389.85   28.07
   3  -3  -1  357.62   28.15
  -3   3  -1  389.85   28.07
   3  -3  -1  357.62   28.15
   3   3   1  380.52   28.13
   3   3   1  380.52   28.13
   3  -3  -1  319.35   28.05
  -3   3   2  109.77    8.76
   3  -3   2  106.22    8.74
   3  -3   2  106.22    8.74
  -3   3   2  107.23    8.78
   3  -3   2  103.46    8.78
  -3   3   2  107.23    8.78
   3  -3   2  103.46    8.78
  -3   3   2  109.77    8.76
  -3  -3   2  108.77    8.77
   3   3   2  110.48    8.77
  -3  -3   2   91.52    8.75
  -3  -3   2  108.77    8.77
   3   3   2  110.48    8.77
  -3  -3   2   91.52    8.75
   3  -3   3  247.79   20.40
   3  -3   3  224.78   20.37
   3  -3   3  247.79   20.40
   3  -3   3  224.78   20.37
   3   3   3  285.19   20.39
  -3  -3   3  242.35   20.42
  -3  -3   3  235.46   20.38
   3   3   3  243.57   20.36
   3   3   3  285.18   20.39
  -3  -3   3  242.34   20.42
  -3  -3   3  235.46   20.38
   3   3   3  243.57   20.36
   3   3   3  241.08   20.40
   3   3   3  241.08   20.40
  -3   3   4   64.57    5.31
  -3   3   4   64.57    5.31
   3  -3   4   56.21    5.36
   3  -3   4   56.21    5.36
   3  -3   4   61.32    5.31
   3  -3   4   61.32    5.31
  -3  -3   4   68.96    5.44
   3   3   4   62.42    5.31
  -3  -3   4   70.74    5.35
  -3  -3   4   68.96    5.44
   3   3   4   59.16    5.27
  -3  -3   4   70.74    5.35
   3   3   4   59.16    5.27
   3   3   4   62.42    5.31
  -3   3   5  110.18    9.66
   3  -3   5  112.97    9.68
   3  -3   5  120.32    9.78
  -3   3   5  104.32    9.66
  -3   3   5  110.18    9.66
  -3   3   5  104.32    9.66
   3  -3   5  120.32    9.78
   3  -3   5  112.97    9.68
   3  -3   5  102.30    9.64
   3  -3   5  102.30    9.64
   3   3   5  125.94    9.66
  -3  -3   5  133.71    9.75
  -3  -3   5  102.68    9.69
   3   3   5  125.94    9.66
   3   3   5  123.26    9.67
   3   3   5  123.26    9.67
  -3  -3   5  102.68    9.69
   3   3   5  124.05    9.78
  -3  -3   5  133.71    9.75
   3   3   5  124.05    9.78
   4  -3   0    3.24    0.30
  -4  -3   0    3.36    0.31
   4  -3   0    2.77    0.31
   4  -3   0    3.24    0.30
  -4  -3   0    3.36    0.31
   4  -3   0    3.00    0.28
  -4   3   0    3.95    0.32
  -4   3   0    3.69    0.33
  -4  -3   0    3.44    0.32
   4  -3   0    3.00    0.28
   4  -3   0    2.77    0.31
   4   3   0    3.25    0.29
  -4   3   0    3.69    0.33
   4   3   0    3.25    0.29
  -4  -3   0    3.44    0.32
  -4   3   0    2.41    0.31
  -4   3   0    3.95    0.32
  -4   3   0    2.41    0.31
   4  -3   1    5.84    0.53
   4  -3   1    6.66    0.56
  -4   3   1    5.90    0.56
   4  -3   1    5.84    0.53
   4  -3   1    6.66    0.56
  -4   3   1    5.79    0.56
  -4   3   1    5.79    0.56
  -4   3   1    5.90    0.56
  -4   3   1    6.95    0.56
  -4   3   1    6.95    0.56
  -4  -3   1    6.89    0.58
   4   3   1    5.55    0.56
  -4  -3   1    6.89    0.58
   4  -3  -1    6.56    0.56
   4   3   1    5.55    0.56
   4  -3  -1    6.56    0.56
   4  -3  -1    7.01    0.56
   4  -3  -1    7.01    0.56
   4  -3   2    2.20    0.20
  -4   3   2    1.74    0.22
   4  -3   2    2.34    0.26
  -4   3   2    2.10    0.25
   4  -3   2    2.03    0.22
   4  -3   2    2.20    0.20
   4  -3   2    2.34    0.26
   4  -3   2    2.03    0.22
  -4   3   2    1.74    0.22
  -4   3   2    2.10    0.25
   4   3   2    2.53    0.28
  -4  -3   2    1.42    0.29
   4  -3  -2    1.87    0.20
   4   3   2    2.07    0.22
  -4  -3   2    2.28    0.22
   4  -3  -2    1.87    0.20
  -4  -3   2    1.42    0.29
   4   3   2    2.11    0.24
   4   3   2    2.53    0.28
  -4  -3   2    2.28    0.22
   4   3   2    2.07    0.22
   4   3   2    2.11    0.24
   4  -3   3    4.01    0.48
   4  -3   3    3.78    0.39
  -4   3   3    4.68    0.39
   4  -3   3    4.01    0.48
   4  -3   3    3.78    0.39
   4  -3   3    3.60    0.35
   4  -3   3    3.60    0.35
  -4   3   3    4.68    0.39
  -4  -3   3    3.46    0.38
   4   3   3    3.47    0.38
   4   3   3    3.63    0.41
  -4  -3   3    3.46    0.38
   4   3   3    4.19    0.49
   4   3   3    3.63    0.41
   4   3   3    3.47    0.38
   4   3   3    4.19    0.49
   4  -3   4    0.90    0.29
  -4   3   4    1.24    0.24
   4  -3   4    0.90    0.29
   4  -3   4    1.59    0.25
   4  -3   4    1.59    0.25
  -4   3   4    1.24    0.24
   4   3   4    2.01    0.41
  -4  -3   4    1.29    0.21
   4   3   4    2.01    0.41
  -4  -3   4    1.29    0.21
   4   3   4    1.21    0.26
   4   3   4    1.21    0.26
   4   3   4    1.22    0.17
   4   3   4    1.22    0.17
  -4   3   5    2.34    0.34
   4  -3   5    2.30    0.49
   4  -3   5    1.97    0.28
  -4   3   5    2.34    0.34
  -4   3   5    1.76    0.29
   4  -3   5    1.85    0.31
   4  -3   5    1.85    0.31
  -4   3   5    1.76    0.29
   4  -3   5    2.30    0.49
   4  -3   5    1.97    0.28
   4   3   5    1.60    0.27
   4   3   5    1.78    0.34
   4   3   5    1.67    0.47
   4   3   5    1.78    0.34
   4   3   5    1.60    0.27
   4   3   5    1.67    0.47
  -5  -3   0   17.79    1.40
  -5   3   0   13.50    1.38
  -5  -3   0   17.79    1.40
  -5  -3   0   17.15    1.36
   5   3   0   18.13    1.38
   5   3   0   18.13    1.38
  -5  -3   0   17.15    1.36
  -5   3   0   13.50    1.38
   5  -3   0   14.66    1.37
   5  -3   0   14.66    1.37
   5  -3   1    1.05    0.11
   5  -3   1    1.13    0.15
   5  -3   1    1.23    0.14
   5  -3   1    1.05    0.11
  -5   3   1    1.09    0.15
   5  -3   1    0.80    0.16
   5  -3   1    1.13    0.15
  -5   3   1    1.01    0.17
  -5   3   1    1.09    0.15
  -5   3   1    1.01    0.17
   5  -3   1    1.23    0.14
   5  -3   1    0.80    0.16
   5  -3  -1    0.86    0.15
  -5   3  -1    0.70    0.12
   5   3   1    1.17    0.13
  -5  -3   1    0.75    0.17
   5  -3  -1    0.86    0.15
  -5   3  -1    0.70    0.12
   5   3   1    1.17    0.13
   5   3   1    1.22    0.15
  -5  -3   1    0.75    0.17
   5   3   1    1.22    0.15
   5  -3   2   13.85    1.03
   5  -3   2   13.85    1.03
   5  -3   2   11.72    1.00
   5  -3   2   13.05    0.98
  -5   3   2   10.21    1.01
   5  -3   2   11.72    1.00
  -5   3   2   10.60    1.00
  -5   3   2   12.97    1.02
  -5   3   2   10.60    1.00
  -5   3   2   10.21    1.01
   5  -3   2   13.05    0.98
  -5   3   2   12.97    1.02
  -5  -3   2    9.90    1.00
   5   3   2   11.22    1.02
   5   3   2   12.35    1.02
   5   3   2   10.28    1.00
  -5  -3   2    9.90    1.00
   5   3   2   12.35    1.02
   5   3   2   11.22    1.02
   5   3   2   10.28    1.00
   5  -3   3    0.51    0.10
   5  -3   3    0.60    0.23
   5  -3   3    0.51    0.10
   5  -3   3    0.80    0.14
   5  -3   3    0.80    0.14
   5  -3   3    0.60    0.23
  -5  -3   3    0.80    0.20
   5   3   3    0.56    0.17
   5   3   3    0.80    0.21
   5   3   3    0.56    0.17
   5   3   3    0.80    0.21
  -5  -3   3    0.80    0.20
   5  -3   4    7.32    0.79
   5  -3   4    5.66    0.61
   5  -3   4    7.32    0.79
  -5   3   4    6.28    0.64
  -5   3   4    6.28    0.64
   5  -3   4    5.66    0.61
  -5  -3   4    6.25    0.61
   5   3   4    6.56    0.79
   5   3   4    6.56    0.79
  -5  -3   4    6.25    0.61
   5   3   4    6.35    0.65
   5   3   4    6.35    0.65
  -5   3   5    0.67    0.26
  -5   3   5    0.67    0.26
   5  -3   5    1.03    0.23
  -5   3   5    0.74    0.19
   5  -3   5    0.30    0.41
   5  -3   5    0.72    0.16
  -5   3   5    0.74    0.19
   5  -3   5    1.03    0.23
   5  -3   5    0.72    0.16
   5  -3   5    0.30    0.41
   5   3   5    0.85    0.18
  -5  -3   5    1.41    0.35
   5   3   5    0.82    0.28
   5   3   5    0.63    0.40
  -5  -3   5    0.54    0.22
   5   3   5    0.85    0.18
   5   3   5    0.63    0.40
  -5  -3   5    1.41    0.35
   5   3   5    0.82    0.28
  -5  -3   5    0.54    0.22
  -6   3   0    9.98    0.99
   6   3   0   11.27    0.97
  -6   3   0    9.98    0.99
   6  -3   0   10.84    0.97
  -6  -3   0   13.16    1.01
  -6  -3   0   13.16    1.01
   6   3   0   11.27    0.97
   6  -3   0   10.84    0.97
  -6   3   1    1.33    0.22
   6  -3   1    1.64    0.16
   6  -3   1    1.64    0.16
  -6   3   1    1.62    0.21
   6  -3   1    1.72    0.20
  -6   3   1    1.33    0.22
  -6   3   1    1.62    0.21
   6  -3   1    1.72    0.20
   6   3   1    1.76    0.17
  -6  -3   1    1.41    0.25
   6   3   1    1.50    0.19
  -6  -3   1    1.41    0.25
   6   3   1    1.50    0.19
   6   3   1    1.76    0.17
   6  -3   2    8.72    0.73
  -6   3   2    9.41    0.79
   6  -3   2    8.72    0.73
  -6   3   2    7.05    0.76
  -6   3   2    7.05    0.76
  -6   3   2    9.41    0.79
   6  -3   2    9.70    0.78
   6  -3   2    9.70    0.78
   6   3   2    7.72    0.75
   6   3   2    8.45    0.76
  -6  -3   2    8.14    0.76
  -6  -3   2    8.14    0.76
   6   3   2    9.29    0.77
   6   3   2    8.45    0.76
   6   3   2    9.29    0.77
   6   3   2    7.72    0.75
  -6   3   3    0.74    0.19
   6  -3   3    1.31    0.23
  -6   3   3    0.77    0.15
   6  -3   3    0.76    0.15
   6  -3   3    0.80    0.12
  -6   3   3    0.74    0.19
  -6   3   3    0.77    0.15
   6  -3   3    1.31    0.23
   6  -3   3    0.76    0.15
   6  -3   3    0.81    0.12
   6   3   3    0.80    0.22
   6   3   3    0.80    0.22
   6   3   3    0.87    0.14
  -6  -3   3    0.28    0.18
  -6  -3   3    0.68    0.16
   6   3   3    0.87    0.14
  -6  -3   3    0.28    0.18
  -6  -3   3    0.68    0.16
  -6   3   4    3.17    0.47
   6  -3   4    3.27    0.41
   6  -3   4    3.92    0.55
  -6   3   4    3.40    0.39
  -6   3   4    3.40    0.39
  -6   3   4    3.17    0.47
   6  -3   4    3.27    0.41
   6  -3   4    3.92    0.55
   6   3   4    3.56    0.52
  -6  -3   4    3.27    0.42
   6   3   4    3.52    0.44
   6   3   4    3.56    0.52
   6   3   4    3.52    0.44
  -6  -3   4    3.27    0.42
   6  -3   5    0.10    0.39
   6  -3   5    0.41    0.15
   6  -3   5    0.41    0.15
  -6   3   5    0.34    0.18
   6  -3   5    0.10    0.39
  -6   3   5    0.22    0.25
  -6   3   5    0.22    0.25
   6  -3   5    0.43    0.21
  -6   3   5    0.34    0.18
   6  -3   5    0.43    0.21
  -6  -3   5    0.14    0.23
  -6  -3   5    0.14    0.23
   6   3   5    0.34    0.13
  -6  -3   5    0.37    0.23
  -6  -3   5    0.69    0.32
  -6  -3   5    0.69    0.32
  -6  -3   5   -0.36    0.57
  -6  -3   5    0.37    0.23
   6   3   5    0.34    0.13
   6   3   5    0.30    0.42
   6   3   5    0.43    0.26
  -6  -3   5   -0.36    0.57
   6   3   5    0.43    0.26
   6   3   5    0.30    0.42
  -7  -3   0   78.08    6.73
   7   3   0   74.51    6.70
  -7  -3   0   82.88    6.69
   7  -3   0   88.43    6.70
  -7  -3   0   78.08    6.73
   7   3   0   74.51    6.70
   7  -3   0   88.43    6.70
  -7   3   0   78.31    6.73
  -7  -3   0   82.88    6.69
  -7   3   0   78.31    6.73
  -7   3   1   77.78    6.18
   7  -3   1   75.65    6.16
   7  -3   1   73.55    6.14
   7  -3   1   73.55    6.14
   7  -3   1   75.65    6.16
  -7   3   1   77.78    6.18
   7   3   1   73.85    6.16
   7   3   1   76.83    6.14
   7   3   1   76.83    6.14
  -7  -3   1   65.61    6.20
  -7  -3   1   65.61    6.20
   7   3   1   73.85    6.16
  -7   3   2   56.66    4.80
   7  -3   2   56.66    4.74
   7  -3   2   59.31    4.77
   7  -3   2   56.66    4.74
   7  -3   2   59.31    4.77
   7  -3   2   61.35    4.76
   7  -3   2   61.35    4.76
  -7   3   2   56.66    4.80
   7   3   2   53.93    4.75
   7   3   2   52.57    4.76
   7   3   2   53.93    4.75
   7   3   2   55.66    4.76
  -7  -3   2   59.09    4.78
   7   3   2   55.66    4.76
  -7  -3   2   59.09    4.78
   7   3   2   52.57    4.76
  -7   3   3   44.38    4.04
  -7   3   3   45.52    4.04
   7  -3   3   48.33    4.01
   7  -3   3   48.33    4.01
  -7   3   3   45.52    4.04
  -7   3   3   44.38    4.04
   7  -3   3   54.10    4.00
   7  -3   3   54.10    4.00
  -7  -3   3   45.71    4.02
   7   3   3   46.48    4.02
  -7  -3   3   48.96    3.98
   7   3   3   46.48    4.02
   7   3   3   49.16    4.11
  -7  -3   3   48.96    3.98
   7   3   3   46.93    4.03
   7   3   3   46.93    4.03
   7   3   3   49.16    4.11
  -7  -3   3   45.71    4.02
  -7   3   4   30.74    2.76
   7  -3   4   29.69    2.73
   7  -3   4   29.69    2.73
   7  -3   4   33.07    2.83
  -7   3   4   30.74    2.76
   7  -3   4   33.07    2.83
  -7   3   4   34.40    2.78
  -7   3   4   34.40    2.78
   7   3   4   31.72    2.82
   7   3   4   35.10    2.75
   7   3   4   31.72    2.82
  -7  -3   4   30.94    2.75
  -7  -3   4   30.94    2.75
   7   3   4   35.10    2.75
   7  -3   5   23.11    2.27
  -7   3   5   24.45    2.16
  -7   3   5   23.41    2.15
   7  -3   5   24.01    2.09
   7  -3   5   24.01    2.09
   7  -3   5   23.11    2.27
  -7   3   5   23.41    2.15
  -7   3   5   24.45    2.16
   7   3   5   25.97    2.11
  -7  -3   5   25.34    2.13
   7   3   5   25.97    2.11
  -7  -3   5   21.46    2.16
   7   3   5   28.21    2.29
  -7  -3   5   25.34    2.13
   7   3   5   28.21    2.29
  -7  -3   5   21.46    2.16
  -8  -3   0  192.43   16.07
  -8   3   0  189.69   16.07
  -8   3   0  189.69   16.07
  -8  -3   0  197.48   16.02
  -8  -3   0  192.43   16.07
  -8  -3   0  197.48   16.02
  -8   3   1   64.65    5.60
   8  -3   1   63.42    5.56
   8  -3   1   63.42    5.56
  -8   3   1   64.65    5.60
   8   3   1   70.14    5.56
   8   3   1   63.67    5.58
  -8  -3   1   69.10    5.64
  -8  -3   1   69.10    5.64
  -8   3  -1   70.29    5.59
   8   3   1   63.67    5.58
  -8   3  -1   70.29    5.59
   8   3   1   70.14    5.56
  -8  -3  -2  136.40   11.79
  -8   3   2  150.03   11.84
   8  -3   2  163.38   11.84
   8  -3   2  163.38   11.84
  -8   3   2  150.03   11.84
  -8  -3  -2  136.40   11.79
   8   3   2  131.86   11.83
   8   3   2  133.32   11.82
   8   3   2  139.11   11.82
   8   3   2  139.11   11.82
   8   3   2  131.86   11.83
   8   3   2  133.32   11.82
   8  -3   3   43.34    3.54
  -8   3   3   34.75    3.53
   8  -3   3   42.70    3.50
  -8   3   3   38.11    3.52
   8  -3   3   45.21    3.48
   8  -3   3   43.34    3.54
  -8   3   3   38.11    3.52
   8  -3   3   42.70    3.50
  -8   3   3   34.75    3.53
   8  -3   3   45.21    3.48
  -8  -3   3   44.47    3.52
  -8  -3   3   44.47    3.52
   8   3   3   41.64    3.50
   8   3   3   41.64    3.50
   8  -3   4   77.09    6.27
  -8   3   4   63.51    6.21
   8  -3   4   77.09    6.27
  -8   3   4   63.51    6.21
   8  -3   4   67.80    6.23
   8  -3   4   66.98    6.17
   8  -3   4   66.98    6.17
   8  -3   4   67.86    6.23
   8   3   4   75.52    6.25
   8   3   4   75.52    6.25
  -8  -3   4   85.83    6.21
  -8  -3   4   85.83    6.21
   8   3   4   80.89    6.18
   8   3   4   80.89    6.18
   8  -3   5   22.09    2.05
  -8   3   5   24.80    2.12
   8  -3   5   22.82    2.26
   8  -3   5   22.09    2.05
   8  -3   5   22.82    2.26
  -8   3   5   24.06    2.13
  -8   3   5   24.06    2.13
  -8   3   5   24.80    2.12
   8   3   5   24.21    2.06
  -8  -3   5   24.74    2.09
   8   3   5   24.21    2.06
   8   3   5   24.02    2.25
   8   3   5   24.02    2.25
  -8  -3   5   24.74    2.09
  -9   3   0   17.65    1.74
  -9   3   0   17.65    1.74
  -9  -3   0   21.81    1.70
  -9  -3   0   21.81    1.70
  -9  -3   0   19.78    1.75
  -9  -3   0   19.78    1.75
  -9   3   1  302.48   25.79
  -9   3   1  302.48   25.79
   9  -3   1  321.79   25.77
   9  -3   1  321.79   25.77
   9   3   1  347.38   25.75
  -9   3  -1  292.18   25.78
   9   3   1  289.49   25.76
  -9   3  -1  292.18   25.78
   9   3   1  289.49   25.76
   9   3   1  347.38   25.75
   9  -3   2   14.98    1.29
   9  -3   2   15.35    1.33
  -9   3   2   17.37    1.34
   9  -3   2   15.35    1.33
  -9   3   2   17.37    1.34
  -9  -3  -2   13.27    1.28
  -9  -3  -2   13.27    1.28
   9  -3   2   14.98    1.29
  -9  -3   2   17.59    1.37
   9   3   2   13.95    1.30
   9   3   2   14.71    1.32
   9   3   2   14.71    1.32
   9   3   2   13.95    1.30
  -9  -3   2   17.59    1.37
  -9   3   3  195.67   15.90
   9  -3   3  199.29   15.90
   9  -3   3  199.29   15.90
   9  -3   3  183.07   15.85
  -9   3   3  195.67   15.90
   9  -3   3  183.07   15.85
   9   3   3  202.44   15.87
   9   3   3  189.24   15.87
   9   3   3  189.25   15.87
   9   3   3  202.44   15.87
  -9  -3   3  173.30   15.88
  -9  -3   3  173.30   15.88
   9   3   3  194.12   15.89
   9   3   3  194.12   15.89
  -9   3   4   10.02    1.17
  -9   3   4   12.23    1.21
  -9   3   4   10.02    1.17
   9  -3   4   13.90    1.28
   9  -3   4   13.90    1.28
  -9   3   4   12.23    1.21
   9   3   4   15.82    1.27
   9   3   4   12.76    1.14
   9   3   4   12.76    1.14
   9   3   4   13.18    1.13
   9   3   4   13.18    1.13
   9   3   4   15.82    1.27
  -9  -3   4   11.97    1.18
  -9  -3   4   11.97    1.18
 -10   3   0    5.16    0.60
 -10   3   0    5.16    0.60
 -10  -3   0    5.61    0.66
 -10  -3   0    5.61    0.66
  10  -3   1    2.99    0.31
  10  -3   1    2.99    0.31
 -10  -3   1    1.96    0.39
 -10  -3   1    1.96    0.39
 -10   3  -1    2.98    0.39
 -10   3  -1    2.98    0.39
  10  -3   2    5.51    0.49
  10  -3   2    5.51    0.49
 -10  -3  -2    3.88    0.47
 -10   3   2    5.22    0.51
 -10  -3  -2    3.88    0.47
  10  -3   2    4.83    0.44
  10  -3   2    4.83    0.44
 -10   3   2    5.22    0.51
  10   3   2    4.14    0.44
 -10  -3   2    4.78    0.56
 -10  -3   2    4.78    0.56
  10   3   2    4.52    0.47
  10   3   2    4.14    0.44
  10   3   2    4.52    0.47
 -10   3   3    1.12    0.27
  10  -3   3    1.51    0.20
  10  -3   3    1.22    0.28
  10  -3   3    1.22    0.28
  10  -3   3    1.51    0.20
 -10   3   3    1.12    0.27
  10   3   3    1.74    0.25
  10   3   3    1.46    0.36
  10   3   3    1.74    0.25
  10   3   3    1.46    0.36
  10  -3   4    2.52    0.31
  10  -3   4    2.95    0.51
 -10   3   4    2.52    0.43
 -10   3   4    2.52    0.43
  10  -3   4    2.95    0.51
  10  -3   4    2.52    0.31
  10   3   4    2.68    0.34
 -10  -3   4    2.84    0.41
  10   3   4    2.69    0.48
  10   3   4    2.68    0.34
  10   3   4    2.29    0.34
  10   3   4    2.29    0.34
  10   3   4    2.69    0.48
 -10  -3   4    2.84    0.41
 -11   3   0    0.55    0.23
 -11  -3   0    0.40    0.27
 -11  -3   0    0.40    0.27
 -11   3   0    0.55    0.23
 -11  -3  -1   -0.07    0.21
 -11  -3  -1   -0.07    0.21
 -11  -3   1    0.15    0.28
 -11  -3   1    0.15    0.28
 -11   3  -1    0.22    0.21
 -11   3  -1    0.22    0.21
 -11   3   2    0.60    0.22
  11  -3   2    0.53    0.17
  11  -3   2    0.40    0.11
  11  -3   2    0.53    0.17
 -11   3   2    0.60    0.22
  11  -3   2    0.40    0.11
  11   3   2    0.43    0.14
  11   3   2    0.23    0.12
  11   3   2    0.43    0.14
 -11  -3   2    0.36    0.23
  11   3   2    0.23    0.12
 -11  -3   2    0.36    0.23
  11  -3   3    0.07    0.10
  11  -3   3    0.07    0.10
  11  -3   3    0.07    0.23
 -11   3   3    0.08    0.20
  11  -3   3    0.07    0.23
 -11   3   3    0.08    0.20
  11   3   3   -0.20    0.19
  11   3   3    0.25    0.15
  11   3   3    0.25    0.15
  11   3   3   -0.20    0.19
  11  -3   4   -0.44    0.33
 -11   3   4    0.37    0.28
  11  -3   4   -0.44    0.33
 -11   3   4    0.37    0.28
  11  -3   4    0.40    0.13
  11  -3   4    0.40    0.13
  11   3   4    0.19    0.15
  11   3   4    0.38    0.36
 -11  -3   4    0.01    0.27
 -11  -3   4    0.01    0.27
  11   3   4    0.19    0.15
  11   3   4    0.38    0.36
 -12  -3   0    8.45    0.89
 -12  -3   0    8.45    0.89
 -12   3   0    7.26    0.89
 -12   3   0    7.26    0.89
 -12  -3  -1   13.38    1.24
 -12  -3  -1   13.38    1.24
 -12   3   1   14.12    1.24
 -12   3   1   14.12    1.24
 -12  -3   1   10.65    1.27
 -12  -3   1   10.65    1.27
 -12   3  -1   13.31    1.24
 -12   3  -1   13.31    1.24
 -12   3   2    8.55    0.74
  12  -3   2    6.82    0.68
  12  -3   2    7.09    0.64
  12  -3   2    7.08    0.64
  12  -3   2    6.82    0.68
 -12   3   2    8.55    0.74
 -12  -3   2    7.12    0.78
 -12  -3   2    7.12    0.78
 -12   3  -2    6.25    0.76
  12   3   2    5.74    0.64
  12   3   2    5.74    0.64
 -12   3  -2    6.25    0.76
  12  -3   3    8.25    0.87
  12  -3   3    8.93    0.79
 -12   3   3    9.00    0.90
  12  -3   3    8.25    0.87
 -12   3   3    9.00    0.90
  12  -3   3    8.93    0.79
 -12  -3   3   10.61    0.91
  12   3   3    7.01    0.83
 -12  -3   3   10.61    0.91
  12   3   3    7.01    0.83
  12  -3   4    4.41    0.45
  12  -3   4    3.93    0.59
 -12   3   4    3.88    0.59
  12  -3   4    4.41    0.45
  12  -3   4    3.93    0.59
 -12   3   4    3.88    0.59
 -12  -3   4    4.67    0.66
  12   3   4    3.33    0.56
 -12  -3   4    4.67    0.66
  12   3   4    3.62    0.46
  12   3   4    3.33    0.56
  12   3   4    3.62    0.46
 -13   3   0   68.48    5.91
 -13   3   0   68.48    5.91
 -13  -3   0   70.40    5.92
 -13  -3   0   70.40    5.92
 -13   3   1   40.72    3.72
 -13  -3  -1   40.95    3.74
 -13  -3  -1   40.95    3.74
 -13   3   1   40.72    3.72
 -13  -3   1   49.23    3.81
 -13  -3   1   49.23    3.81
  13  -3   2   73.20    5.69
  13  -3   2   73.20    5.69
  13  -3   2   71.78    5.71
  13  -3   2   71.78    5.71
 -13  -3   2   70.25    5.77
  13   3   2   63.94    5.68
 -13  -3   2   70.25    5.77
  13   3   2   63.94    5.68
 -13   3  -2   60.52    5.76
 -13   3  -2   60.52    5.76
  13  -3   3   37.70    3.12
  13  -3   3   37.59    3.06
  13  -3   3   37.58    3.06
  13  -3   3   37.70    3.12
 -13   3   3   38.42    3.14
 -13   3   3   38.42    3.14
  13   3   3   32.17    3.08
  13   3   3   31.26    3.07
 -13  -3   3   41.00    3.14
  13   3   3   31.26    3.07
  13   3   3   32.17    3.08
 -13  -3   3   41.00    3.14
 -14   3   0    9.45    1.09
 -14  -3   0    9.40    1.09
 -14   3   0    9.45    1.09
 -14  -3   0    9.40    1.09
 -14   3   1    1.49    0.38
 -14  -3  -1    1.26    0.41
 -14   3   1    1.49    0.38
 -14  -3  -1    1.26    0.41
 -14   3  -1    1.42    0.47
 -14  -3   1    1.94    0.45
 -14   3  -1    1.42    0.47
 -14  -3   1    1.94    0.45
 -14   3   2    8.22    0.84
  14  -3   2    7.71    0.78
 -14   3   2    8.22    0.84
  14  -3   2    7.71    0.78
 -14  -3  -2    7.33    0.94
 -14  -3  -2    7.33    0.94
 -14   3  -2    8.05    1.03
 -14   3  -2    8.05    1.03
  14  -3   3    1.97    0.39
  14  -3   3    2.16    0.32
 -14   3   3    2.15    0.43
 -14   3   3    2.15    0.43
  14  -3   3    1.97    0.39
  14  -3   3    2.17    0.32
 -14  -3   3    2.04    0.40
  14   3   3    1.65    0.31
 -14  -3   3    2.04    0.40
 -14   3  -3    0.80    0.58
  14   3   3    2.47    0.37
  14   3   3    2.47    0.37
 -14   3  -3    0.80    0.58
  14   3   3    1.65    0.31
 -15   3   0   26.06    2.27
 -15   3   0   26.06    2.27
 -15  -3   0   22.41    2.25
 -15  -3   0   22.41    2.25
 -15   3   1   37.55    3.22
  15  -3   1   35.13    3.13
 -15  -3  -1   35.40    3.27
 -15   3   1   37.55    3.22
 -15  -3  -1   35.40    3.27
  15  -3   1   35.13    3.13
 -15  -3   1   38.18    3.28
 -15   3  -1   38.24    3.31
 -15  -3   1   38.18    3.28
 -15   3  -1   38.24    3.31
 -15  -3  -2   21.86    2.00
 -15  -3  -2   21.86    2.00
  15  -3   2   23.16    1.82
 -15   3   2   21.49    1.89
 -15   3   2   21.49    1.89
  15  -3   2   23.15    1.82
 -15   3  -2   20.00    2.05
 -15  -3   2   21.25    1.94
  15   3   2   17.52    1.83
 -15   3  -2   20.00    2.05
 -15  -3   2   21.25    1.94
  15   3   2   17.52    1.83
 -16  -3   0    0.88    0.48
 -16   3   0    0.13    0.43
 -16  -3   0    0.88    0.48
 -16   3   0    0.13    0.43
 -16   3   1    0.28    0.36
 -16  -3  -1    0.35    0.45
 -16   3   1    0.28    0.36
 -16  -3  -1    0.35    0.45
 -16  -3   1    0.40    0.41
 -16   3  -1    0.73    0.54
 -16  -3   1    0.40    0.41
 -16   3  -1    0.73    0.54
 -16   3   2   -0.22    0.29
 -16  -3  -2    0.18    0.48
 -16   3   2   -0.22    0.29
  16  -3   2    0.13    0.21
  16  -3   2    0.13    0.21
 -16  -3  -2    0.18    0.48
 -16   3  -2    0.22    0.60
 -16   3  -2    0.22    0.60
 -16  -3   2   -0.34    0.36
 -16  -3   2   -0.34    0.36
  16   3   2    0.17    0.20
  16   3   2    0.17    0.20
 -17   3   0    4.08    0.73
 -17  -3   0    4.07    0.74
 -17  -3   0    4.07    0.74
 -17   3   0    4.08    0.73
 -17  -3  -1    3.27    0.72
  17  -3   1    3.47    0.50
 -17  -3  -1    3.27    0.72
  17  -3   1    3.47    0.50
 -17   3   1    3.23    0.58
 -17   3   1    3.23    0.58
 -17  -3   1    3.21    0.69
 -17   3  -1    4.52    0.83
 -17  -3   1    3.21    0.69
 -17   3  -1    4.52    0.83
   0   4   0   73.76    6.33
   0   4   0   73.76    6.33
   0  -4   0   75.88    6.33
   0  -4   0   75.88    6.33
   0   4   0   82.11    6.33
   0  -4   0   73.29    6.33
   0   4   0   82.11    6.33
   0  -4   0   73.29    6.33
   0  -4  -1    8.36    0.82
   0   4   1    8.57    0.82
   0   4  -1    9.34    0.82
   0   4   1    8.57    0.82
   0   4  -1    9.22    0.80
   0   4  -1    9.34    0.82
   0   4   1    9.27    0.81
   0  -4   1   10.84    0.83
   0   4   1   10.78    0.81
   0   4   1   10.78    0.81
   0  -4   1    9.73    0.83
   0  -4  -1    8.36    0.82
   0  -4   1    9.73    0.83
   0  -4   1   10.84    0.83
   0   4   1    9.27    0.81
   0   4  -1    9.22    0.80
   0  -4   2   46.29    3.86
   0   4   2   45.76    3.84
   0  -4   2   41.70    3.85
   0   4   2   41.56    3.82
   0  -4   2   53.93    3.85
   0  -4   2   41.70    3.85
   0   4   2   41.56    3.82
   0  -4   2   46.29    3.86
   0  -4   2   53.93    3.85
   0   4   2   45.76    3.84
   0  -4  -3    3.86    0.39
   0  -4   3    4.79    0.47
   0  -4   3    4.79    0.47
   0  -4   3    3.90    0.48
   0   4   3    4.35    0.39
   0   4   3    4.35    0.39
   0  -4  -3    3.86    0.39
   0  -4   3    3.90    0.48
   0  -4   4   21.28    2.01
   0  -4   4   22.67    2.04
   0   4   4   23.20    1.95
   0  -4   4   22.67    2.04
   0  -4   4   21.28    2.01
   0   4   4   23.20    1.95
   0  -4   5    3.49    0.42
   0  -4   5    3.49    0.42
   0   4   5    3.43    0.47
   0  -4   5    4.10    0.67
   0  -4   5    4.75    0.54
   0   4   5    3.54    0.47
   0   4   5    3.54    0.47
   0   4   5    3.06    0.39
   0  -4   5    4.75    0.54
   0  -4   5    4.10    0.67
   0   4   5    3.43    0.47
   0   4   5    3.06    0.39
  -1   4   0  148.76   11.79
  -1   4   0  148.76   11.79
   1  -4   0  152.53   11.81
   1   4   0  146.62   11.79
   1  -4   0  126.16   11.78
  -1  -4   0  137.76   11.82
   1   4   0  146.62   11.79
  -1   4   0  141.41   11.79
   1  -4   0  152.53   11.81
   1   4   0  155.94   11.78
   1   4   0  155.94   11.78
   1  -4   0  126.16   11.78
  -1  -4   0  137.76   11.82
  -1   4   0  141.41   11.79
   1   4   0  133.21   11.79
   1   4   0  133.21   11.79
  -1  -4   0  136.65   11.78
  -1  -4   0  136.65   11.78
  -1   4   1  301.70   25.44
  -1  -4  -1  325.20   25.38
  -1  -4  -1  325.20   25.38
  -1   4   1  301.69   25.44
  -1   4   1  306.12   25.44
  -1   4   1  306.12   25.44
   1  -4   1  311.86   25.38
   1  -4   1  311.86   25.38
  -1   4  -1  266.42   25.39
  -1  -4   1  322.26   25.39
   1   4   1  303.24   25.44
   1  -4  -1  295.06   25.38
  -1  -4   1  331.04   25.44
  -1  -4   1  300.30   25.39
  -1   4  -1  266.42   25.39
  -1  -4   1  322.26   25.39
  -1  -4   1  331.04   25.44
   1   4   1  303.24   25.44
   1  -4  -1  295.06   25.38
  -1  -4   1  300.30   25.39
   1  -4   2   87.13    7.50
   1  -4   2   94.03    7.50
   1  -4   2   87.13    7.50
  -1   4   2   93.84    7.49
   1  -4   2  101.32    7.48
  -1   4   2   88.29    7.47
  -1   4   2   88.29    7.47
   1  -4   2  101.32    7.48
   1  -4   2   94.03    7.50
  -1   4   2   93.84    7.49
  -1  -4   2   97.66    7.46
  -1   4  -2   81.44    7.49
   1   4   2   90.67    7.47
  -1   4  -2   81.44    7.49
  -1  -4   2   86.08    7.50
  -1  -4   2   86.08    7.50
  -1  -4   2   80.75    7.50
  -1  -4   2   94.16    7.51
   1   4   2   82.75    7.49
  -1  -4   2   97.66    7.46
   1   4   2   90.66    7.47
  -1  -4   2   80.76    7.50
   1   4   2   82.75    7.49
  -1  -4   2   94.16    7.51
  -1   4   3  198.98   15.49
   1  -4   3  189.45   15.50
   1  -4   3  187.20   15.53
   1  -4   3  187.20   15.53
  -1   4   3  198.97   15.49
   1  -4   3  189.46   15.50
  -1  -4   3  189.59   15.47
  -1  -4   3  186.07   15.47
  -1  -4   3  197.80   15.52
  -1  -4   3  186.07   15.47
   1   4   3  156.85   15.53
   1   4   3  156.85   15.53
  -1  -4   3  205.63   15.56
  -1  -4   3  189.59   15.47
   1   4   3  166.36   15.48
   1  -4  -3  183.94   15.47
  -1  -4   3  191.58   15.54
   1   4   3  166.35   15.48
  -1  -4   3  205.63   15.56
   1  -4  -3  183.94   15.47
  -1  -4   3  197.80   15.52
  -1  -4   3  191.58   15.54
  -1   4   4   49.56    4.21
   1  -4   4   53.35    4.21
   1  -4   4   47.99    4.28
  -1   4   4   49.56    4.21
   1  -4   4   47.99    4.28
   1  -4   4   53.35    4.21
   1   4   4   46.16    4.21
  -1  -4   4   53.06    4.31
  -1  -4   4   52.12    4.23
  -1  -4   4   52.12    4.23
   1   4   4   47.31    4.18
  -1  -4   4   53.06    4.31
   1   4   4   46.16    4.21
   1   4   4   47.31    4.18
  -1   4   5   69.75    6.93
  -1   4   5   69.75    6.93
   1  -4   5   86.83    6.90
  -1   4   5   73.45    6.85
   1  -4   5   95.78    7.02
  -1   4   5   73.46    6.85
   1  -4   5   85.50    6.90
   1  -4   5   85.49    6.90
  -1   4   5   82.08    6.87
   1  -4   5   86.83    6.90
  -1   4   5   82.08    6.87
   1  -4   5   95.78    7.02
  -1  -4   5   80.35    6.98
  -1  -4   5   80.35    6.98
  -1  -4   5   82.35    6.88
  -1  -4   5   82.34    6.88
   1   4   5   86.76    6.85
   1   4   5   86.76    6.85
   1   4   5   77.86    6.87
   1   4   5   77.86    6.87
   2  -4   0    0.31    0.06
  -2   4   0    0.32    0.07
  -2   4   0    0.16    0.05
   2   4   0    0.25    0.05
  -2  -4   0    0.26    0.05
   2   4   0    0.25    0.05
   2  -4   0    0.32    0.07
  -2  -4   0    0.26    0.05
  -2   4   0    0.16    0.05
  -2  -4   0    0.35    0.06
   2   4   0    0.30    0.04
  -2   4   0    0.22    0.08
  -2   4   0    0.31    0.05
  -2   4   0    0.31    0.05
  -2   4   0    0.22    0.08
   2  -4   0    0.28    0.06
  -2  -4   0    0.35    0.06
   2  -4   0    0.31    0.06
   2  -4   0    0.28    0.06
  -2   4   0    0.32    0.07
   2  -4   0    0.32    0.07
   2   4   0    0.30    0.04
  -2  -4  -1    1.04    0.14
  -2   4   1    0.89    0.09
   2  -4   1    1.00    0.11
  -2  -4  -1    1.04    0.14
   2  -4   1    1.00    0.12
   2  -4   1    1.00    0.11
  -2   4   1    0.89    0.09
   2  -4   1    1.00    0.11
   2   4  -1    0.95    0.10
   2  -4   1    1.00    0.11
  -2   4   1    1.07    0.14
   2  -4   1    0.79    0.12
   2   4  -1    0.95    0.10
  -2   4   1    0.61    0.13
  -2   4   1    0.61    0.13
   2  -4   1    0.79    0.12
  -2   4   1    1.07    0.14
   2  -4   1    1.00    0.12
   2  -4  -1    1.02    0.13
  -2  -4   1    1.01    0.14
   2  -4  -1    0.81    0.10
   2   4   1    1.16    0.13
   2  -4  -1    0.81    0.10
   2   4   1    1.16    0.13
  -2  -4   1    0.77    0.11
   2   4   1    0.97    0.11
   2  -4  -1    0.95    0.11
   2  -4  -1    1.02    0.13
   2  -4  -1    0.95    0.11
  -2  -4   1    0.72    0.12
  -2  -4   1    0.72    0.12
  -2  -4   1    0.88    0.12
  -2   4  -1    0.70    0.09
  -2   4  -1    0.69    0.14
  -2   4  -1    0.70    0.09
  -2   4  -1    0.69    0.14
   2   4   1    0.97    0.11
  -2  -4   1    0.88    0.12
  -2  -4   1    1.01    0.14
  -2  -4   1    0.77    0.11
   2  -4   2    0.04    0.06
  -2   4   2    0.09    0.04
   2  -4   2    0.18    0.07
   2  -4   2    0.09    0.09
  -2   4   2    0.19    0.10
  -2   4   2    0.09    0.04
   2  -4   2    0.09    0.09
   2  -4   2    0.04    0.06
  -2   4   2    0.19    0.10
   2  -4   2    0.14    0.05
   2  -4   2    0.18    0.07
   2  -4   2    0.14    0.05
   2  -4  -2    0.19    0.05
  -2  -4   2    0.13    0.06
   2  -4  -2    0.19    0.05
  -2  -4   2    0.05    0.12
   2   4   2    0.13    0.05
  -2  -4   2    0.16    0.09
   2   4   2    0.08    0.08
  -2  -4   2    0.13    0.06
  -2  -4   2    0.13    0.05
  -2  -4   2    0.05    0.12
   2   4   2    0.08    0.08
  -2   4  -2    0.06    0.05
  -2  -4   2    0.09    0.10
  -2   4  -2    0.06    0.05
   2   4   2    0.13    0.05
  -2  -4   2    0.13    0.05
  -2  -4   2    0.09    0.10
  -2  -4   2    0.16    0.09
   2  -4   3    0.51    0.14
  -2   4   3    0.68    0.12
   2  -4   3    0.51    0.14
   2  -4   3    0.90    0.14
  -2   4   3    0.67    0.17
  -2   4   3    0.68    0.12
   2  -4   3    0.90    0.14
  -2   4   3    0.67    0.17
   2   4   3    0.71    0.12
  -2  -4   3    0.67    0.12
   2   4   3    1.08    0.14
   2   4   3    0.71    0.12
   2   4   3    0.54    0.27
  -2  -4   3    0.66    0.16
  -2  -4   3    0.89    0.16
   2  -4  -3    0.90    0.10
  -2  -4   3    0.67    0.16
   2   4   3    1.08    0.14
  -2  -4   3    0.51    0.17
  -2  -4   3    0.51    0.17
  -2  -4   3    0.67    0.12
  -2  -4   3    0.91    0.24
   2   4   3    0.54    0.27
  -2  -4   3    0.89    0.16
  -2  -4   3    0.91    0.24
   2  -4  -3    0.90    0.10
   2  -4   4   -0.66    0.27
  -2   4   4   -0.06    0.16
  -2  -4  -4    0.03    0.12
  -2   4   4   -0.06    0.16
   2  -4   4   -0.66    0.27
  -2  -4  -4    0.03    0.12
  -2  -4   4    0.25    0.32
  -2  -4   4    0.08    0.12
  -2  -4   4    0.08    0.12
   2   4   4   -0.03    0.16
   2   4   4    0.05    0.12
   2   4   4    0.05    0.12
   2   4   4   -0.03    0.16
  -2  -4   4    0.25    0.32
   2  -4   5    0.50    0.38
  -2   4   5    0.15    0.23
  -2   4   5    0.24    0.11
  -2   4   5    0.24    0.11
   2  -4   5    0.27    0.14
   2  -4   5    0.50    0.38
  -2   4   5    0.15    0.23
   2  -4   5    0.27    0.14
  -2  -4   5    0.71    0.50
   2   4   5    0.79    0.44
   2   4   5    0.79    0.44
  -2  -4   5    0.71    0.50
   2   4   5    0.37    0.26
  -2  -4   5   -0.01    0.17
  -2  -4   5    0.15    0.24
   2   4   5    0.37    0.26
  -2  -4   5   -0.01    0.17
  -2  -4   5    0.15    0.24
   3  -4   0    0.90    0.13
  -3   4   0    1.15    0.16
   3  -4   0    1.17    0.13
  -3  -4   0    1.27    0.15
   3  -4   0    0.95    0.09
   3   4   0    1.10    0.12
   3   4   0    1.10    0.12
  -3   4   0    1.15    0.16
  -3   4   0    1.12    0.13
   3  -4   0    0.90    0.13
  -3   4   0    1.12    0.13
   3  -4   0    1.17    0.13
   3  -4   0    0.95    0.12
  -3   4   0    1.26    0.14
  -3   4   0    1.21    0.15
  -3  -4   0    1.27    0.15
  -3   4   0    1.21    0.15
  -3   4   0    1.26    0.14
   3  -4   0    0.95    0.12
   3  -4   0    0.95    0.09
  -3   4   1    0.68    0.08
   3  -4   1    0.69    0.10
   3  -4   1    0.90    0.12
   3  -4   1    0.69    0.11
   3  -4   1    0.77    0.07
   3   4  -1    0.66    0.09
   3  -4   1    0.69    0.11
  -3   4   1    0.44    0.10
   3  -4   1    0.90    0.12
   3  -4   1    0.69    0.10
   3   4  -1    0.66    0.09
  -3   4   1    0.43    0.10
  -3   4   1    0.68    0.08
  -3   4   1    0.43    0.10
   3  -4   1    0.77    0.07
  -3   4   1    0.44    0.10
  -3  -4   1    0.51    0.10
   3   4   1    0.39    0.08
   3   4   1    0.55    0.10
   3   4   1    0.55    0.10
  -3  -4   1    0.66    0.11
  -3   4  -1    0.44    0.06
   3  -4  -1    0.73    0.09
   3  -4  -1    0.73    0.09
  -3   4  -1    0.44    0.06
  -3  -4   1    0.70    0.12
   3  -4  -1    0.49    0.09
  -3  -4   1    0.66    0.11
  -3  -4   1    0.70    0.12
   3  -4  -1    0.49    0.09
  -3  -4   1    0.51    0.10
   3   4   1    0.39    0.08
   3  -4   2    0.80    0.16
  -3   4   2    0.89    0.16
   3  -4   2    0.76    0.14
   3  -4   2    0.98    0.15
  -3   4   2    1.09    0.12
  -3   4   2    1.09    0.12
   3  -4   2    0.96    0.12
   3  -4   2    0.80    0.16
   3  -4   2    0.76    0.14
   3  -4   2    0.96    0.12
   3  -4   2    0.98    0.15
  -3   4   2    0.89    0.16
  -3  -4   2    0.81    0.20
  -3  -4   2    0.95    0.13
   3   4   2    0.83    0.13
  -3   4  -2    0.65    0.11
   3  -4  -2    1.05    0.11
   3  -4  -2    1.05    0.11
   3   4   2    0.68    0.14
   3   4   2    0.68    0.14
   3   4   2    0.83    0.13
  -3  -4   2    1.13    0.17
  -3  -4   2    0.95    0.13
  -3  -4   2    1.13    0.17
  -3  -4   2    0.81    0.20
  -3   4  -2    0.65    0.11
  -3   4   3    0.30    0.13
  -3   4   3    0.30    0.13
   3  -4   3    0.47    0.10
   3  -4   3    0.56    0.20
   3  -4   3    0.56    0.20
   3  -4   3    0.34    0.13
   3  -4   3    0.47    0.10
  -3   4   3    0.61    0.11
  -3   4   3    0.61    0.11
   3  -4   3    0.34    0.13
  -3  -4   3    0.56    0.17
  -3  -4   3    0.60    0.17
  -3  -4   3    0.60    0.17
  -3  -4   3    0.33    0.20
  -3  -4   3    0.56    0.17
  -3  -4   3    0.57    0.11
  -3  -4   3    0.33    0.20
  -3  -4   3    0.57    0.11
   3  -4   4    0.31    0.25
  -3   4   4    0.44    0.17
   3  -4   4    0.31    0.25
  -3  -4  -4    0.28    0.15
  -3   4   4    0.44    0.17
  -3  -4  -4    0.28    0.15
  -3  -4   4    0.52    0.36
   3   4   4    0.36    0.33
  -3  -4   4    0.52    0.36
   3   4   4    0.32    0.20
  -3  -4   4    0.61    0.15
  -3  -4   4    0.61    0.15
   3   4   4    0.57    0.13
   3   4   4    0.32    0.20
   3   4   4    0.36    0.33
   3   4   4    0.57    0.13
  -3   4   5    0.88    0.25
  -3   4   5    0.88    0.25
   3  -4   5   -0.06    0.21
   3  -4   5    0.55    0.38
   3  -4   5    0.55    0.38
   3  -4   5   -0.06    0.21
  -3   4   5    0.13    0.13
  -3   4   5    0.13    0.13
   3   4   5    0.28    0.12
  -3  -4   5    0.09    0.18
  -3  -4   5    0.09    0.18
  -3  -4   5    0.32    0.53
   3   4   5    0.43    0.41
  -3  -4   5    0.54    0.25
  -3  -4   5    0.54    0.25
   3   4   5    0.34    0.27
   3   4   5    0.43    0.41
   3   4   5    0.28    0.12
   3   4   5    0.34    0.27
  -3  -4   5    0.32    0.53
  -4   4   0    0.19    0.07
  -4   4   0    0.19    0.07
   4   4   0    0.34    0.07
   4  -4   0    0.31    0.04
   4  -4   0    0.20    0.06
   4  -4   0    0.20    0.06
   4  -4   0    0.22    0.07
   4  -4   0    0.31    0.04
   4   4   0    0.34    0.07
   4  -4   0    0.22    0.07
   4  -4   1    4.06    0.34
  -4   4   1    3.71    0.32
   4  -4   1    3.43    0.30
   4  -4   1    3.19    0.34
   4  -4   1    3.43    0.30
  -4   4   1    3.08    0.33
   4  -4   1    3.19    0.34
  -4   4   1    3.08    0.33
   4  -4   1    4.06    0.34
  -4   4   1    3.71    0.32
   4   4   1    3.68    0.34
   4  -4  -1    3.95    0.32
   4  -4  -1    3.95    0.32
   4   4   1    3.36    0.32
   4   4   1    3.68    0.34
  -4  -4   1    2.67    0.36
   4   4   1    3.36    0.32
   4  -4  -1    3.63    0.33
  -4  -4   1    2.67    0.36
   4  -4  -1    3.63    0.33
   4  -4   2    0.11    0.11
  -4   4   2    0.29    0.11
  -4   4   2    0.24    0.06
   4  -4   2    0.06    0.08
   4  -4   2    0.11    0.11
   4  -4   2    0.21    0.08
   4  -4   2    0.19    0.05
  -4   4   2    0.24    0.06
   4  -4   2    0.21    0.08
   4  -4   2    0.06    0.08
  -4   4   2    0.17    0.11
  -4   4   2    0.29    0.11
  -4   4   2    0.17    0.11
   4  -4   2    0.19    0.05
  -4  -4   2    0.02    0.12
  -4   4  -2    0.13    0.06
   4  -4  -2    0.17    0.06
   4   4   2    0.19    0.10
  -4  -4   2    0.02    0.12
  -4  -4   2    0.25    0.08
  -4  -4   2    0.23    0.14
  -4   4  -2    0.13    0.06
   4   4   2    0.25    0.07
  -4  -4   2    0.23    0.14
   4  -4  -2    0.17    0.06
  -4  -4   2    0.25    0.08
   4   4   2    0.19    0.10
  -4  -4   2    0.21    0.07
   4   4   2    0.25    0.07
  -4  -4   2    0.21    0.07
   4  -4   3    2.39    0.27
  -4   4   3    1.48    0.25
   4  -4   3    1.85    0.21
   4  -4   3    1.85    0.21
   4  -4   3    2.39    0.27
  -4   4   3    1.48    0.25
   4  -4   3    1.90    0.32
   4  -4   3    1.90    0.32
  -4  -4   3    1.65    0.24
   4   4   3    2.31    0.34
   4   4   3    2.31    0.34
   4   4   3    2.07    0.25
  -4  -4   3    1.65    0.24
   4   4   3    2.07    0.25
  -4   4   4    0.19    0.17
  -4   4   4    0.19    0.17
   4  -4   4    0.25    0.29
   4  -4   4    0.25    0.29
   4   4   4    0.07    0.20
   4   4   4    0.10    0.32
  -4  -4   4   -0.12    0.13
  -4  -4   4   -0.27    0.33
  -4  -4   4   -0.27    0.33
   4   4   4    0.10    0.32
  -4  -4   4   -0.12    0.13
   4   4   4    0.07    0.20
  -4   4   5    1.30    0.30
   4  -4   5    1.18    0.21
   4  -4   5    1.06    0.46
   4  -4   5    1.18    0.21
  -4   4   5    1.30    0.30
   4  -4   5    0.92    0.27
   4  -4   5    1.06    0.46
  -4   4   5    0.90    0.20
  -4   4   5    0.90    0.20
   4  -4   5    0.92    0.27
  -4  -4   5    1.12    0.34
  -4  -4   5    1.51    0.60
   4   4   5    1.27    0.22
   4   4   5    1.27    0.22
   4   4   5    1.55    0.32
   4   4   5    1.21    0.46
   4   4   5    1.21    0.46
  -4  -4   5    1.50    0.31
  -4  -4   5    1.51    0.60
  -4  -4   5    1.12    0.34
  -4  -4   5    1.16    0.28
  -4  -4   5    1.16    0.28
  -4  -4   5    1.50    0.31
   4   4   5    1.55    0.32
   5  -4   0  431.04   37.10
  -5   4   0  423.46   36.93
  -5   4   0  423.46   36.93
   5   4   0  482.71   37.03
   5   4   0  482.71   37.03
   5  -4   0  431.05   37.10
   5  -4   1  210.12   17.83
   5  -4   1  210.04   17.84
   5  -4   1  210.14   17.83
  -5   4   1  201.71   17.85
  -5   4   1  184.91   17.84
   5  -4   1  210.04   17.84
  -5   4   1  184.91   17.84
  -5   4   1  201.70   17.85
   5  -4  -1  237.99   17.95
  -5  -4   1  191.97   17.87
   5  -4  -1  230.82   17.87
  -5  -4   1  191.97   17.87
   5  -4  -1  231.02   17.87
   5  -4  -1  237.99   17.95
   5   4   1  252.60   17.83
   5   4   1  252.60   17.83
   5  -4   2  367.49   29.45
   5  -4   2  367.49   29.45
  -5   4   2  346.98   29.46
   5  -4   2  347.20   29.46
   5  -4   2  331.46   29.46
  -5   4   2  346.98   29.46
   5  -4   2  347.20   29.46
   5  -4   2  331.46   29.46
   5   4   2  385.62   29.56
   5   4   2  352.62   29.46
   5   4   2  385.61   29.56
   5   4   2  352.62   29.46
   5  -4   3  121.71   10.11
   5  -4   3  121.71   10.11
  -5   4   3  112.50   10.15
  -5   4   3  129.97   10.16
  -5   4   3  129.97   10.16
   5  -4   3  125.53   10.14
  -5   4   3  112.50   10.15
   5  -4   3  125.53   10.14
  -5  -4   3  106.60   10.14
   5   4   3  122.17   10.13
   5   4   3  133.74   10.15
  -5  -4   3  106.60   10.14
   5   4   3  122.18   10.13
   5   4   3  133.74   10.15
  -5   4   4  212.06   17.69
  -5   4   4  202.32   17.70
  -5   4   4  202.32   17.70
   5  -4   4  183.77   17.73
  -5   4   4  212.05   17.69
   5  -4   4  183.77   17.73
  -5  -4   4  225.89   17.80
   5   4   4  208.70   17.70
  -5  -4   4  211.24   17.67
   5   4   4  246.19   17.77
  -5  -4   4  211.24   17.67
   5   4   4  213.69   17.71
   5   4   4  208.70   17.70
   5   4   4  213.68   17.71
   5   4   4  246.19   17.77
  -5  -4   4  225.89   17.80
   5  -4   5   65.10    5.73
   5  -4   5   68.01    5.84
   5  -4   5   68.01    5.84
   5  -4   5   64.88    5.70
  -5   4   5   73.75    5.74
   5  -4   5   65.10    5.73
   5  -4   5   64.88    5.70
  -5   4   5   67.02    5.74
  -5   4   5   73.75    5.74
  -5   4   5   67.02    5.74
  -5  -4   5   58.53    5.76
   5   4   5   72.91    5.73
   5   4   5   63.97    5.82
  -5  -4   5   78.49    5.71
   5   4   5   67.05    5.71
  -5  -4   5   58.53    5.76
  -5  -4   5   78.49    5.71
   5   4   5   67.05    5.71
   5   4   5   72.91    5.73
   5   4   5   63.97    5.82
   6  -4   0   21.08    2.07
   6   4   0   23.58    2.05
   6  -4   0   21.08    2.07
   6  -4   0   25.60    2.04
  -6  -4   0   27.44    2.09
   6  -4   0   25.60    2.04
  -6  -4   0   27.44    2.09
   6   4   0   23.58    2.05
  -6   4   1   32.64    2.79
   6  -4   1   36.80    2.76
  -6   4   1   32.64    2.79
   6  -4   1   36.80    2.76
   6  -4  -1   37.13    2.81
  -6  -4   1   27.36    2.82
   6   4   1   30.91    2.79
   6   4   1   30.91    2.79
   6  -4  -1   37.13    2.81
  -6  -4   1   27.36    2.82
   6  -4   2   17.72    1.58
   6  -4   2   17.66    1.55
  -6   4   2   18.18    1.60
  -6   4   2   21.54    1.61
   6  -4   2   17.72    1.58
  -6   4   2   18.18    1.60
   6  -4   2   20.86    1.60
  -6   4   2   21.53    1.61
   6  -4   2   17.66    1.55
   6  -4   2   20.86    1.60
   6  -4  -2   16.07    1.57
   6   4   2   17.47    1.58
   6  -4  -2   16.07    1.57
  -6  -4   2   19.42    1.59
   6   4   2   17.47    1.58
   6   4   2   17.22    1.58
  -6  -4   2   19.42    1.59
   6   4   2   19.95    1.60
   6   4   2   17.22    1.58
   6   4   2   19.95    1.60
  -6   4   3   21.89    1.72
   6  -4   3   18.28    1.67
   6  -4   3   18.25    1.70
  -6   4   3   21.89    1.72
  -6   4   3   19.59    1.74
  -6   4   3   19.59    1.74
   6  -4   3   18.28    1.67
   6  -4   3   18.25    1.70
   6   4   3   21.34    1.75
   6   4   3   18.18    1.72
   6   4   3   21.34    1.75
   6   4   3   18.18    1.72
  -6  -4   3   21.30    1.71
   6   4   3   20.28    1.70
   6   4   3   20.28    1.70
  -6  -4   3   21.30    1.71
  -6   4   4    9.96    0.95
  -6   4   4    9.96    0.95
   6  -4   4   11.24    1.03
   6  -4   4   11.24    1.03
   6   4   4    9.85    0.93
   6   4   4    9.85    0.93
   6   4   4    9.68    1.03
  -6  -4   4    8.70    0.89
   6   4   4    9.68    1.03
  -6  -4   4    8.70    0.89
  -6   4   5   10.79    0.97
  -6   4   5    9.40    1.01
   6  -4   5   10.00    1.16
  -6   4   5    9.40    1.01
   6  -4   5   10.00    1.16
  -6   4   5   10.79    0.97
   6  -4   5    9.24    0.97
   6  -4   5    9.51    0.92
   6  -4   5    9.24    0.97
   6  -4   5    9.51    0.92
  -6  -4   5   11.76    1.38
   6   4   5    9.56    1.01
  -6  -4   5   11.14    0.98
   6   4   5   11.56    0.95
  -6  -4   5   11.76    1.38
   6   4   5    8.63    1.16
   6   4   5   11.56    0.95
   6   4   5    9.56    1.01
  -6  -4   5   11.14    0.98
   6   4   5    8.63    1.16
  -7  -4   0   25.31    2.23
   7  -4   0   26.15    2.24
   7   4   0   29.02    2.26
   7   4   0   29.02    2.26
  -7  -4   0   30.26    2.30
  -7  -4   0   25.31    2.23
  -7  -4   0   30.26    2.30
   7  -4   0   26.15    2.24
  -7   4   0   23.48    2.28
  -7   4   0   23.48    2.28
   7  -4   1   45.08    3.95
  -7   4   1   49.39    3.99
   7  -4   1   45.08    3.95
  -7   4   1   49.39    3.99
   7  -4   1   49.47    3.98
   7  -4   1   49.47    3.98
  -7   4  -1   50.71    3.98
  -7   4  -1   50.71    3.98
   7  -4  -1   50.56    4.01
   7   4   1   51.86    3.96
   7   4   1   41.31    3.98
  -7  -4   1   41.74    4.03
   7  -4  -1   50.56    4.01
   7   4   1   51.86    3.96
  -7  -4   1   41.74    4.03
   7   4   1   41.31    3.98
   7  -4   2   21.17    1.79
   7  -4   2   21.36    1.82
   7  -4   2   23.82    1.84
  -7   4   2   22.37    1.86
  -7   4   2   22.37    1.86
   7  -4   2   21.36    1.82
   7  -4   2   21.17    1.79
   7  -4   2   23.82    1.84
   7   4   2   19.65    1.82
   7   4   2   20.35    1.82
   7   4   2   20.35    1.82
   7   4   2   19.65    1.82
   7  -4   3   28.57    2.57
  -7   4   3   32.69    2.60
  -7   4   3   32.69    2.60
   7  -4   3   31.34    2.55
  -7   4   3   30.51    2.61
   7  -4   3   31.34    2.55
  -7   4   3   30.51    2.61
   7  -4   3   28.57    2.57
   7   4   3   28.61    2.60
   7   4   3   29.82    2.59
   7   4   3   29.82    2.59
  -7  -4   3   30.55    2.58
   7   4   3   28.61    2.60
  -7  -4   3   30.55    2.58
   7  -4   4   12.46    1.31
  -7   4   4   13.94    1.24
   7  -4   4   12.46    1.31
  -7   4   4   13.94    1.24
  -7  -4   4   12.32    1.20
   7   4   4   14.04    1.29
  -7  -4   4   12.32    1.20
   7   4   4   13.70    1.21
   7   4   4   13.70    1.21
   7   4   4   14.04    1.29
   7  -4   5   13.15    1.54
   7  -4   5   13.93    1.35
   7  -4   5   15.38    1.31
  -7   4   5   13.96    1.39
   7  -4   5   13.15    1.54
  -7   4   5   12.08    1.35
  -7   4   5   13.96    1.39
  -7   4   5   12.08    1.35
   7  -4   5   13.93    1.35
   7  -4   5   15.38    1.31
  -7  -4   5   15.13    1.35
   7   4   5   17.46    1.38
   7   4   5   15.31    1.32
   7   4   5   17.46    1.38
   7   4   5   15.89    1.54
  -7  -4   5   18.92    1.76
   7   4   5   15.31    1.32
  -7  -4   5   15.13    1.35
  -7  -4   5   18.92    1.76
   7   4   5   15.89    1.54
   8  -4   0    0.68    0.13
  -8   4   0    0.15    0.17
  -8  -4   0    0.41    0.18
  -8   4   0    0.15    0.17
   8  -4   0    0.68    0.13
  -8  -4   0    0.38    0.10
   8   4   0    0.32    0.09
  -8  -4   0    0.38    0.10
  -8  -4   0    0.41    0.18
   8   4   0    0.32    0.09
  -8   4   1    2.44    0.31
   8  -4   1    3.21    0.29
   8  -4   1    2.24    0.24
   8  -4   1    3.21    0.29
   8  -4   1    2.24    0.24
  -8   4   1    2.44    0.31
   8   4   1    2.49    0.27
  -8  -4   1    2.43    0.37
   8   4   1    2.49    0.27
   8   4   1    2.50    0.24
  -8  -4   1    2.43    0.37
   8   4   1    2.50    0.24
  -8   4  -1    2.35    0.31
  -8   4  -1    2.35    0.31
   8  -4   2    0.36    0.07
  -8   4   2    0.49    0.18
   8  -4   2    0.21    0.24
  -8   4   2    0.34    0.13
   8  -4   2    0.36    0.07
  -8   4   2    0.49    0.18
  -8   4   2    0.34    0.13
   8  -4   2    0.21    0.24
  -8  -4   2    0.27    0.18
   8   4   2    0.16    0.14
   8   4   2    0.22    0.11
   8   4   2    0.22    0.11
   8   4   2    0.16    0.14
   8   4   2    0.25    0.11
   8   4   2    0.25    0.11
  -8  -4   2    0.27    0.18
   8  -4   3    1.52    0.19
  -8   4   3    1.61    0.28
  -8   4   3    1.61    0.28
  -8   4   3    1.71    0.28
   8  -4   3    1.74    0.25
   8  -4   3    1.52    0.19
  -8   4   3    1.71    0.28
   8  -4   3    1.86    0.32
   8  -4   3    1.86    0.32
   8  -4   3    1.74    0.25
   8   4   3    1.31    0.26
   8   4   3    1.31    0.26
  -8  -4   3    1.61    0.25
  -8  -4   3    1.61    0.25
   8  -4   4    0.04    0.20
  -8   4   4    0.34    0.19
   8  -4   4    0.04    0.20
   8  -4   4    0.24    0.32
  -8   4   4    0.34    0.19
  -8   4   4    0.13    0.23
  -8   4   4    0.13    0.23
   8  -4   4    0.24    0.32
   8   4   4    0.19    0.12
   8   4   4    0.34    0.21
   8   4   4    0.08    0.31
   8   4   4    0.08    0.31
   8   4   4    0.19    0.12
  -8  -4   4    0.29    0.21
   8   4   4    0.34    0.21
  -8  -4   4    0.29    0.21
  -9  -4   0    2.56    0.34
  -9  -4   0    2.17    0.27
  -9  -4   0    2.17    0.27
  -9   4   0    1.74    0.32
  -9   4   0    1.74    0.32
  -9  -4   0    2.56    0.34
  -9   4   1   38.86    3.09
  -9   4   1   38.86    3.09
   9  -4   1   32.95    3.04
   9  -4   1   39.90    3.07
   9  -4   1   32.95    3.04
   9  -4   1   39.90    3.07
  -9   4  -1   33.97    3.08
   9   4   1   36.62    3.03
  -9   4  -1   33.97    3.08
   9   4   1   36.62    3.03
   9  -4   2    2.32    0.31
  -9   4   2    2.40    0.32
   9  -4   2    2.32    0.31
  -9   4   2    2.40    0.32
   9  -4   2    2.41    0.22
   9  -4   2    2.41    0.22
   9   4   2    2.06    0.25
   9   4   2    1.48    0.25
   9   4   2    1.66    0.27
  -9  -4   2    3.16    0.39
   9   4   2    1.66    0.27
   9   4   2    2.06    0.25
   9   4   2    1.48    0.25
  -9  -4   2    3.16    0.39
  -9   4   3   21.79    1.93
  -9   4   3   21.79    1.93
   9   4   3   22.11    2.00
   9   4   3   22.12    2.00
   9   4   3   21.40    1.90
  -9  -4   3   22.59    1.91
  -9  -4   3   22.59    1.91
   9   4   3   21.40    1.90
   9  -4   4    1.67    0.44
  -9   4   4    1.40    0.29
  -9   4   4    2.29    0.37
  -9   4   4    1.40    0.29
   9  -4   4    1.67    0.44
  -9   4   4    2.29    0.37
   9   4   4    1.68    0.27
   9   4   4    1.61    0.30
  -9  -4   4    1.80    0.33
   9   4   4    1.78    0.40
   9   4   4    1.68    0.27
   9   4   4    1.61    0.30
   9   4   4    1.78    0.40
  -9  -4   4    1.80    0.33
 -10   4   0   72.99    6.55
 -10  -4   0   82.87    6.57
 -10  -4   0   82.87    6.57
 -10   4   0   72.99    6.55
  10  -4   1   21.23    1.88
  10  -4   1   21.23    1.88
 -10   4  -1   22.25    1.94
  10   4   1   25.12    1.91
  10   4   1   25.12    1.91
 -10  -4   1   20.20    2.00
 -10   4  -1   22.25    1.94
 -10  -4   1   20.20    2.00
  10  -4   2   67.30    5.43
 -10   4   2   73.80    5.49
  10  -4   2   67.23    5.43
 -10   4   2   73.80    5.49
 -10  -4   2   67.73    5.51
 -10  -4   2   67.73    5.51
  10   4   2   55.41    5.43
  10   4   2   55.41    5.43
  10   4   2   62.59    5.46
  10   4   2   62.59    5.46
  10  -4   3   15.62    1.23
  10  -4   3   15.63    1.23
 -10   4   3   13.18    1.31
 -10   4   3   13.18    1.31
 -10  -4   3   15.38    1.30
  10   4   3   13.17    1.28
 -10  -4   3   15.38    1.30
  10   4   3   13.17    1.28
  10   4   3   13.57    1.27
  10   4   3   13.57    1.27
  10  -4   4   32.76    3.01
  10  -4   4   32.76    3.01
 -10   4   4   34.10    3.10
  10  -4   4   34.87    3.13
 -10   4   4   34.10    3.10
  10  -4   4   34.87    3.13
 -10  -4   4   38.05    3.08
  10   4   4   37.69    3.04
  10   4   4   37.69    3.04
  10   4   4   37.06    3.05
 -10  -4   4   38.05    3.08
  10   4   4   35.66    3.11
  10   4   4   37.06    3.05
  10   4   4   35.66    3.11
 -11   4   0  123.04   10.61
 -11   4   0  123.04   10.61
 -11  -4   0  130.40   10.54
 -11  -4   0  130.40   10.54
  11  -4   1  179.12   14.63
  11  -4   1  179.12   14.63
 -11   4  -1  173.35   14.69
 -11   4  -1  173.35   14.69
 -11   4   2  138.13   10.00
 -11   4   2  138.13   10.00
  11  -4   2  130.30    9.98
  11  -4   2  114.09    9.94
  11  -4   2  130.30    9.98
  11  -4   2  114.09    9.94
  11   4   2  110.49    9.98
  11   4   2  110.49    9.98
 -11   4  -2  113.81    9.99
 -11   4  -2  113.81    9.99
 -11  -4   2  125.57   10.02
 -11  -4   2  125.57   10.02
  11   4   2  110.03    9.94
  11   4   2  110.03    9.94
  11   4   2  115.84    9.97
  11   4   2  115.84    9.97
  11  -4   3  141.24   11.06
 -11   4   3  123.93   11.12
  11  -4   3  133.21   11.12
  11  -4   3  141.24   11.06
 -11   4   3  123.93   11.12
  11  -4   3  133.21   11.12
 -11  -4   3  145.98   11.12
  11   4   3  119.59   11.08
  11   4   3  119.59   11.08
 -11  -4   3  145.98   11.12
  11   4   3  134.43   11.09
  11   4   3  134.43   11.09
  11  -4   4   70.11    5.87
 -11   4   4   68.77    5.96
  11  -4   4   70.11    5.87
  11  -4   4   67.48    5.96
  11  -4   4   67.48    5.96
 -11   4   4   68.77    5.96
  11   4   4   70.70    5.90
  11   4   4   70.70    5.90
  11   4   4   64.88    5.93
 -11  -4   4   79.11    5.95
  11   4   4   64.88    5.93
 -11  -4   4   79.11    5.95
 -12   4   0    6.14    0.78
 -12   4   0    6.14    0.78
 -12  -4   0    6.69    0.79
 -12  -4   0    6.69    0.79
  12  -4   1    0.42    0.14
  12  -4   1    0.42    0.14
 -12   4   1    0.43    0.24
 -12  -4  -1    0.53    0.26
 -12  -4  -1    0.53    0.26
 -12   4   1    0.43    0.24
 -12  -4   1    0.67    0.31
 -12   4  -1    0.09    0.26
 -12   4  -1    0.09    0.26
 -12  -4   1    0.67    0.31
 -12   4   2    7.43    0.65
  12  -4   2    5.67    0.54
 -12   4   2    7.43    0.65
  12  -4   2    5.86    0.61
  12  -4   2    5.86    0.61
  12  -4   2    5.67    0.54
 -12   4  -2    4.90    0.69
 -12   4  -2    4.90    0.69
 -12  -4   2    6.50    0.72
  12   4   2    4.95    0.55
  12   4   2    4.95    0.55
 -12  -4   2    6.50    0.72
  12  -4   3    0.10    0.22
 -12   4   3   -0.03    0.24
  12  -4   3    0.10    0.22
 -12   4   3   -0.03    0.24
  12   4   3    0.19    0.20
 -12  -4   3    0.24    0.21
  12   4   3    0.19    0.20
 -12  -4   3    0.24    0.21
  12  -4   4    2.48    0.35
 -12   4   4    2.57    0.49
  12  -4   4    2.10    0.51
 -12   4   4    2.57    0.49
  12  -4   4    2.10    0.51
  12  -4   4    2.48    0.35
 -12  -4   4    2.95    0.48
  12   4   4    2.59    0.49
  12   4   4    3.13    0.39
  12   4   4    3.13    0.39
  12   4   4    2.59    0.49
 -12  -4   4    2.95    0.48
 -13   4   0    6.25    0.90
 -13   4   0    6.25    0.90
 -13  -4   0    9.65    0.95
 -13  -4   0    9.65    0.95
  13  -4   1    9.21    0.80
  13  -4   1    9.21    0.80
 -13   4   1    9.25    0.91
 -13  -4  -1    9.01    0.95
 -13   4   1    9.25    0.91
 -13  -4  -1    9.01    0.95
 -13   4  -1    7.63    0.98
 -13   4  -1    7.63    0.98
 -13  -4   1    7.49    1.00
 -13  -4   1    7.49    1.00
  13  -4   2    6.22    0.71
 -13   4   2    7.26    0.74
 -13   4   2    7.26    0.74
  13  -4   2    7.06    0.64
  13  -4   2    6.22    0.71
  13  -4   2    7.06    0.64
 -13  -4   2    7.38    0.83
 -13   4  -2    6.15    1.07
 -13   4  -2    6.15    1.07
 -13  -4   2    7.38    0.83
  13  -4   3    7.36    0.65
  13  -4   3    7.36    0.65
 -13   4   3    6.86    0.80
  13  -4   3    7.33    0.79
 -13   4   3    6.86    0.80
  13  -4   3    7.33    0.79
 -13  -4   3    7.47    0.78
  13   4   3    6.19    0.69
  13   4   3    6.18    0.69
 -13  -4   3    7.47    0.78
  13   4   3    6.79    0.71
  13   4   3    6.79    0.71
 -14   4   0    0.73    0.39
 -14   4   0    0.73    0.39
 -14   4   1    0.23    0.27
  14  -4   1    0.54    0.18
  14  -4   1    0.54    0.18
 -14  -4  -1    0.06    0.33
 -14   4   1    0.23    0.27
 -14  -4  -1    0.06    0.33
 -14  -4   1   -0.41    0.32
 -14   4  -1    0.19    0.41
 -14  -4   1   -0.41    0.32
 -14   4  -1    0.19    0.41
  14  -4   2    1.22    0.21
 -14   4   2    1.26    0.31
 -14  -4  -2    0.44    0.38
 -14   4   2    1.26    0.31
 -14  -4  -2    0.44    0.38
  14  -4   2    1.22    0.21
 -14  -4   2    0.82    0.35
 -14   4  -2    0.82    0.48
 -14   4  -2    0.82    0.48
 -14  -4   2    0.82    0.35
 -14   4   3    0.33    0.29
  14  -4   3    0.29    0.17
 -14   4   3    0.33    0.29
  14  -4   3    0.29    0.17
  14  -4   3    0.23    0.30
  14  -4   3    0.23    0.30
  14   4   3    0.73    0.29
  14   4   3    0.73    0.29
 -14   4  -3   -0.03    0.53
  14   4   3    0.01    0.17
 -14   4  -3   -0.03    0.53
  14   4   3    0.01    0.17
 -14  -4   3    0.08    0.28
 -14  -4   3    0.08    0.28
 -15  -4   0   47.94    4.87
 -15   4   0   64.92    4.89
 -15   4   0   64.92    4.89
 -15  -4   0   47.94    4.87
 -15   4   1   29.89    2.54
  15  -4   1   32.95    2.44
  15  -4   1   32.97    2.44
 -15  -4  -1   24.78    2.57
 -15  -4  -1   24.78    2.57
 -15   4   1   29.89    2.54
 -15  -4   1   24.26    2.58
 -15   4  -1   27.66    2.63
 -15   4  -1   27.66    2.63
 -15  -4   1   24.26    2.58
 -15   4   2   52.21    4.10
 -15  -4  -2   45.21    4.15
 -15  -4  -2   45.21    4.15
 -15   4   2   52.21    4.10
  15   4   2   42.20    4.05
 -15  -4   2   52.95    4.14
 -15   4  -2   46.53    4.20
  15   4   2   42.20    4.05
 -15   4  -2   46.53    4.20
 -15  -4   2   52.95    4.14
 -16  -4   0   19.87    2.16
 -16   4   0   26.12    2.32
 -16   4   0   26.12    2.32
 -16  -4   0   19.87    2.16
  16  -4   1    2.53    0.36
 -16   4   1    1.40    0.44
 -16  -4  -1    2.27    0.59
 -16   4   1    1.40    0.44
  16  -4   1    2.53    0.36
 -16  -4  -1    2.27    0.59
 -16  -4   1    1.97    0.55
 -16  -4   1    1.97    0.55
 -16   4  -1    2.32    0.69
 -16   4  -1    2.32    0.69
 -16  -4  -2   17.13    1.88
 -16   4   2   20.80    1.75
 -16  -4  -2   17.13    1.88
 -16   4   2   20.80    1.75
  16   4   2   16.33    1.67
 -16   4  -2   18.90    2.05
  16   4   2   16.33    1.67
 -16  -4   2   21.28    1.81
 -16   4  -2   18.90    2.05
 -16  -4   2   21.28    1.81
 -17  -4   0   23.06    2.28
 -17  -4   0   23.06    2.28
 -17   4   1   52.12    4.17
 -17  -4  -1   44.33    4.24
 -17   4   1   52.12    4.17
 -17  -4  -1   44.33    4.24
 -17   4  -1   47.15    4.30
 -17  -4   1   47.67    4.23
 -17   4  -1   47.15    4.30
 -17  -4   1   47.67    4.23
   0  -5   0   -0.10    0.04
   0   5   0   -0.14    0.04
   0  -5   0   -0.12    0.03
   0   5   0   -0.14    0.04
   0  -5   0   -0.10    0.04
   0  -5   0   -0.12    0.03
   0   5   0   -0.20    0.06
   0   5   0   -0.20    0.06
   0   5  -1   -0.04    0.06
   0  -5   1   -0.14    0.04
   0   5  -1   -0.14    0.07
   0   5  -1   -0.14    0.07
   0  -5   1   -0.10    0.05
   0   5   1   -0.18    0.05
   0  -5   1   -0.10    0.05
   0  -5   1   -0.12    0.04
   0  -5  -1   -0.10    0.08
   0   5  -1   -0.08    0.06
   0  -5   1   -0.14    0.04
   0   5  -1   -0.14    0.02
   0   5  -1   -0.04    0.06
   0  -5  -1   -0.17    0.06
   0   5   1   -0.16    0.03
   0   5  -1   -0.08    0.06
   0   5  -1   -0.14    0.02
   0   5   1   -0.15    0.04
   0   5   1   -0.16    0.03
   0  -5  -1   -0.17    0.06
   0   5   1   -0.15    0.04
   0  -5  -1   -0.10    0.08
   0   5   1   -0.18    0.05
   0  -5   1   -0.12    0.04
   0   5   2   -0.06    0.04
   0  -5   2   -0.02    0.04
   0  -5   2   -0.10    0.09
   0  -5   2   -0.10    0.07
   0   5   2   -0.06    0.04
   0   5   2   -0.15    0.08
   0   5  -2   -0.14    0.10
   0   5  -2   -0.14    0.10
   0  -5   2   -0.02    0.11
   0  -5   2   -0.10    0.07
   0  -5  -2   -0.14    0.06
   0  -5   2   -0.10    0.09
   0  -5   2   -0.02    0.11
   0   5   2   -0.15    0.08
   0  -5   2   -0.02    0.04
   0  -5  -2   -0.14    0.06
   0   5   3    0.02    0.05
   0  -5   3    0.00    0.11
   0  -5   3    0.11    0.10
   0  -5   3    0.00    0.11
   0   5  -3    0.04    0.12
   0  -5   3    0.00    0.06
   0   5   3   -0.03    0.11
   0   5  -3    0.04    0.12
   0  -5   3    0.00    0.06
   0  -5   3    0.11    0.10
   0   5   3    0.02    0.05
   0   5   3   -0.03    0.11
   0  -5   4    0.13    0.25
   0  -5  -4    0.10    0.07
   0  -5  -4    0.10    0.07
   0   5   4    0.24    0.18
   0   5   4    0.24    0.18
   0  -5   4    0.13    0.25
   0   5   5    0.06    0.21
   0   5   5   -0.06    0.11
   0   5   5   -0.06    0.11
   0  -5   5   -0.07    0.20
   0  -5   5   -0.07    0.20
   0  -5   5    0.27    0.17
   0   5   5   -0.09    0.23
   0  -5   5   -0.50    0.40
   0  -5   5   -0.50    0.40
   0  -5   5    0.27    0.17
   0   5   5   -0.09    0.23
   0   5   5    0.06    0.21
   1   5   0   41.83    3.91
   1   5   0   41.83    3.91
   1  -5   0   45.82    3.90
   1  -5   0   44.56    3.93
   1   5   0   50.53    3.90
   1  -5   0   50.92    3.91
   1  -5   0   45.82    3.90
  -1   5   0   44.00    3.91
   1  -5   0   44.56    3.93
  -1   5   0   44.00    3.91
  -1  -5   0   50.86    3.91
  -1  -5   0   45.33    3.91
   1   5   0   50.53    3.90
  -1   5   0   46.46    3.91
  -1  -5   0   45.33    3.91
   1  -5   0   50.92    3.91
  -1   5   0   49.34    3.91
  -1   5   0   49.34    3.91
  -1  -5   0   50.86    3.91
  -1   5   0   46.46    3.91
   1  -5   1  106.72    8.78
  -1   5   1  111.36    8.77
  -1   5   1   95.58    8.76
   1  -5   1  100.96    8.77
  -1   5   1   95.28    8.76
   1  -5   1  114.90    8.78
   1   5  -1  113.57    8.76
   1   5  -1  111.48    8.77
   1  -5   1  114.90    8.78
  -1   5   1  111.36    8.77
   1   5  -1  111.48    8.77
   1   5  -1  103.19    8.77
   1   5  -1  113.57    8.76
   1   5  -1  103.19    8.77
   1  -5   1  106.72    8.78
   1  -5   1  100.96    8.77
  -1  -5   1  111.39    8.77
  -1  -5   1  111.39    8.77
  -1  -5   1   91.00    8.75
   1   5   1   98.33    8.76
   1   5   1  108.69    8.77
   1   5   1  108.69    8.77
  -1  -5   1  105.96    8.75
  -1  -5   1   91.00    8.75
  -1  -5   1  105.96    8.75
   1   5   1   98.33    8.76
  -1   5   2   35.33    2.70
  -1   5   2   34.77    2.67
   1  -5   2   26.26    2.70
   1  -5   2   26.26    2.70
   1  -5   2   32.56    2.69
   1  -5   2   32.29    2.70
   1  -5   2   32.29    2.70
   1  -5   2   32.56    2.69
  -1   5   2   34.77    2.67
  -1   5   2   35.33    2.70
  -1  -5   2   32.26    2.71
  -1  -5   2   28.55    2.70
  -1  -5   2   28.55    2.70
   1   5   2   32.64    2.67
   1   5   2   32.64    2.67
  -1  -5   2   32.26    2.71
   1  -5   3   65.78    4.98
  -1   5   3   49.98    4.96
  -1   5   3   63.91    4.99
  -1   5   3   63.91    4.99
   1  -5   3   65.77    4.98
   1  -5   3   58.57    5.01
   1  -5   3   58.57    5.01
  -1   5   3   49.98    4.96
  -1  -5   3   60.42    5.00
   1   5   3   54.15    4.98
  -1  -5   3   67.65    5.06
   1   5   3   57.18    4.99
  -1  -5   3   67.65    5.06
   1   5   3   54.15    4.98
  -1  -5   3   58.62    4.94
  -1  -5   3   60.42    5.00
  -1  -5   3   58.62    4.94
  -1  -5   3   59.80    5.01
   1   5   3   57.18    4.99
  -1  -5   3   59.80    5.01
  -1   5   4   15.22    1.38
   1  -5   4   14.58    1.46
  -1   5   4   15.22    1.38
   1  -5   4   14.58    1.46
   1   5   4   14.74    1.34
   1   5   4   15.45    1.39
  -1  -5   4   15.49    1.49
  -1  -5   4   15.49    1.49
  -1  -5   4   17.08    1.39
   1   5   4   14.74    1.34
   1   5   4   15.45    1.39
  -1  -5   4   17.08    1.39
  -1   5   5   24.02    2.18
  -1   5   5   21.99    2.18
   1  -5   5   24.29    2.20
   1  -5   5   24.29    2.20
   1  -5   5   29.08    2.26
   1  -5   5   28.13    2.37
  -1   5   5   21.99    2.18
  -1   5   5   25.43    2.23
   1  -5   5   29.08    2.26
  -1   5   5   24.02    2.18
   1  -5   5   28.13    2.37
  -1   5   5   25.43    2.23
  -1  -5   5   23.25    2.22
   1   5   5   25.26    2.19
  -1  -5   5   23.25    2.22
   1   5   5   25.13    2.23
  -1  -5   5   30.32    2.29
   1   5   5   25.26    2.19
  -1  -5   5   30.32    2.29
   1   5   5   25.13    2.23
   2  -5   0   32.03    2.51
   2  -5   0   32.03    2.51
   2   5   0   32.54    2.52
  -2  -5   0   29.06    2.52
   2   5   0   32.54    2.52
  -2  -5   0   27.97    2.52
  -2  -5   0   27.97    2.52
   2   5   0   34.63    2.51
   2  -5   0   30.94    2.53
  -2  -5   0   29.06    2.52
   2   5   0   34.63    2.51
  -2   5   0   27.21    2.50
  -2   5   0   27.21    2.50
   2  -5   0   30.94    2.53
   2  -5   0   27.05    2.53
   2  -5   0   27.05    2.53
   2  -5   1   83.45    6.48
  -2   5   1   74.51    6.46
   2   5  -1   88.42    6.47
  -2   5   1   68.52    6.49
  -2   5   1   77.49    6.49
   2  -5   1   82.06    6.48
  -2   5   1   74.51    6.46
  -2  -5  -1   77.28    6.46
  -2  -5  -1   77.28    6.46
  -2   5   1   68.52    6.49
   2   5  -1   88.42    6.47
   2  -5   1   82.06    6.48
   2  -5   1   83.45    6.48
  -2   5   1   77.49    6.49
   2   5   1   82.47    6.46
   2   5   1   75.53    6.47
  -2  -5   1   84.64    6.47
   2  -5  -1   72.70    6.48
  -2  -5   1   72.45    6.49
  -2  -5   1   72.45    6.49
   2   5   1   75.53    6.47
   2  -5  -1   72.70    6.48
   2   5   1   81.37    6.48
  -2  -5   1   69.45    6.47
   2   5   1   81.37    6.48
   2   5   1   82.47    6.46
  -2  -5   1   84.64    6.47
  -2  -5   1   69.45    6.47
  -2   5   2   20.79    1.84
   2  -5   2   22.68    1.84
   2  -5   2   23.48    1.85
   2  -5   2   23.53    1.82
   2  -5   2   22.68    1.84
   2  -5   2   23.48    1.85
   2  -5   2   23.53    1.82
  -2   5   2   20.79    1.84
  -2  -5   2   20.90    1.81
   2   5   2   23.20    1.82
   2  -5  -2   20.09    1.81
   2  -5  -2   20.09    1.81
   2   5   2   23.19    1.82
  -2   5  -2   19.44    1.79
  -2  -5   2   19.14    1.84
  -2  -5   2   20.35    1.85
  -2  -5   2   20.90    1.81
   2   5   2   20.01    1.83
  -2   5  -2   19.44    1.79
  -2  -5   2   22.98    1.81
  -2  -5   2   22.37    1.80
  -2  -5   2   22.98    1.81
  -2  -5   2   20.35    1.85
  -2  -5   2   22.37    1.80
  -2  -5   2   19.14    1.84
   2   5   2   20.01    1.83
   2  -5   3   46.92    4.08
  -2   5   3   46.35    4.07
  -2   5   3   53.96    4.05
  -2   5   3   46.35    4.07
   2  -5   3   42.91    4.09
   2  -5   3   42.91    4.09
  -2   5   3   53.96    4.05
   2  -5   3   46.92    4.08
  -2  -5   3   40.74    4.08
  -2  -5   3   52.69    4.02
  -2  -5   3   40.74    4.08
  -2  -5   3   52.69    4.02
   2  -5  -3   56.09    4.02
  -2  -5   3   42.56    4.09
   2   5   3   46.00    4.07
  -2  -5   3   48.80    4.03
   2   5   3   46.00    4.07
  -2  -5   3   50.35    4.02
  -2  -5   3   42.56    4.09
   2   5   3   43.96    4.02
   2   5   3   43.96    4.02
  -2  -5   3   54.45    4.11
   2  -5  -3   56.09    4.02
  -2  -5   3   54.45    4.11
  -2  -5   3   48.80    4.03
  -2  -5   3   50.35    4.02
  -2   5   4   12.28    1.15
  -2   5   4   12.28    1.15
   2  -5   4   14.02    1.17
   2  -5   4   12.96    1.23
   2  -5   4   12.96    1.23
   2  -5   4   14.02    1.17
  -2  -5   4   14.11    1.30
   2   5   4   12.03    1.15
   2   5   4   11.99    1.09
  -2  -5   4   11.87    1.16
   2   5   4   12.03    1.15
  -2  -5   4   14.11    1.30
  -2  -5   4   11.87    1.16
   2   5   4   11.99    1.09
   2  -5   5   23.11    2.16
  -2   5   5   23.90    2.03
   2  -5   5   22.41    2.04
  -2   5   5   23.90    2.03
   2  -5   5   22.26    1.99
  -2   5   5   25.51    1.99
   2  -5   5   22.41    2.04
   2  -5   5   23.11    2.16
   2  -5   5   22.26    1.99
  -2   5   5   25.51    1.99
   2   5   5   21.84    2.03
  -2  -5   5   25.04    2.08
  -2  -5   5   19.87    2.02
  -2  -5   5   19.87    2.02
  -2  -5   5   25.04    2.08
  -2  -5   5   23.43    2.21
   2   5   5   21.84    2.03
   2   5   5   21.96    2.16
  -2  -5   5   23.43    2.21
   2   5   5   21.96    2.16
   3  -5   0   46.84    4.16
  -3  -5   0   50.60    4.17
   3  -5   0   47.60    4.18
  -3  -5   0   50.60    4.17
  -3   5   0   52.47    4.17
  -3  -5   0   45.19    4.17
   3  -5   0   56.32    4.18
   3  -5   0   47.60    4.18
   3   5   0   50.57    4.17
   3  -5   0   46.84    4.16
  -3   5   0   52.47    4.17
   3  -5   0   56.32    4.18
   3   5   0   50.57    4.17
  -3  -5   0   45.19    4.17
  -3  -5  -1   59.50    5.05
   3   5  -1   60.49    5.07
  -3   5   1   63.03    5.09
   3  -5   1   56.04    5.08
  -3  -5  -1   59.50    5.05
   3  -5   1   58.53    5.06
   3  -5   1   68.48    5.09
   3   5  -1   60.49    5.07
  -3   5   1   66.35    5.06
  -3   5   1   63.03    5.09
   3  -5   1   56.04    5.08
   3  -5   1   58.53    5.06
   3  -5   1   60.78    5.08
   3  -5   1   60.78    5.08
   3  -5   1   68.48    5.09
  -3   5   1   66.35    5.06
   3   5   1   58.98    5.08
  -3  -5   1   61.62    5.08
   3  -5  -1   54.42    5.07
  -3  -5   1   61.63    5.08
   3   5   1   58.98    5.08
   3  -5  -1   54.42    5.07
  -3  -5   1   61.62    5.08
  -3  -5   1   61.63    5.08
   3  -5   2   40.79    3.32
   3  -5   2   39.51    3.33
  -3   5   2   42.01    3.34
  -3   5   2   39.72    3.30
  -3   5   2   39.72    3.30
  -3   5   2   42.01    3.34
   3  -5   2   42.43    3.34
   3  -5   2   42.43    3.34
   3  -5   2   40.79    3.32
   3  -5   2   39.51    3.33
  -3  -5   2   41.25    3.30
  -3  -5   2   35.75    3.34
  -3   5  -2   35.05    3.28
  -3  -5   2   41.25    3.30
  -3   5  -2   35.05    3.28
   3   5   2   40.49    3.32
   3   5   2   36.63    3.33
  -3  -5   2   40.98    3.32
  -3  -5   2   40.98    3.32
   3   5   2   36.63    3.33
   3   5   2   40.49    3.32
  -3  -5   2   35.75    3.34
   3  -5   3   29.96    2.43
   3  -5   3   32.42    2.39
   3  -5   3   29.54    2.46
   3  -5   3   29.54    2.46
   3  -5   3   29.96    2.43
  -3   5   3   26.89    2.42
  -3   5   3   26.89    2.42
   3  -5   3   32.42    2.39
  -3  -5   3   27.98    2.38
  -3  -5   3   27.13    2.46
  -3  -5   3   27.16    2.39
   3   5   3   24.79    2.39
   3   5   3   28.88    2.42
  -3  -5   3   27.16    2.39
   3   5   3   28.88    2.42
  -3  -5   3   27.13    2.46
   3   5   3   24.79    2.39
  -3  -5   3   27.98    2.38
  -3   5   4   23.43    2.09
  -3   5   4   23.43    2.09
   3  -5   4   22.09    2.16
   3  -5   4   22.09    2.16
   3   5   4   23.92    2.08
  -3  -5   4   25.31    2.19
   3   5   4   23.92    2.08
   3   5   4   23.03    2.09
  -3  -5   4   26.01    2.03
   3   5   4   23.03    2.09
  -3  -5   4   25.31    2.19
  -3  -5   4   26.01    2.03
  -3   5   5    7.80    0.78
   3  -5   5    7.21    0.79
   3  -5   5    6.85    0.70
  -3   5   5    7.59    0.70
   3  -5   5    6.85    0.70
  -3   5   5    7.59    0.70
  -3   5   5    7.80    0.78
   3  -5   5    7.50    0.99
   3  -5   5    7.50    0.99
   3  -5   5    7.21    0.79
  -3  -5   5    7.66    0.84
  -3  -5   5    6.79    0.77
  -3  -5   5    8.94    1.06
   3   5   5    6.28    0.88
   3   5   5    6.28    0.88
   3   5   5    6.86    0.80
   3   5   5    6.86    0.80
  -3  -5   5    8.94    1.06
  -3  -5   5    6.79    0.77
  -3  -5   5    7.66    0.84
  -4   5   0    0.46    0.09
   4   5   0    0.99    0.13
   4   5   0    0.99    0.13
   4  -5   0    0.57    0.09
   4  -5   0    0.57    0.09
   4  -5   0    0.53    0.10
   4  -5   0    0.53    0.10
  -4   5   0    0.46    0.09
   4   5  -1   14.37    1.19
   4  -5   1   13.70    1.20
   4  -5   1   16.40    1.17
   4  -5   1   16.40    1.17
  -4   5   1   13.69    1.21
  -4  -5  -1   13.81    1.17
  -4  -5  -1   13.81    1.17
  -4   5   1   15.97    1.19
   4  -5   1   11.80    1.20
   4  -5   1   11.80    1.20
   4   5  -1   14.37    1.19
   4  -5   1   12.91    1.21
  -4   5   1   15.98    1.19
   4  -5   1   13.70    1.20
   4  -5   1   12.91    1.21
  -4   5   1   13.69    1.21
  -4  -5   1   13.54    1.20
   4  -5  -1   15.49    1.20
   4   5   1   13.37    1.21
   4   5   1   13.37    1.21
   4  -5  -1   15.49    1.20
  -4  -5   1   13.54    1.20
  -4  -5   1   12.49    1.22
  -4  -5   1   12.49    1.22
   4  -5   2    0.28    0.09
  -4   5   2    0.38    0.15
  -4   5   2    0.45    0.09
  -4   5   2    0.38    0.15
  -4   5   2    0.45    0.09
   4  -5   2    0.41    0.12
   4  -5   2    0.54    0.09
   4  -5   2    0.54    0.09
   4  -5   2    0.41    0.12
   4  -5   2    0.32    0.11
   4  -5   2    0.32    0.11
   4  -5   2    0.28    0.09
  -4  -5   2    0.58    0.17
   4  -5  -2    0.57    0.10
  -4  -5   2    0.59    0.16
  -4  -5   2    0.59    0.16
   4  -5  -2    0.57    0.10
  -4   5  -2    0.34    0.07
   4   5   2    0.32    0.12
   4   5   2    0.47    0.10
  -4  -5   2    0.58    0.17
   4   5   2    0.32    0.12
   4   5   2    0.47    0.10
  -4   5  -2    0.34    0.07
   4  -5   3    9.58    0.85
   4  -5   3    9.45    0.93
   4  -5   3    9.58    0.85
  -4   5   3    9.80    0.91
   4  -5   3    9.45    0.93
  -4   5   3    9.80    0.91
   4  -5   3    8.91    0.89
   4  -5   3    8.91    0.89
  -4  -5   3   11.25    0.83
  -4  -5   3   11.26    0.92
  -4  -5   3   11.25    0.83
   4   5   3    8.96    0.86
  -4  -5   3    8.48    0.95
  -4  -5   3    8.11    0.85
   4   5   3    8.96    0.86
   4   5   3    9.17    0.90
  -4  -5   3   11.26    0.92
   4  -5  -3   11.03    0.84
  -4  -5   3    8.48    0.95
  -4  -5   3    8.11    0.85
   4   5   3    9.17    0.90
   4  -5  -3   11.03    0.84
  -4  -5  -4    0.17    0.16
  -4   5   4   -0.10    0.18
  -4  -5  -4    0.17    0.16
   4  -5   4    0.11    0.24
  -4   5   4    0.21    0.11
  -4   5   4   -0.10    0.18
  -4   5   4    0.21    0.11
   4  -5   4    0.11    0.24
   4   5   4    0.07    0.31
  -4  -5   4    0.57    0.34
   4   5   4    0.23    0.20
  -4  -5   4    0.57    0.34
   4   5   4    0.23    0.20
   4   5   4    0.07    0.31
   4  -5   5    5.62    0.62
   4  -5   5    4.43    0.52
  -4   5   5    4.93    0.52
  -4   5   5    4.93    0.52
   4  -5   5    4.77    0.73
   4  -5   5    5.62    0.62
  -4   5   5    5.22    0.62
   4  -5   5    4.43    0.52
  -4   5   5    5.22    0.62
   4  -5   5    4.77    0.73
   4   5   5    4.65    0.64
   4   5   5    4.74    0.73
  -4  -5   5    5.31    0.62
   4   5   5    4.86    0.51
   4   5   5    4.65    0.64
  -4  -5   5    5.31    0.62
   4   5   5    4.74    0.73
   4   5   5    4.86    0.51
   5  -5   0   38.69    3.15
   5  -5   0   37.09    3.13
  -5  -5   0   37.60    3.18
   5  -5   0   33.73    3.17
  -5  -5   0   37.60    3.18
   5  -5   0   37.09    3.13
   5   5   0   41.38    3.16
   5   5   0   41.38    3.16
   5  -5   0   33.73    3.17
   5  -5   0   38.69    3.15
  -5   5   1   24.66    2.35
   5  -5   1   25.11    2.35
   5   5  -1   30.56    2.35
   5  -5   1   30.26    2.36
  -5   5   1   24.66    2.35
   5  -5   1   25.11    2.35
   5  -5   1   28.61    2.32
   5   5  -1   30.56    2.35
   5  -5   1   28.61    2.32
   5  -5   1   30.26    2.36
  -5  -5  -1   25.06    2.33
  -5   5   1   30.98    2.36
  -5  -5  -1   25.06    2.33
  -5   5   1   30.98    2.36
   5   5   1   29.33    2.33
   5  -5  -1   30.84    2.36
   5   5   1   27.61    2.36
  -5  -5   1   23.38    2.38
   5  -5  -1   30.84    2.36
   5   5   1   27.61    2.36
   5   5   1   29.33    2.33
  -5  -5   1   23.38    2.38
   5  -5   2   28.57    2.12
   5  -5   2   25.15    2.15
  -5   5   2   27.28    2.17
   5  -5   2   28.57    2.12
  -5   5   2   27.28    2.17
   5  -5   2   27.07    2.17
   5  -5   2   27.07    2.17
   5  -5   2   25.15    2.15
   5  -5   2   21.19    2.16
   5  -5   2   21.19    2.16
  -5  -5   2   23.17    2.14
   5   5   2   22.16    2.14
  -5  -5   2   23.17    2.14
   5   5   2   29.52    2.17
   5   5   2   29.52    2.17
   5   5   2   25.14    2.17
   5   5   2   25.14    2.17
   5   5   2   22.16    2.14
   5  -5   3   16.83    1.40
  -5   5   3   14.75    1.33
   5  -5   3   16.83    1.40
   5  -5   3   14.97    1.35
   5  -5   3   16.94    1.32
   5  -5   3   14.97    1.35
  -5   5   3   14.75    1.33
   5  -5   3   16.94    1.32
   5   5   3   17.53    1.40
   5  -5  -3   14.62    1.31
   5   5   3   14.14    1.33
   5   5   3   17.53    1.40
   5   5   3   15.61    1.38
   5  -5  -3   14.62    1.31
  -5  -5   3   14.54    1.33
   5   5   3   14.14    1.33
   5   5   3   15.61    1.38
  -5  -5   3   15.62    1.31
  -5  -5   3   15.62    1.31
  -5  -5   3   14.54    1.33
   5  -5   4   12.54    1.32
   5  -5   4   12.54    1.32
   5   5   4   13.69    1.27
  -5  -5   4   14.35    1.41
  -5  -5   4   13.48    1.20
  -5  -5   4   13.48    1.20
   5   5   4   13.69    1.27
  -5  -5   4   14.35    1.41
   5   5   4   15.31    1.36
   5   5   4   15.31    1.36
   5  -5   5    7.38    0.78
   5  -5   5    7.74    0.84
   5  -5   5    7.36    1.02
  -5   5   5    8.83    0.81
   5  -5   5    7.74    0.84
   5  -5   5    7.36    1.02
  -5   5   5    8.51    0.87
   5  -5   5    7.38    0.78
  -5   5   5    8.51    0.87
  -5   5   5    8.83    0.81
   5   5   5    8.59    0.79
  -5  -5   5   10.86    1.01
   5   5   5    7.47    0.99
  -5  -5   5   10.86    1.01
   5   5   5    8.59    0.79
  -5  -5   5   10.10    0.84
  -5  -5   5   10.10    0.84
   5   5   5    7.47    0.99
  -5  -5   5    6.34    0.84
  -5  -5   5    9.40    1.21
  -5  -5   5    9.40    1.21
  -5  -5   5    6.34    0.84
   5   5   5    8.69    0.89
   5   5   5    8.69    0.89
  -6   5   0    4.46    0.46
   6   5   0    4.28    0.43
   6  -5   0    5.11    0.47
  -6  -5   0    4.66    0.47
   6  -5   0    5.11    0.47
   6  -5   0    5.04    0.41
   6  -5   0    5.04    0.41
  -6  -5   0    4.66    0.47
   6   5   0    4.28    0.43
  -6   5   0    4.46    0.46
   6  -5   1    0.65    0.12
   6   5  -1    0.65    0.11
  -6   5   1    0.67    0.14
   6   5  -1    0.65    0.11
  -6   5   1    0.67    0.14
   6  -5   1    0.63    0.15
  -6   5   1    0.59    0.12
   6  -5   1    0.65    0.12
   6  -5   1    0.69    0.07
   6  -5   1    0.50    0.11
   6  -5   1    0.69    0.07
   6  -5   1    0.63    0.15
  -6   5   1    0.59    0.12
   6  -5   1    0.50    0.11
   6   5   1    0.48    0.11
   6   5   1    0.73    0.10
  -6  -5   1    0.36    0.16
  -6   5  -1    0.69    0.12
   6   5   1    0.48    0.11
   6   5   1    0.73    0.10
   6  -5  -1    0.84    0.14
  -6   5  -1    0.69    0.12
  -6  -5   1    0.36    0.16
   6  -5  -1    0.84    0.14
   6  -5   2    3.85    0.35
  -6   5   2    4.03    0.40
  -6   5   2    4.03    0.40
  -6   5   2    2.98    0.41
   6  -5   2    3.88    0.39
   6  -5   2    3.88    0.39
  -6   5   2    2.98    0.41
   6  -5   2    4.57    0.42
   6  -5   2    4.57    0.42
   6  -5   2    3.85    0.35
   6   5   2    4.70    0.43
  -6  -5   2    4.08    0.40
   6  -5  -2    3.85    0.39
   6   5   2    3.61    0.39
   6   5   2    4.82    0.42
  -6  -5   2    4.08    0.40
   6  -5  -2    3.85    0.39
   6   5   2    4.82    0.42
   6   5   2    3.61    0.39
   6   5   2    4.70    0.43
   6  -5   3    0.64    0.10
  -6   5   3    0.64    0.14
  -6   5   3    0.59    0.20
   6  -5   3    0.55    0.22
   6  -5   3    0.55    0.22
   6  -5   3    0.64    0.10
   6  -5   3    0.41    0.15
  -6   5   3    0.64    0.14
  -6   5   3    0.59    0.20
   6  -5   3    0.41    0.15
   6   5   3    0.48    0.12
  -6  -5   3    0.61    0.15
   6   5   3    0.53    0.23
   6   5   3    0.48    0.12
  -6  -5   3    0.39    0.11
  -6  -5   3    0.39    0.11
   6   5   3    0.53    0.23
   6   5   3    0.54    0.19
  -6  -5   3    0.61    0.15
   6   5   3    0.54    0.19
   6  -5   4    2.65    0.44
  -6   5   4    1.78    0.33
   6  -5   4    2.65    0.44
  -6   5   4    1.78    0.33
   6   5   4    2.24    0.45
   6   5   4    2.45    0.36
   6   5   4    2.24    0.45
   6   5   4    2.45    0.36
  -6  -5   4    2.47    0.31
  -6  -5   4    2.47    0.31
   6   5   4    2.22    0.28
   6   5   4    2.22    0.28
  -6  -5   4    2.50    0.53
  -6  -5   4    2.50    0.53
   6  -5   5    0.25    0.15
   6  -5   5    0.51    0.25
  -6   5   5    0.36    0.27
  -6   5   5    0.36    0.27
   6  -5   5    0.25    0.15
   6  -5   5    0.35    0.43
  -6   5   5    0.34    0.17
  -6   5   5    0.34    0.17
   6  -5   5    0.35    0.43
   6  -5   5    0.51    0.25
   6   5   5    0.14    0.39
  -6  -5   5    0.25    0.26
  -6  -5   5    0.30    0.36
   6   5   5    0.47    0.30
  -6  -5   5    0.65    0.57
  -6  -5   5    0.30    0.36
   6   5   5    0.42    0.14
   6   5   5    0.42    0.14
  -6  -5   5    0.25    0.26
   6   5   5    0.14    0.39
   6   5   5    0.47    0.30
  -6  -5   5    0.65    0.57
   7   5   0   17.07    1.43
  -7  -5   0   16.23    1.46
   7  -5   0   16.97    1.41
   7   5   0   17.07    1.43
  -7  -5   0   16.23    1.46
   7  -5   0   16.97    1.41
   7  -5   0   16.51    1.46
   7  -5   0   16.51    1.46
   7  -5   1    8.28    0.75
   7  -5   1    8.28    0.75
   7  -5   1    8.20    0.79
  -7   5   1    8.41    0.80
   7  -5   1   10.08    0.84
   7  -5   1   10.08    0.84
   7  -5   1    8.20    0.79
  -7   5   1    8.41    0.80
   7   5   1    9.86    0.76
   7   5   1    9.86    0.76
  -7  -5   1    7.50    0.85
  -7   5  -1   10.63    0.80
  -7  -5   1    7.50    0.85
  -7   5  -1   10.63    0.80
   7  -5  -1    9.05    0.81
   7  -5  -1    9.05    0.81
   7   5   1    8.02    0.79
   7   5   1    8.02    0.79
  -7   5   2   13.44    1.14
   7  -5   2   13.55    1.08
   7  -5   2   12.22    1.11
   7  -5   2   13.55    1.08
   7  -5   2   12.22    1.11
  -7   5   2   11.28    1.15
  -7   5   2   11.28    1.15
  -7   5   2   13.44    1.14
   7  -5  -2   12.86    1.12
   7   5   2   13.51    1.12
   7   5   2   12.01    1.16
   7   5   2   12.36    1.11
   7   5   2   12.01    1.16
   7  -5  -2   12.86    1.12
   7   5   2   13.51    1.12
   7   5   2   12.36    1.11
   7  -5   3    6.44    0.61
   7  -5   3    6.44    0.61
   7  -5   3    6.75    0.73
  -7   5   3    8.16    0.68
  -7   5   3    8.16    0.68
  -7   5   3    7.83    0.72
   7  -5   3    6.75    0.73
  -7   5   3    7.83    0.72
   7  -5   3    6.62    0.66
   7  -5   3    6.62    0.66
  -7  -5   3    6.72    0.66
   7   5   3    6.57    0.65
   7   5   3    7.00    0.70
   7   5   3    7.26    0.71
  -7  -5   3    6.72    0.66
   7   5   3    6.57    0.65
   7   5   3    7.00    0.70
   7   5   3    7.26    0.71
  -7   5   4    8.61    0.81
  -7   5   4    8.61    0.81
   7  -5   4   10.30    0.98
   7  -5   4   10.30    0.98
  -7   5   4    8.08    0.88
  -7   5   4    8.08    0.88
   7   5   4    8.35    0.94
  -7  -5   4    8.48    1.05
  -7  -5   4    8.02    0.81
   7   5   4    8.23    0.85
  -7  -5   4    8.02    0.81
  -7  -5   4    8.48    1.05
   7   5   4    8.23    0.85
   7   5   4    8.35    0.94
   7  -5   5    4.50    0.57
   7  -5   5    3.85    0.48
  -7   5   5    4.14    0.63
   7  -5   5    4.63    0.75
  -7   5   5    4.14    0.63
  -7   5   5    4.40    0.54
   7  -5   5    4.50    0.57
   7  -5   5    4.63    0.75
  -7   5   5    4.40    0.54
   7  -5   5    3.85    0.48
   7   5   5    4.24    0.48
   7   5   5    4.56    0.64
   7   5   5    4.00    0.68
  -7  -5   5    4.93    0.83
  -7  -5   5    6.38    0.81
  -7  -5   5    4.39    0.58
   7   5   5    4.00    0.68
  -7  -5   5    4.39    0.58
  -7  -5   5    6.38    0.81
   7   5   5    4.24    0.48
   7   5   5    4.56    0.64
  -7  -5   5    4.93    0.83
   8  -5   0    2.08    0.31
   8  -5   0    2.74    0.26
   8   5   0    2.34    0.25
  -8  -5   0    2.40    0.34
  -8   5   0    1.80    0.30
  -8  -5   0    2.40    0.34
   8  -5   0    2.74    0.26
   8   5   0    2.34    0.25
  -8   5   0    1.80    0.30
   8  -5   0    2.08    0.31
   8  -5   1   19.98    1.65
   8  -5   1   18.33    1.61
   8  -5   1   18.33    1.61
  -8   5   1   20.24    1.66
  -8   5   1   20.24    1.66
   8  -5   1   19.98    1.65
  -8   5  -1   18.94    1.66
   8  -5  -1   20.07    1.68
   8  -5  -1   20.07    1.68
  -8   5  -1   18.94    1.66
   8   5   1   18.05    1.65
   8   5   1   18.05    1.65
   8  -5   2    2.97    0.34
   8  -5   2    2.30    0.24
   8  -5   2    2.30    0.24
  -8   5   2    2.68    0.36
  -8   5   2    3.69    0.37
  -8   5   2    2.68    0.36
   8  -5   2    2.97    0.34
  -8   5   2    3.69    0.37
   8   5   2    2.13    0.28
   8   5   2    2.53    0.33
  -8  -5   2    2.52    0.38
   8   5   2    2.13    0.28
   8   5   2    2.69    0.30
  -8  -5   2    2.52    0.38
   8   5   2    2.68    0.30
   8   5   2    2.53    0.33
  -8   5   3   15.15    1.25
   8  -5   3   12.74    1.15
  -8   5   3   12.33    1.22
   8  -5   3   14.68    1.26
   8  -5   3   12.74    1.15
  -8   5   3   15.15    1.25
  -8   5   3   12.33    1.22
   8  -5   3   14.68    1.26
   8   5   3   13.65    1.22
   8   5   3   13.53    1.22
  -8  -5   3   13.40    1.20
  -8  -5   3   13.40    1.20
   8   5   3   13.53    1.22
   8   5   3   13.65    1.22
  -8   5   4    3.61    0.43
   8  -5   4    2.38    0.49
   8  -5   4    2.38    0.49
  -8   5   4    2.78    0.43
  -8   5   4    3.61    0.43
  -8   5   4    2.78    0.43
   8   5   4    2.63    0.40
   8   5   4    2.63    0.40
   8   5   4    2.65    0.35
   8   5   4    2.65    0.35
  -8  -5   4    3.54    0.46
  -8  -5   4    3.54    0.46
  -9   5   0   36.26    3.18
  -9  -5   0   37.31    3.25
  -9   5   0   36.26    3.18
   9   5   0   38.14    3.16
   9   5   0   38.14    3.16
  -9  -5   0   37.31    3.25
  -9   5   1    9.46    0.82
   9  -5   1    8.88    0.76
   9  -5   1    8.88    0.76
  -9   5   1    9.46    0.82
   9  -5   1    8.89    0.84
   9  -5   1    8.89    0.84
  -9  -5   1    8.16    0.93
  -9   5  -1    8.94    0.84
  -9  -5   1    8.16    0.93
  -9   5  -1    8.94    0.84
   9  -5   2   36.47    3.06
   9  -5   2   38.23    3.11
   9  -5   2   38.23    3.11
   9  -5   2   36.47    3.06
  -9   5   2   35.20    3.11
  -9   5   2   35.20    3.11
   9   5   2   35.98    3.11
   9   5   2   33.95    3.07
  -9  -5   2   37.73    3.14
   9   5   2   35.98    3.11
  -9  -5   2   37.73    3.14
   9   5   2   39.37    3.12
   9   5   2   33.95    3.07
   9   5   2   39.37    3.12
  -9   5   3    7.25    0.77
   9  -5   3    7.02    0.78
   9  -5   3    7.02    0.78
  -9   5   3    7.25    0.77
   9  -5   3    7.55    0.67
   9  -5   3    7.55    0.67
  -9  -5   3    8.64    0.75
   9   5   3    7.39    0.75
   9   5   3    7.39    0.75
  -9  -5   3    8.64    0.75
   9  -5   4   22.74    1.91
   9  -5   4   21.50    2.05
  -9   5   4   22.06    2.00
   9  -5   4   18.86    1.95
   9  -5   4   18.86    1.95
  -9   5   4   21.97    2.02
   9  -5   4   21.50    2.05
  -9   5   4   22.07    2.00
  -9   5   4   21.97    2.02
   9  -5   4   22.74    1.91
   9   5   4   24.82    1.98
   9   5   4   26.69    2.06
  -9  -5   4   22.43    1.98
   9   5   4   26.69    2.06
  -9  -5   4   22.43    1.98
   9   5   4   22.61    1.95
   9   5   4   24.82    1.98
   9   5   4   22.61    1.95
 -10   5   0    6.50    0.69
 -10   5   0    6.50    0.69
  10  -5   1    0.50    0.15
 -10   5   1    0.97    0.26
  10  -5   1    0.49    0.10
  10  -5   1    0.49    0.10
  10  -5   1    0.50    0.15
 -10   5   1    0.97    0.26
 -10  -5   1    0.44    0.31
 -10  -5   1    0.25    0.21
 -10   5  -1    0.46    0.22
  10   5   1    0.66    0.15
 -10   5  -1    0.46    0.22
 -10  -5   1    0.25    0.21
  10   5   1    0.66    0.15
 -10  -5   1    0.44    0.31
  10  -5   2    7.97    0.67
 -10   5   2    6.27    0.66
  10  -5   2    6.96    0.59
  10  -5   2    7.97    0.67
  10  -5   2    6.96    0.59
 -10   5   2    6.27    0.66
 -10  -5   2    6.77    0.73
  10   5   2    6.58    0.65
 -10  -5   2    6.77    0.73
  10   5   2    5.85    0.60
  10   5   2    5.85    0.60
  10   5   2    6.58    0.65
  10  -5   3    0.46    0.23
 -10   5   3    0.52    0.23
  10  -5   3    0.59    0.11
  10  -5   3    0.46    0.23
  10  -5   3    0.59    0.11
 -10   5   3    0.52    0.23
 -10  -5   3    0.39    0.27
  10   5   3    0.40    0.19
 -10  -5   3    0.72    0.22
  10   5   3    0.40    0.19
 -10  -5   3    0.72    0.22
 -10  -5   3    0.39    0.27
  10  -5   4    4.44    0.44
 -10   5   4    4.30    0.64
 -10   5   4    4.30    0.64
  10  -5   4    4.03    0.62
  10  -5   4    4.03    0.62
  10  -5   4    4.44    0.44
  10   5   4    4.13    0.59
  10   5   4    5.02    0.56
  10   5   4    4.24    0.48
 -10  -5   4    4.74    0.60
  10   5   4    4.13    0.59
  10   5   4    5.02    0.56
  10   5   4    4.24    0.48
 -10  -5   4    4.74    0.60
 -11   5   0    0.19    0.23
 -11   5   0    0.19    0.23
 -11   5   1    0.87    0.23
 -11   5   1    0.87    0.23
  11  -5   1    0.84    0.13
 -11  -5  -1    0.83    0.27
 -11  -5  -1    0.83    0.27
  11  -5   1    0.84    0.13
 -11  -5   1    0.31    0.29
 -11  -5   1    0.31    0.29
 -11   5  -1    0.57    0.26
 -11   5  -1    0.57    0.26
  11   5   1    0.75    0.17
  11   5   1    0.75    0.17
 -11   5   2    0.38    0.18
 -11   5   2    0.38    0.18
  11   5   2    0.50    0.17
 -11  -5   2    0.46    0.26
  11   5   2    0.50    0.17
 -11  -5   2    0.46    0.26
  11   5   2    0.26    0.12
  11   5   2    0.26    0.12
 -11   5   3    0.52    0.24
  11  -5   3    0.99    0.28
  11  -5   3    0.99    0.28
 -11   5   3    0.52    0.24
  11   5   3    0.52    0.20
  11   5   3    0.52    0.23
 -11  -5   3    0.40    0.21
  11   5   3    0.52    0.20
 -11  -5   3    0.40    0.21
  11   5   3    0.52    0.23
  11  -5   4    0.08    0.13
  11  -5   4    0.23    0.34
 -11   5   4    0.38    0.30
  11  -5   4    0.23    0.34
  11  -5   4    0.08    0.13
 -11   5   4    0.38    0.30
  11   5   4   -0.02    0.22
  11   5   4    0.10    0.34
 -11  -5   4    0.31    0.29
  11   5   4    0.10    0.34
 -11  -5   4    0.31    0.29
  11   5   4    0.23    0.15
  11   5   4   -0.02    0.22
  11   5   4    0.23    0.15
 -12   5   0    0.45    0.30
 -12  -5   0    0.56    0.29
 -12   5   0    0.45    0.30
 -12  -5   0    0.56    0.29
  12  -5   1    0.23    0.12
  12  -5   1    0.23    0.12
 -12  -5  -1    0.29    0.25
 -12  -5  -1    0.29    0.25
 -12   5   1    0.64    0.26
 -12   5   1    0.64    0.26
 -12  -5   1    1.10    0.36
 -12   5  -1    0.22    0.28
 -12  -5   1    1.10    0.36
 -12   5  -1    0.22    0.28
  12  -5   2    0.85    0.13
 -12   5   2    0.85    0.25
  12  -5   2    0.50    0.21
  12  -5   2    0.50    0.21
 -12   5   2    0.85    0.25
  12  -5   2    0.85    0.13
  12   5   2    0.71    0.17
 -12  -5   2    0.50    0.29
  12   5   2    0.71    0.17
 -12  -5   2    0.50    0.29
 -12   5  -2    0.85    0.32
  12   5   2    0.74    0.20
 -12   5  -2    0.85    0.32
  12   5   2    0.74    0.20
 -12   5   3    0.43    0.25
  12  -5   3    0.22    0.23
  12  -5   3    0.22    0.23
  12  -5   3    0.27    0.12
 -12   5   3    0.43    0.25
  12  -5   3    0.27    0.12
 -12  -5   3    0.44    0.24
 -12  -5   3    0.44    0.24
  12   5   3    0.18    0.15
  12   5   3    0.28    0.20
  12   5   3    0.10    0.21
  12   5   3    0.10    0.21
  12   5   3    0.18    0.15
  12   5   3    0.28    0.20
 -13   5   0   10.73    1.18
 -13  -5   0   12.35    1.21
 -13  -5   0   12.35    1.21
 -13   5   0   10.73    1.18
 -13   5   1    3.51    0.46
  13  -5   1    3.10    0.34
  13  -5   1    3.10    0.34
 -13  -5  -1    2.40    0.48
 -13   5   1    3.51    0.46
 -13  -5  -1    2.40    0.48
 -13   5  -1    2.49    0.58
 -13  -5   1    2.16    0.50
 -13  -5   1    2.16    0.50
 -13   5  -1    2.49    0.58
 -13   5   2    9.11    0.89
 -13   5   2    9.11    0.89
  13  -5   2    9.43    0.79
  13  -5   2    9.43    0.79
  13  -5   2    8.11    0.87
  13  -5   2    8.11    0.87
 -13  -5   2    9.82    0.99
 -13   5  -2    6.85    1.10
 -13   5  -2    6.85    1.10
 -13  -5   2    9.82    0.99
  13  -5   3    1.30    0.34
  13  -5   3    1.52    0.23
  13  -5   3    1.30    0.34
  13  -5   3    1.52    0.23
 -13   5   3    2.37    0.40
 -13   5   3    2.37    0.40
 -13   5  -3    1.55    0.65
  13   5   3    1.55    0.30
 -13  -5   3    1.88    0.36
  13   5   3    1.53    0.27
  13   5   3    1.53    0.27
  13   5   3    1.55    0.30
 -13   5  -3    1.55    0.65
 -13  -5   3    1.88    0.36
 -14   5   0    0.24    0.39
 -14  -5   0    0.39    0.37
 -14   5   0    0.24    0.39
 -14  -5   0    0.39    0.37
  14  -5   1   50.76    3.97
 -14   5   1   49.49    4.04
 -14   5   1   49.49    4.04
 -14  -5  -1   46.60    4.09
 -14  -5  -1   46.60    4.09
  14  -5   1   50.76    3.97
 -14   5  -1   40.45    4.10
 -14   5  -1   40.45    4.10
 -14  -5  -2    0.48    0.40
 -14   5   2    0.61    0.25
 -14  -5  -2    0.48    0.40
  14  -5   2    0.50    0.16
  14  -5   2    0.50    0.16
 -14   5   2    0.61    0.25
 -14   5  -2    1.29    0.53
  14   5   2    0.58    0.22
  14   5   2    0.58    0.22
 -14  -5   2    1.41    0.39
 -14  -5   2    1.41    0.39
 -14   5  -2    1.29    0.53
  14  -5   3   29.36    2.81
  14  -5   3   29.36    2.81
 -14   5   3   32.08    2.84
 -14   5   3   32.08    2.84
  14   5   3   28.84    2.77
 -14   5  -3   30.75    3.10
  14   5   3   36.02    2.81
 -14   5  -3   30.75    3.10
 -14  -5   3   36.58    2.84
  14   5   3   36.02    2.81
 -14  -5   3   36.58    2.84
  14   5   3   28.84    2.77
 -15  -5   0   38.91    3.47
 -15  -5   0   38.91    3.47
 -15   5   1   10.28    0.98
 -15   5   1   10.28    0.98
 -15  -5  -1    7.44    1.05
  15  -5   1    9.46    0.84
 -15  -5  -1    7.44    1.05
  15  -5   1    9.46    0.84
 -15  -5   1    6.78    1.06
 -15   5  -1    8.07    1.21
 -15  -5   1    6.78    1.06
 -15   5  -1    8.07    1.21
 -15  -5  -2   44.46    3.92
 -15   5   2   44.75    3.84
 -15  -5  -2   44.46    3.92
 -15   5   2   44.75    3.84
  15   5   2   40.17    3.81
 -15  -5   2   50.70    3.90
 -15   5  -2   44.48    3.98
 -15   5  -2   44.48    3.98
  15   5   2   40.17    3.81
 -15  -5   2   50.70    3.90
 -16  -5   0    0.69    0.50
 -16   5   0    1.61    0.53
 -16   5   0    1.61    0.53
 -16  -5   0    0.69    0.50
 -16   5   1    1.82    0.42
 -16   5   1    1.82    0.42
 -16  -5  -1    1.05    0.51
 -16  -5  -1    1.05    0.51
 -16   5  -1    1.78    0.65
 -16   5  -1    1.78    0.65
 -16  -5   1    1.32    0.49
 -16  -5   1    1.32    0.49
 -16  -5  -2    0.88    0.52
 -16   5   2    0.72    0.33
 -16   5   2    0.72    0.33
 -16  -5  -2    0.88    0.52
  16   5   2    0.81    0.24
 -16   5  -2    0.14    0.73
 -16  -5   2    0.96    0.43
 -16  -5   2    0.96    0.43
  16   5   2    0.81    0.24
 -16   5  -2    0.14    0.73
 -17   5   0    0.26    0.50
 -17  -5   0   -0.10    0.49
 -17  -5   0   -0.10    0.49
 -17   5   0    0.26    0.50
   0  -6   0   54.73    4.59
   0  -6   0   50.18    4.59
   0  -6   0   54.73    4.59
   0   6   0   60.12    4.59
   0  -6   0   50.18    4.59
   0   6   0   60.12    4.59
   0  -6   1   56.51    4.91
   0   6  -1   51.41    4.91
   0   6   1   64.43    4.91
   0  -6   1   63.59    4.93
   0   6  -1   60.84    4.90
   0  -6   1   56.77    4.92
   0  -6   1   56.77    4.92
   0   6   1   52.75    4.91
   0   6   1   64.43    4.91
   0   6   1   55.78    4.90
   0   6  -1   51.41    4.91
   0   6  -1   67.25    4.89
   0  -6   1   56.51    4.91
   0   6   1   52.75    4.91
   0  -6   1   63.59    4.93
   0   6   1   55.78    4.90
   0   6  -1   60.84    4.90
   0   6  -1   67.25    4.89
   0   6   2   44.52    3.86
   0  -6   2   41.26    3.87
   0   6   2   48.16    3.84
   0   6   2   44.52    3.86
   0  -6   2   43.14    3.88
   0   6   2   48.15    3.84
   0  -6   2   51.92    3.85
   0  -6   2   51.92    3.85
   0  -6   2   43.14    3.88
   0  -6   2   41.26    3.87
   0  -6   3   29.48    2.26
   0   6   3   27.48    2.31
   0  -6   3   29.48    2.26
   0  -6   3   22.27    2.36
   0   6   3   27.48    2.31
   0  -6   3   26.35    2.31
   0  -6   3   27.41    2.33
   0  -6   3   22.27    2.36
   0  -6   3   27.41    2.33
   0  -6   3   26.35    2.31
   0  -6  -4   20.28    1.85
   0  -6   4   22.70    2.00
   0   6   4   23.89    1.93
   0   6   4   23.89    1.93
   0  -6   4   22.70    2.00
   0  -6  -4   20.28    1.85
   0  -6   5    6.98    0.98
   0  -6   5    6.98    0.98
   0   6   5    7.00    0.67
   0  -6   5    6.55    0.72
   0   6   5    6.83    0.79
   0   6   5    7.00    0.67
   0   6   5    6.83    0.79
   0  -6   5    7.57    0.78
   0  -6   5    7.57    0.78
   0  -6   5    6.55    0.72
   1  -6   0   14.09    1.12
   1   6   0   15.35    1.13
  -1  -6   0   11.84    1.13
   1  -6   0   14.09    1.12
  -1  -6   0   12.96    1.13
   1  -6   0   13.32    1.13
   1  -6   0   13.32    1.13
  -1  -6   0   12.96    1.13
   1   6   0   13.07    1.12
   1   6   0   15.35    1.13
   1   6   0   13.07    1.12
  -1  -6   0   11.84    1.13
  -1   6   0   12.93    1.13
  -1   6   0   12.93    1.13
  -1   6   1   39.59    3.92
   1  -6   1   54.43    3.93
   1  -6   1   44.74    3.92
   1  -6   1   49.49    3.93
   1   6  -1   41.02    3.93
   1  -6   1   54.43    3.93
   1   6  -1   53.26    3.92
  -1   6   1   43.95    3.90
  -1   6   1   43.95    3.90
   1   6  -1   41.02    3.93
   1  -6   1   49.49    3.93
   1   6  -1   53.26    3.92
  -1   6   1   39.59    3.92
   1  -6   1   44.74    3.92
  -1  -6   1   41.36    3.91
  -1   6  -1   46.29    3.90
  -1  -6   1   47.46    3.92
   1   6   1   46.57    3.91
   1   6   1   51.50    3.92
   1   6   1   51.50    3.92
  -1  -6   1   47.46    3.92
  -1  -6   1   41.36    3.91
  -1  -6   1   49.33    3.89
   1   6   1   48.49    3.90
  -1  -6   1   48.27    3.93
  -1   6  -1   46.29    3.90
  -1   6  -1   50.00    3.91
  -1  -6   1   49.33    3.89
   1   6   1   46.56    3.91
  -1   6  -1   41.91    3.89
  -1   6  -1   41.91    3.89
   1   6   1   48.49    3.90
  -1  -6   1   48.27    3.93
  -1   6  -1   50.00    3.91
   1  -6   2   10.70    0.90
   1  -6   2    9.97    0.89
  -1   6   2   10.57    0.89
   1  -6   2   11.38    0.87
  -1   6   2   10.57    0.89
   1  -6   2    9.97    0.89
   1  -6   2   11.38    0.87
  -1   6   2    8.89    0.85
   1  -6   2   10.70    0.90
  -1   6   2    8.89    0.85
  -1  -6   2   10.64    0.87
   1   6   2   10.31    0.86
   1   6   2   10.31    0.86
  -1  -6   2    9.01    0.90
  -1  -6   2    9.01    0.90
  -1  -6   2   10.64    0.87
  -1  -6   2    9.51    0.90
  -1  -6   2    9.51    0.90
   1   6   2    8.43    0.88
   1   6   2    8.43    0.88
   1   6   2    9.92    0.86
   1   6   2    9.92    0.86
   1  -6   3   30.38    2.31
   1  -6   3   30.96    2.33
   1  -6   3   24.99    2.26
   1  -6   3   27.35    2.34
  -1   6   3   26.72    2.30
   1  -6   3   24.99    2.26
   1  -6   3   30.38    2.31
  -1   6   3   26.72    2.30
   1  -6   3   27.35    2.34
   1  -6   3   30.96    2.33
  -1  -6   3   23.09    2.31
   1   6   3   25.38    2.30
   1  -6  -3   26.62    2.27
   1  -6  -3   26.62    2.27
  -1  -6   3   23.09    2.31
   1   6   3   25.38    2.30
   1  -6   4    6.57    0.61
  -1   6   4    6.48    0.63
   1  -6   4    6.57    0.61
   1  -6   4    5.29    0.72
   1  -6   4    5.29    0.72
  -1   6   4    6.48    0.63
  -1  -6   4    5.51    0.76
   1   6   4    6.07    0.65
   1   6   4    5.37    0.56
  -1  -6   4    5.51    0.76
   1   6   4    6.07    0.65
   1  -6  -4    6.00    0.52
   1   6   4    5.37    0.56
   1  -6  -4    6.00    0.52
  -1   6   5   13.56    1.34
   1  -6   5   12.39    1.30
   1  -6   5   16.43    1.52
   1  -6   5   12.39    1.30
   1  -6   5   16.43    1.52
   1  -6   5   14.90    1.35
  -1   6   5   13.51    1.27
   1  -6   5   14.90    1.35
  -1   6   5   13.50    1.27
  -1   6   5   13.56    1.34
  -1  -6   5   16.31    1.56
   1   6   5   14.43    1.28
   1   6   5   14.43    1.28
   1   6   5   13.65    1.33
  -1  -6   5   16.46    1.35
  -1  -6   5   16.31    1.56
  -1  -6   5   16.46    1.35
  -1  -6   5   14.57    1.38
   1   6   5   13.65    1.33
  -1  -6   5   14.57    1.38
   2   6   0   44.38    3.45
   2   6   0   47.17    3.43
  -2  -6   0   41.42    3.44
   2   6   0   47.17    3.43
  -2   6   0   37.35    3.42
  -2   6   0   35.58    3.44
   2  -6   0   45.64    3.43
  -2   6   0   37.35    3.42
  -2  -6   0   40.79    3.44
   2  -6   0   37.95    3.46
  -2  -6   0   41.42    3.44
   2  -6   0   45.64    3.43
  -2   6   0   35.58    3.44
   2  -6   0   37.95    3.46
  -2  -6   0   40.79    3.44
   2   6   0   44.38    3.45
  -2  -6  -1   42.02    3.58
   2  -6   1   45.04    3.61
  -2  -6  -1   42.02    3.58
  -2   6   1   41.23    3.58
   2   6  -1   37.85    3.58
   2  -6   1   46.68    3.61
  -2   6   1   40.40    3.61
   2  -6   1   40.75    3.60
   2  -6   1   40.75    3.60
   2   6  -1   37.85    3.58
  -2   6   1   41.23    3.58
   2  -6   1   45.04    3.61
  -2   6   1   40.40    3.61
   2  -6   1   46.68    3.61
   2   6   1   47.59    3.60
  -2  -6   1   37.02    3.59
  -2  -6   1   37.02    3.59
  -2   6  -1   44.57    3.58
  -2  -6   1   48.54    3.60
   2   6   1   42.25    3.58
   2  -6  -1   42.22    3.61
   2   6   1   47.68    3.61
  -2  -6   1   42.18    3.58
   2   6   1   47.59    3.60
   2   6   1   47.68    3.61
  -2  -6   1   42.18    3.58
   2  -6  -1   42.22    3.61
  -2   6  -1   44.57    3.58
  -2  -6   1   48.54    3.60
   2   6   1   42.25    3.58
   2  -6   2   29.48    2.38
  -2   6   2   28.54    2.38
   2  -6   2   25.07    2.37
   2  -6   2   26.29    2.36
   2  -6   2   26.29    2.36
  -2   6   2   28.54    2.38
   2  -6   2   25.07    2.37
   2  -6   2   29.48    2.38
  -2  -6   2   28.67    2.33
  -2  -6   2   26.78    2.35
  -2  -6   2   29.31    2.40
  -2  -6   2   26.78    2.35
  -2  -6   2   28.67    2.33
   2  -6  -2   29.58    2.36
  -2  -6   2   29.31    2.40
  -2  -6   2   26.41    2.38
  -2   6  -2   27.33    2.33
  -2  -6   2   29.03    2.34
   2   6   2   28.24    2.38
   2   6   2   28.46    2.36
  -2  -6   2   29.03    2.34
   2   6   2   28.46    2.36
   2   6   2   28.24    2.38
   2  -6  -2   29.58    2.36
  -2  -6   2   26.41    2.38
  -2   6  -2   27.33    2.33
   2  -6   3   29.44    2.16
   2  -6   3   21.12    2.07
   2  -6   3   23.69    2.11
  -2   6   3   24.02    2.11
   2  -6   3   28.66    2.10
   2  -6   3   21.12    2.07
   2  -6   3   23.69    2.11
   2  -6   3   28.66    2.10
   2  -6   3   29.44    2.16
  -2   6   3   24.02    2.11
   2   6   3   27.44    2.08
   2   6   3   27.44    2.08
   2   6   3   20.89    2.10
   2  -6  -3   22.06    2.05
   2  -6  -3   22.06    2.05
   2   6   3   20.89    2.10
  -2   6   4   15.41    1.34
  -2   6   4   13.90    1.35
   2  -6   4   14.88    1.43
   2  -6   4   14.88    1.43
  -2   6   4   15.41    1.34
  -2   6   4   13.90    1.35
   2   6   4   14.78    1.26
  -2  -6   4   15.76    1.44
  -2  -6   4   15.76    1.44
   2   6   4   15.44    1.36
   2   6   4   15.44    1.36
   2   6   4   14.78    1.26
  -2  -6   4   13.72    1.35
  -2  -6   4   13.72    1.35
   2  -6   5   14.39    1.41
  -2   6   5   12.32    1.20
  -2   6   5   12.42    1.13
   2  -6   5   11.91    1.21
   2  -6   5   11.91    1.21
  -2   6   5   12.42    1.13
  -2   6   5   12.32    1.20
   2  -6   5   11.95    1.15
   2  -6   5   11.95    1.15
   2  -6   5   14.39    1.41
  -2  -6   5   13.91    1.26
  -2  -6   5   13.91    1.26
   2   6   5   12.25    1.13
  -2  -6   5   12.67    1.20
  -2  -6   5   13.38    1.41
  -2  -6   5   12.67    1.20
   2   6   5   12.39    1.20
   2   6   5   12.39    1.20
   2   6   5   12.25    1.13
  -2  -6   5   13.38    1.41
  -3  -6   0    0.84    0.12
   3   6   0    0.58    0.08
  -3   6   0    0.58    0.06
   3  -6   0    0.67    0.10
  -3  -6   0    0.72    0.11
  -3   6   0    0.50    0.09
  -3  -6   0    0.72    0.11
   3  -6   0    0.56    0.10
   3   6   0    0.58    0.08
   3  -6   0    0.67    0.10
   3  -6   0    0.63    0.10
   3  -6   0    0.56    0.10
  -3  -6   0    0.84    0.12
   3   6   0    0.80    0.11
   3  -6   0    0.63    0.10
  -3   6   0    0.58    0.06
  -3   6   0    0.50    0.09
   3   6   0    0.80    0.11
  -3  -6  -1    0.11    0.03
   3  -6   1    0.02    0.05
  -3   6   1    0.00    0.07
  -3   6   1    0.00    0.07
   3  -6   1    0.02    0.05
   3  -6   1    0.09    0.06
   3   6  -1    0.01    0.04
   3  -6   1    0.02    0.04
   3   6  -1    0.01    0.04
  -3  -6  -1    0.11    0.03
   3  -6   1    0.02    0.04
   3  -6   1    0.09    0.06
  -3  -6   1    0.08    0.08
  -3  -6   1    0.30    0.09
  -3  -6   1   -0.04    0.07
   3  -6  -1    0.03    0.05
  -3  -6   1   -0.04    0.07
   3  -6  -1    0.26    0.10
   3   6   1    0.00    0.06
  -3  -6   1    0.08    0.08
  -3  -6   1    0.05    0.06
   3  -6  -1    0.26    0.10
  -3  -6   1    0.03    0.07
  -3  -6   1    0.03    0.07
   3  -6  -1    0.03    0.05
  -3  -6   1    0.05    0.06
  -3  -6   1    0.30    0.09
   3   6   1    0.00    0.06
   3  -6   2    0.91    0.15
   3  -6   2    0.54    0.11
   3  -6   2    0.44    0.11
   3  -6   2    0.79    0.16
   3  -6   2    0.91    0.15
   3  -6   2    0.54    0.11
   3  -6   2    0.79    0.16
  -3   6   2    0.98    0.18
  -3   6   2    0.98    0.18
   3  -6   2    0.44    0.11
   3   6   2    0.33    0.12
  -3  -6   2    0.43    0.16
  -3  -6   2    0.62    0.13
  -3  -6   2    0.56    0.15
   3   6   2    0.65    0.11
  -3  -6   2    0.62    0.13
   3   6   2    0.33    0.12
  -3  -6   2    0.56    0.09
  -3  -6   2    0.43    0.16
  -3  -6   2    0.56    0.15
   3  -6  -2    0.65    0.11
  -3  -6   2    0.56    0.09
   3   6   2    0.65    0.11
   3  -6  -2    0.65    0.11
  -3  -6   2    0.37    0.10
  -3  -6   2    0.37    0.10
   3  -6   3    0.17    0.18
   3  -6   3    0.03    0.11
   3  -6   3    0.17    0.18
   3  -6   3    0.09    0.08
  -3  -6  -3    0.06    0.13
   3  -6   3    0.09    0.08
   3  -6   3    0.03    0.11
  -3   6   3    0.05    0.12
  -3  -6  -3    0.06    0.13
  -3   6   3    0.05    0.12
   3   6   3   -0.02    0.13
   3   6   3   -0.02    0.13
  -3  -6   3    0.01    0.14
   3   6   3    0.05    0.06
  -3  -6   3    0.05    0.21
  -3  -6   3   -0.02    0.08
  -3  -6   3    0.05    0.21
   3   6   3    0.05    0.06
   3  -6  -3    0.05    0.06
   3  -6  -3    0.05    0.06
  -3  -6   3    0.03    0.05
  -3  -6   3   -0.02    0.08
  -3  -6   3    0.03    0.05
  -3  -6   3    0.01    0.14
  -3  -6  -4    0.10    0.15
   3  -6   4   -0.09    0.26
  -3   6   4    0.41    0.19
  -3   6   4    0.41    0.19
   3  -6   4   -0.09    0.26
  -3  -6  -4    0.10    0.15
  -3  -6   4    0.38    0.30
   3   6   4    0.31    0.20
   3   6   4    0.31    0.20
  -3  -6   4    0.38    0.30
   3  -6   5    0.17    0.23
   3  -6   5    0.17    0.23
  -3   6   5    0.24    0.25
  -3   6   5    0.17    0.10
  -3   6   5    0.17    0.10
   3  -6   5    0.00    0.16
   3  -6   5    0.44    0.38
   3  -6   5    0.44    0.38
   3  -6   5    0.01    0.16
  -3   6   5    0.24    0.25
   3   6   5    0.60    0.44
  -3  -6   5    0.11    0.21
  -3  -6   5    0.58    0.49
  -3  -6   5    0.18    0.27
   3   6   5    0.60    0.44
  -3  -6   5    0.58    0.49
   3   6   5    0.06    0.11
  -3  -6   5    0.18    0.27
   3   6   5    0.13    0.27
   3   6   5    0.06    0.11
   3   6   5    0.13    0.27
  -3  -6   5    0.11    0.21
   4  -6   0    0.53    0.09
   4   6   0    0.36    0.08
   4  -6   0    0.35    0.08
  -4  -6   0    0.27    0.08
  -4   6   0    0.19    0.07
  -4   6   0    0.19    0.07
   4   6   0    0.36    0.08
   4  -6   0    0.35    0.08
   4  -6   0    0.53    0.09
  -4  -6   0    0.27    0.08
   4   6  -1   33.17    3.07
   4  -6   1   42.53    3.10
   4  -6   1   36.79    3.09
   4  -6   1   36.79    3.09
  -4  -6  -1   35.86    3.06
  -4   6   1   41.63    3.10
  -4   6   1   41.63    3.10
  -4  -6  -1   35.86    3.06
  -4   6   1   37.09    3.07
   4  -6   1   42.53    3.10
   4   6  -1   33.17    3.07
  -4   6   1   37.10    3.07
   4  -6   1   35.01    3.09
   4  -6   1   35.01    3.09
  -4  -6   1   35.56    3.07
  -4  -6   1   35.56    3.07
  -4  -6   1   32.61    3.10
  -4  -6   1   32.61    3.10
   4   6   1   38.24    3.10
   4   6   1   38.24    3.10
   4  -6   2    0.32    0.14
  -4   6   2    0.06    0.12
  -4   6   2    0.06    0.12
  -4   6   2    0.27    0.07
   4  -6   2    0.37    0.10
   4  -6   2    0.32    0.14
   4  -6   2    0.37    0.10
   4  -6   2    0.17    0.08
  -4   6   2    0.27    0.07
   4  -6   2    0.52    0.09
   4  -6   2    0.52    0.09
   4  -6   2    0.17    0.08
   4   6   2    0.28    0.08
   4  -6  -2    0.30    0.07
   4   6   2    0.21    0.12
  -4  -6   2    0.60    0.17
   4  -6  -2    0.30    0.07
  -4   6  -2    0.32    0.09
  -4  -6   2    0.49    0.16
  -4  -6   2    0.60    0.17
   4   6   2    0.28    0.08
  -4  -6   2    0.19    0.07
  -4  -6   2    0.15    0.10
  -4  -6   2    0.49    0.16
  -4   6  -2    0.32    0.09
  -4  -6   2    0.15    0.10
   4   6   2    0.21    0.12
  -4  -6   2    0.19    0.07
  -4   6   3   24.11    2.08
  -4   6   3   23.55    2.04
   4  -6   3   26.82    2.03
   4  -6   3   23.68    2.07
   4  -6   3   25.04    2.10
  -4   6   3   23.55    2.04
   4  -6   3   26.82    2.03
   4  -6   3   23.68    2.07
  -4   6   3   24.11    2.08
   4  -6   3   25.04    2.10
   4   6   3   21.55    2.07
  -4  -6   3   25.87    2.05
   4   6   3   21.55    2.07
  -4  -6   3   26.93    2.02
  -4  -6   3   22.51    2.02
   4   6   3   20.95    2.03
  -4  -6   3   26.93    2.02
  -4  -6   3   25.87    2.05
  -4  -6   3   21.69    2.12
  -4  -6   3   21.69    2.12
  -4  -6   3   22.51    2.02
   4   6   3   20.95    2.03
  -4  -6  -4    0.14    0.18
  -4   6   4    0.19    0.20
   4  -6   4    0.33    0.28
   4  -6   4    0.33    0.28
  -4   6   4    0.19    0.20
  -4  -6  -4    0.14    0.18
   4   6   4    0.06    0.30
   4   6   4    0.06    0.30
   4   6   4    0.21    0.12
  -4  -6   4    0.44    0.34
   4   6   4    0.27    0.22
  -4  -6   4    0.45    0.14
   4   6   4    0.21    0.12
  -4  -6   4    0.44    0.34
  -4  -6   4    0.45    0.14
   4   6   4    0.27    0.22
   4  -6   5   11.67    1.10
   4  -6   5   12.63    1.18
  -4   6   5   10.86    1.09
  -4   6   5   10.86    1.09
   4  -6   5   12.72    1.32
  -4   6   5   10.49    1.16
   4  -6   5   12.63    1.18
   4  -6   5   12.72    1.32
  -4   6   5   10.49    1.16
   4  -6   5   11.67    1.10
   4   6   5   12.39    1.19
  -4  -6   5   12.82    1.42
  -4  -6   5   12.82    1.42
  -4  -6   5   11.64    1.17
  -4  -6   5   14.53    1.28
   4   6   5   13.20    1.10
   4   6   5   11.34    1.32
   4   6   5   12.39    1.19
   4   6   5   13.20    1.10
  -4  -6   5   14.53    1.28
   4   6   5   11.34    1.32
  -4  -6   5   11.64    1.17
  -5  -6   0   40.59    3.25
   5  -6   0   41.01    3.21
   5  -6   0   41.01    3.21
   5  -6   0   41.69    3.24
  -5   6   0   34.59    3.22
  -5   6   0   34.59    3.22
   5   6   0   34.78    3.23
   5  -6   0   41.69    3.24
   5   6   0   34.78    3.23
  -5  -6   0   40.59    3.25
  -5   6   1   79.00    5.65
   5  -6   1   63.89    5.67
  -5  -6  -1   62.43    5.62
  -5   6   1   61.05    5.66
  -5   6   1   61.05    5.66
  -5   6   1   79.00    5.65
   5   6  -1   70.16    5.65
   5  -6   1   65.73    5.65
   5  -6   1   63.89    5.67
   5   6  -1   70.16    5.65
  -5  -6  -1   62.43    5.62
   5  -6   1   65.73    5.65
   5  -6   1   73.36    5.66
   5  -6   1   73.36    5.66
  -5  -6   1   62.57    5.68
   5   6   1   69.66    5.63
  -5  -6   1   69.30    5.64
   5   6   1   68.05    5.66
  -5  -6   1   62.57    5.68
   5   6   1   68.05    5.66
   5   6   1   69.66    5.63
  -5  -6   1   69.30    5.64
  -5   6   2   34.23    2.43
   5  -6   2   27.12    2.40
   5  -6   2   30.85    2.41
   5  -6   2   30.85    2.41
   5  -6   2   27.12    2.40
   5  -6   2   26.44    2.41
   5  -6   2   26.44    2.41
  -5   6   2   34.23    2.43
  -5  -6   2   27.27    2.42
  -5  -6   2   26.58    2.38
  -5  -6   2   26.58    2.38
   5   6   2   26.40    2.39
  -5  -6   2   27.27    2.42
   5   6   2   26.40    2.39
   5  -6   3   39.30    3.72
   5  -6   3   49.29    3.69
   5  -6   3   49.29    3.69
  -5   6   3   45.42    3.74
   5  -6   3   41.86    3.75
  -5   6   3   46.90    3.70
   5  -6   3   41.86    3.75
   5  -6   3   39.30    3.72
  -5   6   3   46.90    3.70
  -5   6   3   45.42    3.74
  -5  -6   3   41.55    3.68
   5   6   3   45.17    3.75
  -5  -6   3   41.55    3.68
   5   6   3   46.39    3.74
   5  -6  -3   50.58    3.69
  -5  -6   3   39.38    3.69
  -5  -6   3   39.38    3.69
   5   6   3   45.17    3.75
   5   6   3   40.31    3.70
  -5  -6   3   41.68    3.80
  -5  -6   3   41.68    3.80
   5  -6  -3   50.58    3.69
   5   6   3   46.39    3.74
   5   6   3   40.31    3.70
  -5   6   4   18.91    1.77
   5  -6   4   19.39    1.83
  -5   6   4   18.91    1.77
   5  -6   4   19.39    1.83
  -5  -6   4   19.76    1.88
  -5  -6   4   19.16    1.71
  -5  -6   4   19.76    1.88
   5   6   4   20.82    1.85
   5   6   4   22.41    1.80
   5   6   4   20.82    1.85
  -5  -6   4   19.16    1.71
   5   6   4   22.41    1.80
  -5   6   5   22.82    2.09
  -5   6   5   25.29    2.05
   5  -6   5   22.14    2.20
   5  -6   5   23.76    2.08
   5  -6   5   22.14    2.20
   5  -6   5   23.31    2.03
   5  -6   5   23.76    2.08
  -5   6   5   22.82    2.09
  -5   6   5   25.29    2.05
   5  -6   5   23.31    2.03
   5   6   5   22.77    2.08
   5   6   5   22.77    2.08
  -5  -6   5   25.09    2.29
  -5  -6   5   25.09    2.29
   5   6   5   27.11    2.23
   5   6   5   20.94    2.02
   5   6   5   27.11    2.23
   5   6   5   20.94    2.02
   6  -6   0   54.39    4.58
   6  -6   0   54.39    4.58
  -6   6   0   46.46    4.61
  -6  -6   0   62.60    4.65
   6   6   0   52.55    4.61
   6  -6   0   60.43    4.64
  -6   6   0   46.46    4.61
  -6  -6   0   62.60    4.65
   6  -6   0   60.43    4.64
   6   6   0   52.55    4.61
   6   6  -1   31.54    2.66
  -6   6   1   32.52    2.67
   6  -6   1   37.16    2.68
  -6   6   1   32.52    2.67
   6  -6   1   37.16    2.68
  -6   6   1   31.15    2.67
   6  -6   1   33.79    2.68
  -6  -6  -1   29.06    2.64
  -6  -6  -1   29.06    2.64
   6   6  -1   31.54    2.66
   6  -6   1   28.85    2.69
   6  -6   1   33.79    2.68
  -6   6   1   31.15    2.67
   6  -6   1   28.85    2.69
  -6  -6   1   31.40    2.66
  -6  -6   1   29.13    2.71
  -6  -6   1   31.40    2.66
   6   6   1   32.83    2.63
   6   6   1   31.03    2.67
  -6  -6   1   29.13    2.71
   6   6   1   31.03    2.67
   6   6   1   32.83    2.63
   6  -6   2   41.07    3.67
   6  -6   2   41.07    3.67
   6   6   2   46.75    3.67
  -6  -6   2   40.77    3.69
   6   6   2   39.56    3.67
   6   6   2   48.46    3.73
   6   6   2   48.46    3.73
  -6  -6   2   40.77    3.69
  -6  -6   2   46.12    3.67
   6   6   2   46.75    3.67
  -6  -6   2   46.12    3.67
   6   6   2   39.56    3.67
  -6   6   3   26.48    1.94
  -6   6   3   20.88    1.97
  -6   6   3   20.88    1.97
  -6   6   3   26.48    1.94
   6  -6   3   20.95    1.98
   6  -6   3   20.95    1.98
   6   6   3   23.08    1.98
   6   6   3   24.25    1.98
   6  -6  -3   19.93    1.91
  -6  -6   3   22.73    1.93
   6   6   3   23.08    1.98
   6   6   3   24.25    1.98
  -6  -6   3   22.73    1.93
   6  -6  -3   19.93    1.91
  -6   6   4   27.14    2.43
  -6   6   4   27.06    2.42
  -6   6   4   27.14    2.43
   6  -6   4   25.40    2.49
  -6   6   4   27.05    2.42
   6  -6   4   25.40    2.49
   6   6   4   28.14    2.49
   6   6   4   28.14    2.49
  -6  -6   4   28.60    2.38
  -6  -6   4   33.00    2.55
   6   6   4   27.50    2.44
  -6  -6   4   33.00    2.55
  -6  -6   4   28.60    2.38
   6   6   4   27.50    2.44
   6  -6   5   11.72    1.20
   6  -6   5   11.72    1.20
  -6   6   5   11.17    1.16
   6  -6   5   11.64    1.39
   6  -6   5   12.86    1.15
  -6   6   5   13.64    1.25
   6  -6   5   12.86    1.15
  -6   6   5   13.64    1.25
  -6   6   5   11.17    1.16
   6  -6   5   11.64    1.39
   6   6   5   13.84    1.37
   6   6   5   13.66    1.15
   6   6   5   12.63    1.23
   6   6   5   13.84    1.37
  -6  -6   5   15.46    1.54
   6   6   5   12.63    1.23
  -6  -6   5   15.46    1.54
   6   6   5   13.66    1.15
   7  -6   0    2.66    0.30
  -7   6   0    1.97    0.31
   7  -6   0    2.40    0.22
  -7   6   0    1.97    0.31
   7   6   0    2.44    0.26
   7   6   0    2.44    0.26
   7  -6   0    2.66    0.30
   7  -6   0    2.40    0.22
   7  -6   1    0.57    0.14
   7  -6   1    0.55    0.15
   7   6  -1    0.75    0.12
  -7   6   1    0.74    0.14
   7   6  -1    0.75    0.12
  -7   6   1    0.53    0.13
  -7   6   1    0.74    0.14
   7  -6   1    0.57    0.14
   7  -6   1    0.55    0.15
  -7   6   1    0.53    0.13
  -7  -6   1    0.33    0.18
  -7  -6   1    0.58    0.14
   7   6   1    0.32    0.12
   7  -6  -1    0.72    0.14
  -7  -6   1    0.58    0.14
   7  -6  -1    0.72    0.14
   7   6   1    0.79    0.08
   7   6   1    0.79    0.08
  -7  -6   1    0.33    0.18
  -7   6  -1    0.40    0.15
  -7   6  -1    0.40    0.15
   7   6   1    0.32    0.12
   7  -6   2    1.91    0.25
   7  -6   2    1.91    0.25
   7  -6   2    2.14    0.20
   7  -6   2    2.14    0.20
  -7   6   2    2.28    0.28
  -7   6   2    2.28    0.28
   7  -6   2    2.43    0.30
   7  -6   2    2.43    0.30
   7  -6  -2    2.31    0.27
   7   6   2    1.65    0.28
  -7  -6   2    1.86    0.31
   7   6   2    1.85    0.28
   7  -6  -2    2.31    0.27
  -7  -6   2    1.86    0.31
   7   6   2    1.65    0.28
   7   6   2    1.85    0.28
   7   6   2    1.98    0.26
   7   6   2    1.98    0.26
   7  -6   3    0.75    0.12
   7  -6   3    0.38    0.23
  -7   6   3    0.85    0.17
   7  -6   3    0.38    0.23
  -7   6   3    0.85    0.17
   7  -6   3    0.75    0.12
  -7   6   3    0.83    0.24
  -7   6   3    0.83    0.24
   7   6   3    0.53    0.21
  -7  -6   3    0.83    0.17
   7   6   3    0.53    0.21
   7   6   3    0.64    0.21
   7   6   3    0.64    0.21
  -7  -6   3    0.83    0.17
  -7   6   4    1.93    0.37
   7  -6   4    2.31    0.26
  -7   6   4    1.93    0.37
  -7   6   4    1.83    0.30
   7  -6   4    2.31    0.26
  -7   6   4    1.83    0.30
   7   6   4    1.59    0.42
   7   6   4    1.48    0.26
   7   6   4    1.59    0.34
   7   6   4    1.59    0.34
   7   6   4    1.59    0.42
  -7  -6   4    1.85    0.29
   7   6   4    1.48    0.26
  -7  -6   4    2.70    0.50
  -7  -6   4    1.85    0.29
  -7  -6   4    2.70    0.50
   8  -6   0    0.24    0.14
   8  -6   0    0.32    0.08
  -8   6   0    0.25    0.17
   8   6   0    0.04    0.10
  -8  -6   0    0.40    0.20
   8   6   0    0.04    0.10
  -8  -6   0    0.40    0.20
  -8   6   0    0.25    0.17
   8  -6   0    0.24    0.14
   8  -6   0    0.32    0.08
   8  -6   1    1.41    0.16
   8  -6   1    1.09    0.11
   8  -6   1    1.27    0.20
  -8   6   1    1.14    0.18
  -8   6   1    1.14    0.18
   8  -6   1    1.41    0.16
   8  -6   1    0.98    0.21
   8  -6   1    1.27    0.20
   8  -6   1    1.09    0.11
   8  -6   1    0.98    0.21
   8   6   1    1.42    0.13
  -8   6  -1    1.26    0.22
   8   6   1    0.85    0.17
  -8  -6   1    1.48    0.35
  -8  -6   1    1.48    0.35
   8   6   1    0.85    0.17
   8  -6  -1    1.34    0.22
   8   6   1    1.42    0.13
  -8   6  -1    1.26    0.22
   8  -6  -1    1.34    0.22
   8  -6   2    0.20    0.11
   8  -6   2    0.28    0.06
   8  -6   2    0.56    0.17
   8  -6   2    0.28    0.06
  -8   6   2    0.13    0.15
  -8   6   2    0.80    0.18
  -8   6   2    0.80    0.18
  -8   6   2    0.13    0.15
   8  -6   2    0.56    0.17
   8  -6   2    0.20    0.11
   8  -6  -2    0.40    0.14
   8   6   2    0.13    0.10
   8   6   2    0.34    0.16
  -8  -6   2    0.19    0.18
  -8  -6   2    0.19    0.18
   8   6   2    0.22    0.10
   8   6   2    0.34    0.16
   8   6   2    0.22    0.10
   8  -6  -2    0.40    0.14
   8   6   2    0.13    0.10
   8  -6   3    1.16    0.29
   8  -6   3    0.95    0.13
  -8   6   3    0.78    0.20
  -8   6   3    0.78    0.20
  -8   6   3    0.67    0.23
   8  -6   3    1.16    0.29
  -8   6   3    0.67    0.23
   8  -6   3    0.95    0.13
   8   6   3    1.05    0.24
  -8  -6   3    0.63    0.21
  -8  -6   3    1.02    0.20
   8   6   3    0.89    0.24
   8   6   3    1.05    0.24
  -8  -6   3    0.63    0.21
  -8  -6   3    1.02    0.20
   8   6   3    0.89    0.24
   8  -6   4    0.01    0.34
  -8   6   4    0.06    0.17
   8  -6   4    0.52    0.12
  -8   6   4    0.05    0.25
  -8   6   4    0.05    0.25
   8  -6   4    0.01    0.34
   8  -6   4    0.52    0.12
  -8   6   4    0.06    0.17
   8   6   4    0.18    0.14
   8   6   4    0.26    0.33
  -8  -6   4    0.31    0.43
  -8  -6   4    0.57    0.23
   8   6   4    0.18    0.14
  -8  -6   4    0.31    0.43
  -8  -6   4    0.57    0.23
   8   6   4    0.26    0.33
   8   6   4    0.30    0.25
   8   6   4    0.30    0.25
   9  -6   0    2.94    0.30
  -9  -6   0    3.17    0.43
   9  -6   0    2.94    0.30
  -9   6   0    2.82    0.39
  -9   6   0    2.82    0.39
   9   6   0    2.59    0.31
   9  -6   0    2.99    0.37
   9   6   0    2.59    0.31
   9  -6   0    2.99    0.37
  -9  -6   0    3.17    0.43
   9  -6   1    0.94    0.18
   9  -6   1    1.15    0.17
   9  -6   1    0.87    0.10
   9  -6   1    0.94    0.18
  -9   6   1    0.93    0.18
   9  -6   1    1.16    0.17
  -9   6   1    0.93    0.18
   9  -6   1    0.87    0.10
  -9  -6   1    0.92    0.30
   9   6   1    0.67    0.15
  -9  -6   1    0.55    0.17
  -9   6  -1    0.76    0.24
  -9  -6   1    0.92    0.30
  -9  -6   1    0.55    0.17
   9   6   1    0.67    0.15
  -9   6  -1    0.76    0.24
   9  -6   2    2.53    0.34
  -9   6   2    1.82    0.32
   9  -6   2    2.69    0.23
   9  -6   2    2.69    0.23
  -9   6   2    1.82    0.32
   9  -6   2    2.53    0.34
   9   6   2    2.36    0.28
   9   6   2    2.30    0.30
   9   6   2    2.32    0.34
   9   6   2    2.36    0.28
  -9  -6   2    3.19    0.43
   9   6   2    2.30    0.30
  -9  -6   2    3.19    0.43
   9   6   2    2.32    0.34
   9  -6   3    1.02    0.27
  -9   6   3    1.29    0.28
   9  -6   3    0.89    0.15
   9  -6   3    1.02    0.27
   9  -6   3    0.89    0.15
  -9   6   3    1.29    0.28
  -9  -6   3    1.05    0.22
   9   6   3    1.29    0.26
  -9  -6   3    0.49    0.24
  -9  -6   3    1.05    0.22
  -9  -6   3    0.49    0.24
   9   6   3    1.29    0.26
   9   6   3    0.75    0.22
   9   6   3    0.75    0.22
  -9   6   4    1.39    0.31
   9  -6   4    1.16    0.28
   9  -6   4    1.16    0.28
   9  -6   4    1.69    0.40
  -9   6   4    1.15    0.34
  -9   6   4    1.39    0.31
   9  -6   4    1.87    0.24
   9  -6   4    1.69    0.40
   9  -6   4    1.87    0.24
  -9   6   4    1.15    0.34
  -9  -6   4    1.66    0.32
  -9  -6   4    1.76    0.52
  -9  -6   4    1.76    0.52
  -9  -6   4    1.66    0.32
   9   6   4    1.80    0.42
   9   6   4    1.83    0.28
   9   6   4    1.80    0.42
   9   6   4    2.32    0.35
   9   6   4    1.83    0.28
   9   6   4    2.32    0.35
  10   6   0   12.31    1.15
 -10  -6   0   15.56    1.26
 -10  -6   0   15.56    1.26
  10   6   0   12.31    1.15
 -10   6   0   12.38    1.21
 -10   6   0   12.38    1.21
  10  -6   1    0.33    0.13
 -10   6   1    0.25    0.17
  10  -6   1    0.33    0.13
  10  -6   1    0.22    0.06
 -10   6   1    0.25    0.17
  10  -6   1    0.22    0.06
 -10  -6   1    0.19    0.26
 -10  -6   1    0.19    0.26
 -10  -6   1   -0.08    0.16
 -10   6  -1    0.32    0.23
 -10  -6   1   -0.08    0.16
 -10   6  -1    0.32    0.23
  10  -6   2   11.68    1.02
 -10   6   2   13.43    1.12
  10  -6   2   12.12    1.09
 -10   6   2   13.43    1.12
  10  -6   2   11.68    1.02
  10  -6   2   12.12    1.09
  10   6   2   11.19    1.04
 -10   6  -2   11.90    1.11
  10   6   2   11.70    1.09
 -10  -6   2   13.21    1.16
  10   6   2   11.70    1.09
  10   6   2   11.19    1.04
 -10   6  -2   11.90    1.11
 -10  -6   2   13.21    1.16
  10  -6   3    0.13    0.09
 -10   6   3    0.02    0.22
  10  -6   3    0.13    0.09
  10  -6   3    0.11    0.23
  10  -6   3    0.11    0.23
 -10   6   3    0.02    0.22
 -10  -6   3    0.25    0.20
  10   6   3    0.36    0.19
 -10  -6   3    0.25    0.20
  10   6   3   -0.08    0.19
  10   6   3    0.36    0.19
 -10  -6   3    0.07    0.26
 -10  -6   3    0.07    0.26
  10   6   3   -0.08    0.19
  10  -6   4    6.64    0.63
 -10   6   4    6.80    0.80
 -10   6   4    6.80    0.80
 -10   6   4    5.91    0.74
  10  -6   4    7.07    0.87
  10  -6   4    7.07    0.87
 -10   6   4    5.91    0.74
  10  -6   4    6.64    0.63
 -10  -6   4    7.04    0.97
 -10  -6   4    7.04    0.97
  10   6   4    7.09    0.74
 -10  -6   4    7.58    0.76
 -10  -6   4    7.58    0.76
  10   6   4    6.14    0.83
  10   6   4    7.09    0.74
  10   6   4    6.14    0.83
 -11   6   0    5.64    0.64
 -11  -6   0    4.93    0.68
 -11   6   0    5.64    0.64
 -11  -6   0    4.93    0.68
 -11   6   1   56.60    4.36
 -11   6   1   56.60    4.36
  11  -6   1   55.94    4.29
  11  -6   1   55.94    4.29
 -11  -6   1   45.34    4.42
 -11   6  -1   44.54    4.37
 -11   6  -1   44.54    4.37
  11   6   1   53.74    4.34
 -11  -6   1   45.34    4.42
  11   6   1   53.74    4.34
 -11   6   2    6.43    0.59
  11  -6   2    5.63    0.58
 -11   6   2    6.43    0.59
  11  -6   2    5.63    0.58
  11  -6   2    5.31    0.46
  11  -6   2    5.32    0.46
 -11  -6   2    4.76    0.66
  11   6   2    4.72    0.55
  11   6   2    4.63    0.49
  11   6   2    4.63    0.49
 -11   6  -2    4.85    0.63
 -11   6  -2    4.85    0.63
  11   6   2    4.72    0.55
 -11  -6   2    4.76    0.66
 -11   6   3   33.68    3.29
  11  -6   3   43.66    3.31
  11  -6   3   37.14    3.21
  11  -6   3   37.14    3.21
 -11   6   3   33.68    3.29
  11  -6   3   43.66    3.31
 -11  -6   3   42.61    3.29
  11   6   3   42.52    3.28
 -11  -6   3   42.61    3.29
  11   6   3   42.52    3.28
  11   6   3   31.91    3.26
  11   6   3   31.92    3.26
 -11   6   4    4.54    0.62
  11  -6   4    4.04    0.47
  11  -6   4    4.58    0.66
  11  -6   4    4.04    0.47
  11  -6   4    4.58    0.66
 -11   6   4    4.54    0.62
  11   6   4    4.72    0.61
 -11  -6   4    4.81    0.65
  11   6   4    4.72    0.61
  11   6   4    5.19    0.52
  11   6   4    4.39    0.59
 -11  -6   4    4.56    0.72
 -11  -6   4    4.56    0.72
  11   6   4    5.19    0.52
  11   6   4    4.39    0.59
 -11  -6   4    4.81    0.65
 -12   6   0   52.81    4.84
 -12  -6   0   60.92    4.87
 -12   6   0   52.81    4.84
 -12  -6   0   60.92    4.87
 -12   6   1   25.35    2.19
 -12   6   1   25.35    2.19
  12  -6   1   28.06    2.11
 -12  -6  -1   24.44    2.23
  12  -6   1   28.06    2.11
 -12  -6  -1   24.44    2.23
 -12   6  -1   21.62    2.24
 -12  -6   1   23.14    2.27
 -12  -6   1   23.14    2.27
 -12   6  -1   21.62    2.24
  12   6   1   26.12    2.16
  12   6   1   26.12    2.16
 -12   6   2   53.06    4.27
  12  -6   2   48.77    4.18
 -12   6   2   53.06    4.27
  12  -6   2   44.16    4.24
  12  -6   2   44.16    4.24
  12  -6   2   48.78    4.18
  12   6   2   51.50    4.20
 -12   6  -2   48.22    4.29
  12   6   2   48.01    4.24
 -12  -6   2   59.20    4.33
  12   6   2   51.50    4.20
  12   6   2   48.01    4.24
 -12  -6   2   59.20    4.33
 -12   6  -2   48.22    4.29
  12  -6   3   19.11    1.79
  12  -6   3   21.25    1.69
  12  -6   3   19.11    1.79
 -12   6   3   19.43    1.81
  12  -6   3   21.25    1.69
 -12   6   3   19.43    1.81
 -12  -6   3   22.82    1.79
  12   6   3   17.41    1.75
  12   6   3   17.41    1.75
  12   6   3   20.26    1.75
 -12   6  -3   18.52    1.86
  12   6   3   20.26    1.75
 -12   6  -3   18.52    1.86
 -12  -6   3   22.82    1.79
 -13  -6   0    2.04    0.42
 -13  -6   0    2.04    0.42
  13  -6   1    0.53    0.13
  13  -6   1    0.53    0.13
 -13  -6  -1    0.01    0.30
 -13   6   1    0.50    0.25
 -13   6   1    0.50    0.25
 -13  -6  -1    0.01    0.30
 -13  -6   1    0.25    0.37
 -13  -6   1    0.25    0.37
  13  -6   2    1.66    0.32
 -13   6   2    2.19    0.35
  13  -6   2    2.00    0.24
  13  -6   2    2.00    0.24
 -13   6   2    2.19    0.35
  13  -6   2    1.66    0.32
 -13  -6   2    2.40    0.45
  13   6   2    2.21    0.32
 -13  -6   2    2.40    0.45
  13   6   2    2.21    0.32
 -13   6  -2    1.99    0.50
  13   6   2    1.92    0.35
  13   6   2    1.92    0.35
 -13   6  -2    1.99    0.50
  13  -6   3    0.24    0.29
 -13   6   3    0.33    0.28
  13  -6   3    0.24    0.29
 -13   6   3    0.33    0.28
 -13  -6   3   -0.13    0.24
  13   6   3    0.30    0.25
  13   6   3   -0.11    0.16
  13   6   3    0.05    0.21
  13   6   3    0.05    0.21
  13   6   3    0.30    0.25
 -13  -6   3   -0.13    0.24
  13   6   3   -0.11    0.16
 -14   6   0    1.71    0.44
 -14   6   0    1.71    0.44
 -14  -6   0    1.71    0.49
 -14  -6   0    1.71    0.49
  14  -6   1   13.11    1.07
 -14   6   1   13.74    1.19
 -14  -6  -1   10.11    1.25
 -14   6   1   13.74    1.19
  14  -6   1   13.11    1.07
 -14  -6  -1   10.11    1.25
 -14  -6   1   10.25    1.28
 -14  -6   1   10.25    1.28
 -14   6  -1   11.75    1.36
 -14   6  -1   11.75    1.36
 -14  -6  -2    0.98    0.43
 -14   6   2    1.56    0.34
 -14   6   2    1.56    0.34
 -14  -6  -2    0.98    0.43
 -14   6  -2    1.12    0.58
 -14  -6   2    1.56    0.41
 -14   6  -2    1.12    0.58
  14   6   2    1.25    0.29
 -14  -6   2    1.56    0.41
  14   6   2    1.25    0.29
 -14   6   3    9.41    0.94
  14  -6   3    7.27    0.90
  14  -6   3    7.27    0.90
 -14   6   3    9.41    0.94
 -14  -6   3    8.65    0.90
  14   6   3    7.15    0.80
 -14  -6   3    8.65    0.90
  14   6   3    7.15    0.80
 -15  -6   0    9.66    1.16
 -15  -6   0    9.66    1.16
 -15   6   1    5.54    0.69
 -15  -6  -1    4.74    0.72
 -15  -6  -1    4.74    0.72
 -15   6   1    5.54    0.69
 -15  -6   1    3.57    0.70
 -15   6  -1    4.88    0.80
 -15  -6   1    3.57    0.70
 -15   6  -1    4.88    0.80
 -15  -6  -2   10.66    1.24
 -15   6   2   10.98    1.10
 -15   6   2   10.98    1.10
 -15  -6  -2   10.66    1.24
 -15  -6   2   13.86    1.20
  15   6   2    9.67    1.03
 -15   6  -2    9.57    1.48
 -15  -6   2   13.86    1.20
  15   6   2    9.67    1.03
 -15   6  -2    9.57    1.48
 -16  -6   0    0.82    0.50
 -16   6   0    0.53    0.47
 -16   6   0    0.53    0.47
 -16  -6   0    0.82    0.50
 -16   6   1    0.20    0.34
 -16  -6  -1    0.32    0.49
 -16  -6  -1    0.32    0.49
 -16   6   1    0.20    0.34
 -16  -6   1    0.68    0.47
 -16   6  -1    0.13    0.64
 -16  -6   1    0.68    0.47
 -16   6  -1    0.13    0.64
   0   7   0   -0.26    0.04
   0   7   0   -0.25    0.07
   0  -7   0   -0.23    0.04
   0  -7   0   -0.22    0.07
   0  -7   0   -0.22    0.07
   0  -7   0   -0.23    0.04
   0  -7   0   -0.26    0.06
   0   7   0   -0.25    0.07
   0  -7   0   -0.26    0.06
   0   7   0   -0.26    0.04
   0  -7   1   -0.09    0.07
   0   7   1   -0.11    0.04
   0   7   1    0.10    0.08
   0  -7   1   -0.14    0.06
   0   7   1    0.10    0.08
   0  -7  -1   -0.19    0.07
   0  -7   1   -0.08    0.05
   0   7   1   -0.15    0.06
   0   7  -1   -0.13    0.08
   0  -7   1   -0.08    0.05
   0   7   1   -0.15    0.06
   0  -7   1   -0.09    0.07
   0   7  -1   -0.13    0.08
   0  -7  -1   -0.19    0.07
   0   7   1   -0.11    0.04
   0  -7   1   -0.14    0.06
   0   7  -2   -0.01    0.05
   0   7  -2   -0.01    0.05
   0  -7  -2   -0.02    0.10
   0  -7   2   -0.11    0.09
   0  -7   2   -0.16    0.07
   0  -7   2   -0.11    0.09
   0   7   2   -0.09    0.05
   0   7   2   -0.09    0.05
   0  -7   2   -0.11    0.06
   0  -7   2   -0.16    0.07
   0   7   2   -0.11    0.09
   0   7   2   -0.11    0.09
   0   7   2   -0.16    0.10
   0  -7   2   -0.11    0.06
   0  -7  -2   -0.02    0.10
   0   7   2   -0.16    0.10
   0  -7   3   -0.14    0.14
   0  -7   3    0.08    0.07
   0  -7   3   -0.02    0.11
   0  -7  -3    0.08    0.09
   0  -7   3    0.08    0.07
   0   7   3    0.29    0.14
   0   7   3    0.12    0.07
   0  -7  -3    0.08    0.09
   0  -7   3    0.14    0.21
   0   7   3    0.12    0.07
   0  -7   3    0.14    0.21
   0  -7   3   -0.02    0.11
   0  -7   3   -0.14    0.14
   0   7   3    0.29    0.14
   0  -7   4   -0.07    0.15
   0  -7   4   -0.04    0.25
   0  -7  -4    0.07    0.10
   0   7   4    0.19    0.20
   0  -7   4   -0.07    0.15
   0  -7   4   -0.04    0.25
   0   7   4    0.19    0.20
   0  -7  -4    0.07    0.10
   0  -7   5    0.08    0.20
   0   7   5    0.25    0.28
   0   7   5    0.33    0.14
   0   7   5    0.33    0.14
   0  -7   5    0.08    0.20
   0   7   5    0.25    0.28
   0  -7   5    0.23    0.44
   0  -7   5    0.15    0.21
   0  -7   5    0.23    0.44
   0  -7   5    0.15    0.21
   1   7   0   13.30    1.05
   1  -7   0   10.70    1.08
   1  -7   0   12.93    1.06
   1  -7   0   13.60    1.05
  -1  -7   0   11.79    1.06
  -1   7   0   10.98    1.05
   1   7   0   13.42    1.06
   1   7   0   13.42    1.06
  -1  -7   0   12.59    1.06
  -1  -7   0   12.59    1.06
   1  -7   0   12.93    1.06
  -1  -7   0   11.79    1.06
   1   7   0   13.30    1.05
  -1   7   0   10.98    1.05
   1  -7   0   13.60    1.05
   1  -7   0   10.70    1.08
   1   7  -1    0.67    0.10
   1  -7   1    0.81    0.13
  -1  -7  -1    0.76    0.10
  -1  -7  -1    0.76    0.10
  -1   7   1    1.03    0.14
  -1   7   1    0.69    0.09
   1   7  -1    0.67    0.10
   1  -7   1    0.78    0.12
   1  -7   1    0.78    0.12
   1  -7   1    0.81    0.13
  -1   7   1    1.03    0.14
  -1   7   1    0.69    0.09
  -1  -7   1    0.52    0.11
  -1   7  -1    0.84    0.09
   1   7   1    0.68    0.12
  -1  -7   1    0.71    0.14
  -1  -7   1    0.62    0.08
  -1  -7   1    0.62    0.08
  -1   7  -1    0.75    0.13
   1   7   1    0.67    0.12
   1   7   1    0.67    0.12
   1   7   1    0.68    0.12
  -1  -7   1    0.79    0.12
  -1  -7   1    0.71    0.14
  -1  -7   1    0.79    0.12
   1   7   1    0.66    0.11
   1   7   1    0.66    0.11
  -1  -7   1    0.52    0.11
  -1   7  -1    0.84    0.09
  -1   7  -1    0.75    0.13
   1  -7   2    8.46    0.82
   1   7  -2    8.66    0.78
  -1   7   2    8.31    0.82
  -1   7   2    8.31    0.82
   1   7  -2    8.66    0.78
   1  -7   2    8.46    0.82
  -1   7   2   10.23    0.79
  -1   7   2   10.23    0.79
  -1  -7   2    9.73    0.80
  -1   7  -2    9.00    0.77
  -1  -7   2    9.73    0.80
  -1  -7   2    8.45    0.83
  -1   7  -2    9.00    0.77
  -1  -7   2    9.96    0.84
  -1  -7   2    8.45    0.83
   1   7   2    8.84    0.78
  -1  -7   2    9.96    0.84
   1   7   2    8.84    0.78
   1   7   2    8.17    0.81
   1   7   2    8.17    0.81
  -1   7   3    0.36    0.09
   1  -7   3    0.22    0.14
  -1   7   3    0.34    0.16
  -1  -7  -3    0.19    0.12
   1  -7   3    0.36    0.23
  -1   7   3    0.36    0.09
   1  -7   3    0.37    0.09
   1  -7   3    0.37    0.09
   1  -7   3    0.44    0.16
   1  -7   3    0.22    0.14
  -1   7   3    0.34    0.16
  -1  -7  -3    0.19    0.12
   1  -7   3    0.36    0.23
   1  -7   3    0.44    0.16
  -1  -7   3    0.35    0.22
   1  -7  -3    0.35    0.12
  -1  -7   3    0.28    0.17
  -1  -7   3    0.28    0.17
   1   7   3    0.69    0.17
   1   7   3    0.69    0.17
   1   7   3    0.21    0.16
   1   7   3    0.38    0.09
   1  -7  -3    0.35    0.12
   1   7   3    0.21    0.16
  -1  -7   3    0.35    0.22
   1   7   3    0.38    0.09
  -1   7   4    4.15    0.48
   1  -7   4    3.09    0.53
  -1   7   4    3.62    0.37
  -1   7   4    3.62    0.37
  -1   7   4    4.15    0.48
   1  -7   4    3.09    0.53
   1   7   4    3.58    0.50
   1   7   4    3.58    0.50
   1  -7  -4    3.53    0.35
   1  -7  -4    3.53    0.35
  -1  -7   4    3.49    0.55
  -1  -7   4    3.49    0.55
   1  -7   5   -0.05    0.42
  -1   7   5   -0.02    0.13
  -1   7   5   -0.02    0.13
   1  -7   5    0.45    0.24
  -1   7   5    0.21    0.27
   1  -7   5    0.45    0.24
   1  -7   5    0.14    0.19
   1  -7   5    0.14    0.19
   1  -7   5   -0.05    0.42
  -1   7   5    0.21    0.27
   1   7   5    0.11    0.12
   1   7   5    0.32    0.26
  -1  -7   5    0.08    0.38
   1   7   5    0.11    0.12
  -1  -7   5   -0.02    0.19
   1   7   5    0.32    0.26
  -1  -7   5    0.24    0.26
  -1  -7   5    0.08    0.38
  -1  -7   5   -0.02    0.19
  -1  -7   5    0.24    0.26
   2  -7   0  420.69   39.98
  -2  -7   0  470.83   40.08
  -2  -7   0  459.18   39.98
   2   7   0  550.21   40.01
   2   7   0  550.21   40.01
  -2   7   0  488.61   40.01
  -2   7   0  487.98   40.01
   2   7   0  507.45   40.10
  -2  -7   0  470.83   40.08
   2   7   0  507.45   40.10
   2  -7   0  420.69   39.98
  -2  -7   0  459.18   39.98
   2  -7   1  226.90   19.72
   2   7  -1  229.00   19.65
   2  -7   1  273.62   19.67
   2  -7   1  273.62   19.67
  -2   7   1  215.00   19.67
  -2   7   1  275.65   19.68
  -2   7   1  275.00   19.68
   2   7  -1  229.00   19.65
   2  -7   1  263.31   19.68
   2  -7   1  226.90   19.72
  -2   7   1  215.00   19.67
  -2  -7  -1  255.90   19.67
   2  -7   1  263.31   19.68
  -2  -7  -1  255.90   19.67
  -2  -7   1  234.99   19.65
  -2   7  -1  237.18   19.64
   2   7   1  248.07   19.67
  -2   7  -1  206.47   19.64
   2  -7  -1  218.30   19.68
  -2  -7   1  227.99   19.68
   2   7   1  227.31   19.66
  -2  -7   1  241.89   19.66
  -2   7  -1  206.47   19.64
   2   7   1  248.07   19.67
   2   7   1  212.74   19.65
   2   7   1  227.32   19.66
  -2  -7   1  227.99   19.68
  -2   7  -1  237.19   19.64
  -2  -7   1  234.99   19.65
   2   7   1  212.74   19.65
   2  -7  -1  218.30   19.68
  -2  -7   1  241.89   19.66
  -2   7   2  406.21   32.15
   2  -7   2  400.57   32.11
   2  -7   2  413.26   32.25
   2  -7   2  413.26   32.25
  -2   7   2  406.21   32.15
   2  -7   2  400.57   32.11
   2  -7   2  446.75   32.17
   2  -7   2  446.75   32.17
  -2  -7   2  379.67   32.12
   2   7   2  405.84   32.06
  -2   7  -2  366.28   32.06
   2  -7  -2  331.82   32.15
  -2   7  -2  386.57   32.06
   2  -7  -2  331.82   32.15
  -2  -7   2  354.15   32.17
   2   7   2  359.21   32.10
  -2  -7   2  361.52   32.06
   2   7   2  359.21   32.10
  -2  -7   2  361.52   32.06
  -2  -7   2  422.27   32.12
  -2   7  -2  366.28   32.06
  -2  -7   2  379.67   32.12
  -2   7  -2  386.57   32.06
   2   7   2  405.84   32.06
  -2  -7   2  354.15   32.17
  -2  -7   2  422.27   32.12
  -2   7   3  150.24   12.40
   2  -7   3  144.91   12.43
  -2   7   3  150.26   12.40
   2  -7   3  144.51   12.45
   2  -7   3  144.92   12.43
  -2   7   3  163.34   12.44
   2  -7   3  144.51   12.45
  -2   7   3  163.34   12.44
   2  -7   3  143.89   12.40
   2  -7   3  143.89   12.40
   2   7   3  163.25   12.44
   2   7   3  138.75   12.40
   2  -7  -3  145.69   12.39
   2   7   3  163.25   12.44
   2  -7  -3  145.69   12.39
   2   7   3  138.76   12.40
  -2   7   4  185.67   16.05
   2  -7   4  194.15   16.10
  -2   7   4  185.68   16.05
   2  -7   4  194.15   16.10
  -2  -7   4  192.57   16.10
   2  -7  -4  195.82   15.98
  -2  -7   4  192.57   16.10
   2  -7  -4  195.82   15.98
   2   7   4  195.62   16.06
   2   7   4  195.62   16.06
  -2   7   5   68.31    6.32
  -2   7   5   68.31    6.32
   2  -7   5   78.83    6.43
   2  -7   5   78.83    6.43
   2  -7   5   66.89    6.30
   2  -7   5   78.46    6.36
  -2   7   5   84.73    6.30
  -2   7   5   84.73    6.30
   2  -7   5   78.46    6.36
   2  -7   5   66.89    6.30
   2   7   5   71.51    6.32
   2   7   5   71.51    6.32
  -2  -7   5   67.87    6.33
   2   7   5   71.31    6.29
  -2  -7   5   67.87    6.33
  -2  -7   5   88.27    6.42
  -2  -7   5   88.27    6.42
   2   7   5   71.30    6.29
   3  -7   0   30.87    2.60
   3  -7   0   27.67    2.57
  -3  -7   0   33.54    2.59
   3   7   0   29.11    2.59
  -3  -7   0   33.54    2.59
  -3   7   0   30.61    2.56
   3  -7   0   30.12    2.59
   3  -7   0   30.87    2.60
  -3   7   0   30.61    2.56
  -3   7   0   32.24    2.59
   3   7   0   32.26    2.56
   3  -7   0   30.12    2.59
   3   7   0   32.26    2.56
   3  -7   0   27.67    2.57
   3   7   0   29.11    2.59
  -3   7   0   32.24    2.59
   3  -7   1   28.12    2.58
   3   7  -1   28.72    2.57
  -3   7   1   27.58    2.59
  -3  -7  -1   34.56    2.56
  -3  -7  -1   34.56    2.56
   3  -7   1   28.12    2.58
   3   7  -1   28.72    2.57
  -3   7   1   34.63    2.56
   3  -7   1   32.15    2.59
  -3   7   1   34.63    2.56
   3  -7   1   32.07    2.59
   3  -7   1   32.15    2.59
   3  -7   1   32.08    2.59
  -3   7   1   27.58    2.59
  -3  -7   1   31.61    2.57
  -3  -7   1   30.82    2.58
  -3  -7   1   25.67    2.58
   3   7   1   29.39    2.59
  -3  -7   1   31.98    2.61
  -3  -7   1   25.67    2.58
  -3  -7   1   30.82    2.58
  -3  -7   1   31.61    2.57
   3   7   1   29.39    2.59
  -3  -7   1   31.98    2.61
   3  -7   2   23.68    1.92
  -3   7   2   21.92    1.93
   3  -7   2   24.31    1.90
  -3   7   2   24.70    1.88
  -3   7   2   21.92    1.93
   3  -7   2   23.68    1.92
   3  -7   2   24.31    1.90
   3  -7   2   21.00    1.92
   3  -7   2   21.00    1.92
  -3   7   2   24.70    1.88
  -3  -7   2   21.44    1.88
  -3  -7   2   19.73    1.87
   3   7   2   22.67    1.92
  -3  -7   2   21.44    1.88
  -3  -7   2   19.73    1.87
  -3  -7   2   23.39    1.94
   3  -7  -2   22.36    1.89
  -3  -7   2   23.39    1.94
   3   7   2   22.67    1.92
  -3  -7   2   20.13    1.92
   3   7   2   22.47    1.90
   3  -7  -2   22.36    1.89
   3   7   2   22.47    1.90
  -3  -7   2   20.13    1.92
   3  -7   3   16.33    1.63
   3  -7   3   16.33    1.63
   3  -7   3   19.90    1.59
  -3   7   3   17.36    1.60
  -3   7   3   18.44    1.56
  -3   7   3   18.44    1.56
  -3   7   3   17.36    1.60
   3  -7   3   19.90    1.59
  -3  -7   3   19.90    1.56
   3  -7  -3   18.43    1.55
  -3  -7   3   19.33    1.53
  -3  -7   3   19.33    1.53
   3  -7  -3   18.43    1.55
   3   7   3   17.13    1.60
   3   7   3   16.44    1.56
   3   7   3   17.13    1.60
   3   7   3   16.44    1.56
  -3  -7   3   19.90    1.56
  -3   7   4   14.19    1.12
  -3   7   4   14.19    1.12
   3  -7   4   10.18    1.17
   3  -7   4   10.18    1.17
   3   7   4   11.80    1.10
   3   7   4   11.07    1.11
   3   7   4   11.81    1.10
  -3  -7   4   10.74    1.20
   3   7   4   11.07    1.11
  -3  -7   4   10.74    1.20
   3  -7   5    7.15    0.83
   3  -7   5    8.98    0.90
   3  -7   5    7.15    0.83
  -3   7   5    7.83    0.89
  -3   7   5    7.98    0.79
  -3   7   5    7.98    0.79
   3  -7   5    9.30    1.08
   3  -7   5    9.30    1.08
   3  -7   5    8.98    0.90
  -3   7   5    7.83    0.89
   3   7   5    8.78    1.09
  -3  -7   5    6.94    0.87
  -3  -7   5    6.94    0.87
   3   7   5   10.11    0.81
   3   7   5   10.11    0.81
  -3  -7   5    8.93    1.15
   3   7   5    8.24    0.92
   3   7   5    8.24    0.92
  -3  -7   5   10.77    0.99
   3   7   5    8.78    1.09
  -3  -7   5   10.77    0.99
  -3  -7   5    8.93    1.15
  -4   7   0   44.39    4.08
   4  -7   0   50.46    4.09
  -4  -7   0   50.72    4.09
   4   7   0   47.36    4.09
   4   7   0   47.36    4.09
  -4  -7   0   50.72    4.09
   4  -7   0   51.66    4.10
   4  -7   0   48.72    4.07
   4  -7   0   50.46    4.09
   4  -7   0   51.66    4.10
  -4   7   0   44.39    4.08
   4  -7   0   48.72    4.07
  -4   7   1   71.54    6.43
  -4  -7  -1   86.57    6.43
   4  -7   1   77.44    6.46
  -4  -7  -1   86.57    6.43
   4  -7   1   73.44    6.45
   4   7  -1   68.55    6.44
  -4   7   1   82.03    6.47
   4  -7   1   74.78    6.46
   4  -7   1   77.44    6.46
  -4   7   1   82.03    6.47
   4   7  -1   68.55    6.44
  -4   7   1   71.54    6.43
   4  -7   1   74.78    6.46
   4  -7   1   73.44    6.45
  -4  -7   1   85.43    6.48
  -4  -7   1   85.43    6.48
   4  -7  -1   76.97    6.45
  -4  -7   1   77.88    6.44
   4  -7  -1   76.97    6.45
  -4  -7   1   77.88    6.44
   4  -7   2   35.03    2.92
   4  -7   2   31.35    2.89
   4  -7   2   35.03    2.92
  -4   7   2   34.99    2.93
   4  -7   2   33.54    2.91
   4  -7   2   33.54    2.91
   4  -7   2   31.35    2.89
  -4   7   2   34.99    2.93
  -4   7   2   38.83    2.89
  -4   7   2   38.83    2.89
  -4  -7   2   33.77    2.90
  -4  -7   2   39.24    2.96
  -4  -7   2   31.28    2.92
   4   7   2   37.55    2.91
  -4  -7   2   39.24    2.96
   4   7   2   33.54    2.94
  -4  -7   2   33.77    2.90
  -4  -7   2   29.94    2.88
   4   7   2   33.54    2.94
  -4  -7   2   29.94    2.88
  -4  -7   2   31.28    2.92
   4   7   2   37.55    2.91
   4  -7   3   47.39    4.15
  -4   7   3   51.25    4.14
  -4   7   3   45.17    4.09
  -4   7   3   51.25    4.14
   4  -7   3   47.39    4.15
  -4   7   3   45.17    4.09
   4  -7   3   46.77    4.13
   4  -7   3   46.77    4.13
   4   7   3   44.45    4.10
   4   7   3   45.77    4.13
   4   7   3   44.45    4.10
  -4  -7   3   54.87    4.23
   4   7   3   45.77    4.13
   4  -7  -3   50.27    4.08
   4  -7  -3   50.27    4.08
  -4  -7   3   49.91    4.09
  -4  -7   3   54.87    4.23
  -4  -7   3   46.36    4.08
  -4  -7   3   46.36    4.08
  -4  -7   3   49.91    4.09
  -4  -7   3   55.66    4.09
  -4  -7   3   55.66    4.09
   4  -7   4   20.81    1.94
  -4   7   4   21.75    1.88
   4  -7   4   20.81    1.94
  -4   7   4   21.75    1.88
   4   7   4   20.02    1.82
  -4  -7   4   22.19    1.96
   4   7   4   20.02    1.82
  -4  -7   4   22.19    1.96
   4   7   4   21.58    1.88
   4   7   4   21.58    1.88
   4  -7   5   24.88    2.24
  -4   7   5   26.38    2.28
   4  -7   5   24.88    2.24
   4  -7   5   25.72    2.29
  -4   7   5   26.38    2.28
   4  -7   5   24.28    2.39
   4  -7   5   24.28    2.39
  -4   7   5   25.73    2.22
   4  -7   5   25.72    2.29
  -4   7   5   25.73    2.22
   4   7   5   23.48    2.28
  -4  -7   5   28.07    2.44
   4   7   5   29.04    2.39
   4   7   5   23.48    2.28
   4   7   5   29.04    2.39
   4   7   5   25.86    2.22
  -4  -7   5   28.07    2.44
   4   7   5   25.87    2.22
   5   7   0    7.59    0.61
   5   7   0    7.59    0.61
  -5  -7   0    6.21    0.61
  -5  -7   0    6.61    0.63
  -5   7   0    5.59    0.60
  -5  -7   0    6.61    0.63
  -5   7   0    5.59    0.60
   5  -7   0    6.34    0.61
  -5  -7   0    6.21    0.61
   5  -7   0    6.34    0.61
   5  -7   0    7.37    0.58
   5  -7   0    7.37    0.58
   5  -7   1    0.08    0.07
  -5   7   1    0.40    0.08
   5   7  -1    0.19    0.08
   5  -7   1    0.24    0.10
  -5  -7  -1    0.19    0.06
  -5   7   1    0.27    0.12
  -5   7   1    0.40    0.08
   5  -7   1    0.21    0.10
   5  -7   1    0.21    0.10
  -5   7   1    0.27    0.12
   5   7  -1    0.19    0.08
   5  -7   1    0.08    0.07
  -5  -7  -1    0.19    0.06
   5  -7   1    0.24    0.10
  -5  -7   1   -0.03    0.14
   5   7   1    0.19    0.10
  -5  -7   1    0.21    0.17
  -5  -7   1    0.21    0.17
   5  -7  -1    0.21    0.08
   5   7   1    0.19    0.10
   5   7   1    0.23    0.08
  -5  -7   1    0.13    0.09
  -5  -7   1   -0.03    0.14
   5   7   1    0.23    0.08
  -5   7  -1    0.06    0.12
   5  -7  -1    0.24    0.09
  -5   7  -1    0.06    0.12
   5  -7  -1    0.24    0.09
   5  -7  -1    0.21    0.08
  -5  -7   1    0.13    0.09
   5  -7   2    5.31    0.47
   5  -7   2    5.31    0.47
   5  -7   2    4.79    0.49
   5  -7   2    4.96    0.49
  -5   7   2    4.77    0.54
   5  -7   2    4.79    0.49
   5  -7   2    4.96    0.49
  -5   7   2    4.77    0.54
   5   7   2    4.35    0.52
  -5  -7   2    5.20    0.47
   5  -7  -2    5.75    0.47
  -5  -7   2    4.78    0.53
  -5  -7   2    5.20    0.47
   5   7   2    4.35    0.52
  -5  -7   2    4.78    0.53
   5   7   2    4.70    0.48
   5   7   2    4.70    0.48
   5  -7  -2    5.75    0.47
   5  -7   3    0.14    0.10
   5  -7   3    0.17    0.12
   5  -7   3    0.14    0.10
   5  -7   3    0.19    0.22
  -5   7   3    0.30    0.08
  -5   7   3    0.30    0.08
   5  -7   3    0.17    0.12
   5  -7   3    0.19    0.22
   5  -7  -3    0.20    0.09
  -5  -7   3    0.18    0.11
   5   7   3    0.17    0.10
   5   7   3    0.17    0.10
   5   7   3    0.08    0.20
  -5  -7   3    0.33    0.18
   5   7   3    0.08    0.20
   5  -7  -3    0.20    0.09
   5   7   3    0.09    0.18
  -5  -7   3    0.18    0.11
   5   7   3    0.09    0.18
  -5  -7   3    0.17    0.09
  -5  -7   3    0.33    0.18
  -5  -7   3    0.17    0.09
  -5   7   4    2.24    0.30
   5  -7   4    1.53    0.40
  -5   7   4    2.30    0.37
  -5   7   4    2.24    0.30
   5  -7   4    1.53    0.40
  -5   7   4    2.30    0.37
  -5  -7   4    2.52    0.48
   5   7   4    2.70    0.40
  -5  -7   4    2.43    0.31
   5   7   4    2.52    0.46
   5   7   4    1.94    0.27
  -5  -7   4    2.43    0.31
  -5  -7   4    2.59    0.49
   5   7   4    2.52    0.46
   5   7   4    2.70    0.40
  -5  -7   4    2.52    0.48
  -5  -7   4    2.59    0.49
   5   7   4    1.94    0.27
  -5   7   5    0.03    0.13
  -5   7   5    0.15    0.28
   5  -7   5   -0.27    0.37
  -5   7   5    0.03    0.13
   5  -7   5   -0.27    0.37
   5  -7   5    0.70    0.25
  -5   7   5    0.15    0.28
   5  -7   5    0.37    0.20
   5  -7   5    0.37    0.20
   5  -7   5    0.70    0.25
   5   7   5    0.35    0.31
   5   7   5    0.31    0.13
  -5  -7   5   -0.31    0.49
  -5  -7   5   -0.31    0.49
   5   7   5   -0.12    0.43
   5   7   5    0.31    0.13
  -5  -7   5    0.03    0.31
   5   7   5    0.35    0.31
  -5  -7   5    0.03    0.31
   5   7   5   -0.12    0.43
   6  -7   0    1.84    0.22
   6   7   0    1.71    0.21
  -6  -7   0    1.70    0.26
  -6   7   0    1.69    0.23
  -6   7   0    1.69    0.23
  -6  -7   0    1.70    0.26
   6   7   0    1.71    0.21
   6  -7   0    1.84    0.22
  -6   7   1   15.01    1.31
   6  -7   1   14.22    1.30
  -6   7   1   17.58    1.30
   6   7  -1   13.68    1.29
   6   7  -1   13.68    1.29
   6  -7   1   14.99    1.31
   6  -7   1   16.15    1.33
   6  -7   1   14.99    1.31
  -6  -7  -1   15.45    1.27
  -6   7   1   15.01    1.31
  -6  -7  -1   15.45    1.27
   6  -7   1   14.22    1.30
   6  -7   1   16.15    1.33
  -6   7   1   17.58    1.30
  -6   7  -1   14.69    1.30
   6  -7  -1   15.84    1.31
   6  -7  -1   15.84    1.31
  -6  -7   1   14.48    1.35
   6   7   1   14.90    1.31
  -6   7  -1   14.69    1.30
   6   7   1   14.90    1.31
  -6  -7   1   13.68    1.28
  -6  -7   1   13.68    1.28
  -6  -7   1   14.48    1.35
  -6   7   2    1.59    0.28
  -6   7   2    1.59    0.28
   6  -7   2    1.69    0.24
   6  -7   2    1.58    0.23
  -6   7   2    1.60    0.20
   6  -7   2    1.51    0.24
  -6   7   2    1.60    0.20
   6  -7   2    1.69    0.24
   6  -7   2    1.58    0.23
   6  -7   2    1.51    0.24
  -6   7  -2    1.36    0.20
  -6  -7   2    1.22    0.25
  -6   7  -2    1.36    0.20
   6   7   2    1.51    0.26
  -6  -7   2    1.77    0.23
   6   7   2    1.72    0.23
  -6  -7   2    1.22    0.25
   6   7   2    1.72    0.23
  -6  -7   2    1.63    0.28
  -6  -7   2    1.77    0.23
  -6  -7   2    1.63    0.28
   6   7   2    1.51    0.26
  -6   7   3   10.09    0.81
   6  -7   3    7.91    0.89
  -6   7   3    9.89    0.89
   6  -7   3    7.91    0.89
  -6   7   3    9.89    0.89
  -6   7   3   10.09    0.81
   6   7   3    9.03    0.87
  -6  -7   3    8.41    0.80
  -6  -7   3    7.77    0.79
   6   7   3    9.07    0.87
   6   7   3    9.07    0.87
   6  -7  -3    9.14    0.80
   6  -7  -3    9.14    0.80
   6   7   3    9.03    0.87
  -6  -7   3    8.41    0.80
  -6  -7   3    7.77    0.79
   6  -7   4    0.62    0.36
  -6   7   4    0.82    0.18
  -6   7   4    0.82    0.18
   6  -7   4    1.15    0.26
   6  -7   4    1.15    0.26
   6  -7   4    1.23    0.20
  -6   7   4    1.10    0.28
   6  -7   4    1.23    0.20
  -6   7   4    1.10    0.28
   6  -7   4    0.62    0.36
  -6  -7   4    2.01    0.47
   6   7   4    0.94    0.18
   6   7   4    1.37    0.40
   6   7   4    0.94    0.18
   6   7   4    1.23    0.31
  -6  -7   4    1.26    0.22
   6   7   4    1.23    0.31
  -6  -7   4    1.79    0.40
  -6  -7   4    2.01    0.47
  -6  -7   4    1.79    0.40
  -6  -7   4    1.26    0.22
   6   7   4    1.37    0.40
  -7  -7   0    2.79    0.37
   7  -7   0    3.13    0.34
   7   7   0    2.77    0.31
   7   7   0    2.77    0.31
  -7   7   0    3.16    0.34
   7  -7   0    3.13    0.34
  -7   7   0    3.16    0.34
  -7  -7   0    2.79    0.37
   7  -7   1    0.78    0.17
  -7   7   1    0.66    0.15
   7  -7   1    0.86    0.16
  -7   7   1    0.65    0.15
   7  -7   1    0.86    0.16
  -7   7   1    0.66    0.15
   7   7  -1    0.46    0.11
   7   7  -1    0.46    0.11
   7  -7   1    0.78    0.17
  -7   7   1    0.65    0.15
  -7  -7   1    0.89    0.13
  -7  -7   1    0.71    0.22
  -7  -7   1    0.89    0.13
  -7  -7   1    0.71    0.22
  -7   7  -1    0.45    0.18
  -7   7  -1    0.45    0.18
  -7   7   2    2.62    0.30
   7  -7   2    2.97    0.25
  -7   7   2    2.62    0.30
  -7   7   2    2.55    0.37
   7  -7   2    2.24    0.32
   7  -7   2    2.24    0.32
   7  -7   2    2.07    0.30
   7  -7   2    2.97    0.25
   7  -7   2    2.07    0.30
  -7   7   2    2.55    0.37
   7   7   2    2.44    0.28
   7  -7  -2    3.12    0.30
   7   7   2    1.74    0.28
   7  -7  -2    3.12    0.30
   7   7   2    1.74    0.28
   7   7   2    2.44    0.28
  -7  -7   2    1.88    0.36
  -7  -7   2    2.27    0.35
   7   7   2    2.32    0.34
  -7  -7   2    1.88    0.36
  -7  -7   2    2.40    0.36
  -7  -7   2    2.40    0.36
   7   7   2    2.32    0.34
  -7  -7   2    2.27    0.35
  -7   7   3    0.69    0.23
  -7   7   3    0.95    0.16
   7  -7   3    0.83    0.13
  -7   7   3    0.69    0.23
  -7   7   3    0.95    0.17
   7  -7   3    0.78    0.25
   7  -7   3    0.83    0.13
   7  -7   3    0.78    0.25
   7   7   3    0.53    0.21
   7   7   3    0.09    0.15
   7   7   3    0.61    0.22
  -7  -7   3    0.40    0.15
   7   7   3    0.61    0.22
  -7  -7   3    0.40    0.15
   7  -7  -3    0.58    0.15
   7   7   3    0.09    0.15
   7  -7  -3    0.58    0.15
   7   7   3    0.53    0.21
  -7  -7   3    0.47    0.16
  -7  -7   3    0.47    0.16
   7  -7   4    1.40    0.38
   7  -7   4    1.39    0.24
  -7   7   4    1.78    0.28
  -7   7   4    1.70    0.33
   7  -7   4    1.40    0.38
   7  -7   4    1.25    0.27
  -7   7   4    1.70    0.33
   7  -7   4    1.25    0.27
   7  -7   4    1.39    0.24
  -7   7   4    1.78    0.28
  -7  -7   4    1.41    0.27
  -7  -7   4    1.69    0.38
   7   7   4    1.40    0.32
   7   7   4    1.24    0.38
   7   7   4    1.24    0.38
  -7  -7   4    1.41    0.27
  -7  -7   4    1.78    0.46
   7   7   4    1.40    0.32
  -7  -7   4    1.69    0.38
  -7  -7   4    1.78    0.46
  -8   7   0  291.25   25.54
   8  -7   0  324.27   25.57
   8  -7   0  324.27   25.57
  -8   7   0  291.25   25.54
  -8   7   1   96.97    8.21
   8  -7   1  116.85    8.22
  -8   7   1   96.97    8.21
   8  -7   1  116.85    8.22
   8   7   1   98.32    8.22
  -8  -7   1   84.95    8.26
  -8  -7   1   89.95    8.17
   8  -7  -1  116.56    8.24
   8   7   1   98.32    8.22
  -8   7  -1   85.64    8.21
  -8  -7   1   89.95    8.17
   8  -7  -1  116.56    8.24
  -8  -7   1   84.95    8.26
  -8   7  -1   85.64    8.21
  -8   7   2  322.89   23.48
   8  -7   2  307.86   23.46
   8  -7   2  275.64   23.45
   8  -7   2  275.64   23.45
   8  -7   2  307.86   23.46
  -8   7   2  322.89   23.48
  -8  -7   2  254.74   23.45
  -8  -7   2  261.43   23.46
   8   7   2  297.79   23.47
  -8  -7   2  261.43   23.46
   8  -7  -2  270.19   23.45
   8   7   2  270.42   23.42
   8  -7  -2  270.19   23.45
  -8  -7   2  254.74   23.45
   8   7   2  270.42   23.42
   8   7   2  297.79   23.47
  -8   7   3   64.80    5.67
   8  -7   3   65.31    5.67
  -8   7   3   64.80    5.67
   8  -7   3   65.31    5.67
   8   7   3   64.68    5.64
  -8  -7   3   70.99    5.63
   8   7   3   64.68    5.64
   8   7   3   70.19    5.67
  -8  -7   3   70.99    5.63
   8   7   3   70.19    5.67
  -8   7   4  188.87   14.31
   8  -7   4  184.61   14.23
   8  -7   4  157.65   14.31
  -8   7   4  188.87   14.31
  -8   7   4  168.53   14.28
   8  -7   4  184.61   14.23
   8  -7   4  148.38   14.37
   8  -7   4  157.65   14.31
   8  -7   4  148.38   14.37
  -8   7   4  168.53   14.28
  -8  -7   4  175.06   14.24
  -8  -7   4  175.06   14.24
   8   7   4  161.11   14.29
   8   7   4  161.11   14.29
   8   7   4  174.84   14.28
  -8  -7   4  187.54   14.33
   8   7   4  164.99   14.25
  -8  -7   4  187.54   14.33
   8   7   4  174.84   14.28
   8   7   4  165.00   14.25
   9  -7   0    0.71    0.09
   9  -7   0    0.71    0.09
   9  -7   0    0.57    0.18
  -9   7   0    0.57    0.19
   9  -7   0    0.57    0.18
  -9  -7   0    0.58    0.24
  -9  -7   0    0.58    0.24
  -9   7   0    0.57    0.19
   9  -7   1    5.16    0.64
   9  -7   1    5.16    0.64
  -9   7   1    7.29    0.64
   9  -7   1    7.04    0.64
  -9   7   1    7.29    0.64
   9  -7   1    7.04    0.64
   9   7   1    6.50    0.62
   9   7   1    6.50    0.62
  -9  -7   1    5.74    0.74
  -9  -7   1    5.74    0.74
   9  -7  -1    7.45    0.66
   9  -7  -1    7.45    0.66
  -9   7   2    0.34    0.17
   9  -7   2    0.67    0.11
   9  -7   2    0.59    0.19
  -9   7   2    0.34    0.17
  -9   7   2    0.99    0.24
  -9   7   2    0.99    0.24
   9  -7   2    0.59    0.19
   9  -7   2    0.67    0.11
  -9   7  -2    0.56    0.22
   9   7   2    0.44    0.17
   9   7   2    0.56    0.13
   9   7   2    0.44    0.17
   9   7   2    0.56    0.13
  -9  -7   2    0.59    0.24
  -9  -7   2    0.54    0.23
  -9   7  -2    0.56    0.22
  -9  -7   2    0.59    0.24
  -9  -7   2    0.54    0.23
   9  -7   3    4.86    0.40
   9  -7   3    4.15    0.54
  -9   7   3    3.72    0.55
   9  -7   3    4.15    0.54
   9  -7   3    4.86    0.40
  -9   7   3    3.72    0.55
  -9  -7   3    4.79    0.49
   9   7   3    3.78    0.49
  -9  -7   3    3.07    0.52
  -9  -7   3    3.07    0.52
   9   7   3    3.77    0.53
   9   7   3    3.77    0.53
   9   7   3    4.24    0.46
   9   7   3    3.78    0.49
  -9  -7   3    4.79    0.49
  -9  -7   3    4.70    0.59
   9   7   3    4.24    0.46
  -9  -7   3    4.70    0.59
  -9   7   4    0.21    0.28
  -9   7   4    0.18    0.19
   9  -7   4    0.20    0.15
   9  -7   4   -0.22    0.33
   9  -7   4    0.20    0.15
  -9   7   4    0.18    0.19
   9  -7   4    0.17    0.18
   9  -7   4    0.17    0.18
   9  -7   4   -0.22    0.33
  -9   7   4    0.21    0.28
  -9  -7   4    0.72    0.43
   9   7   4    0.27    0.27
  -9  -7   4    0.49    0.25
  -9  -7   4    0.72    0.43
   9   7   4    0.31    0.14
   9   7   4   -0.27    0.34
   9   7   4    0.31    0.14
   9   7   4   -0.27    0.34
  -9  -7   4    0.49    0.25
   9   7   4    0.27    0.27
  10   7   0   28.22    2.20
  10  -7   0   23.02    2.15
 -10  -7   0   25.57    2.27
 -10   7   0   26.71    2.23
  10  -7   0   23.02    2.15
  10   7   0   28.22    2.20
 -10  -7   0   25.57    2.27
 -10   7   0   26.71    2.23
 -10   7   1    5.17    0.55
 -10   7   1    5.17    0.55
  10   7   1    5.18    0.51
 -10  -7   1    4.70    0.67
 -10   7  -1    4.69    0.63
 -10  -7   1    4.70    0.67
 -10   7  -1    4.69    0.63
  10   7   1    5.18    0.51
  10  -7   2   21.72    1.85
  10  -7   2   21.72    1.85
  10  -7   2   23.27    1.78
  10  -7   2   23.27    1.78
 -10   7  -2   21.60    1.87
 -10  -7   2   18.22    1.85
 -10  -7   2   18.22    1.85
  10   7   2   20.94    1.79
 -10  -7   2   21.79    1.90
  10   7   2   20.27    1.85
  10   7   2   20.94    1.79
  10   7   2   20.27    1.85
 -10  -7   2   21.79    1.90
 -10   7  -2   21.60    1.87
  10  -7   3    4.53    0.43
  10  -7   3    4.53    0.43
 -10   7   3    4.47    0.60
 -10   7   3    4.47    0.60
  10  -7   3    4.51    0.59
  10  -7   3    4.51    0.59
 -10  -7   3    5.14    0.54
  10   7   3    4.34    0.55
 -10  -7   3    5.14    0.54
 -10  -7   3    3.76    0.58
  10   7   3    4.33    0.50
  10   7   3    4.34    0.55
 -10  -7   3    3.76    0.58
  10   7   3    4.33    0.50
 -10   7   4   10.94    1.18
  10  -7   4   11.70    1.11
  10  -7   4   11.70    1.11
 -10   7   4   11.72    1.23
 -10   7   4   11.72    1.23
  10  -7   4   11.99    1.25
 -10   7   4   10.94    1.18
  10  -7   4   11.99    1.25
  10   7   4   12.54    1.12
  10   7   4   12.54    1.12
  10   7   4   12.97    1.18
 -10  -7   4   12.12    1.31
  10   7   4   12.97    1.18
 -10  -7   4   14.28    1.18
 -10  -7   4   14.28    1.18
  10   7   4   11.49    1.21
 -10  -7   4   12.12    1.31
  10   7   4   11.49    1.21
 -11   7   0   -0.32    0.19
 -11  -7   0   -0.05    0.25
 -11   7   0   -0.32    0.19
 -11  -7   0   -0.05    0.25
  11   7   0    0.15    0.12
  11   7   0    0.15    0.12
 -11  -7  -1    1.04    0.31
 -11  -7  -1    1.04    0.31
 -11   7   1    1.38    0.26
 -11   7   1    1.38    0.26
  11   7   1    0.98    0.20
  11   7   1    0.98    0.20
 -11  -7   1    1.11    0.35
 -11   7  -1    0.51    0.33
 -11  -7   1    1.11    0.35
 -11   7  -1    0.51    0.33
  11  -7   2    0.11    0.06
  11  -7   2    0.11    0.06
  11  -7   2   -0.11    0.17
 -11   7   2    0.05    0.19
  11  -7   2   -0.11    0.17
 -11   7   2    0.05    0.19
  11   7   2   -0.21    0.12
 -11  -7   2   -0.12    0.27
 -11  -7   2    0.06    0.26
 -11  -7   2    0.06    0.26
  11   7   2    0.25    0.16
 -11   7  -2   -0.18    0.29
  11   7   2    0.25    0.16
 -11   7  -2   -0.18    0.29
  11   7   2   -0.21    0.12
 -11  -7   2   -0.12    0.27
  11  -7   3    0.81    0.27
 -11   7   3    0.51    0.27
 -11   7   3    0.51    0.27
  11  -7   3    0.81    0.27
  11  -7   3    0.77    0.22
  11  -7   3    0.77    0.22
 -11  -7   3    0.99    0.41
  11   7   3    0.74    0.19
 -11  -7   3    0.62    0.24
 -11  -7   3    0.62    0.24
  11   7   3    0.74    0.19
 -11  -7   3    0.99    0.41
 -11   7   4   -0.28    0.30
  11  -7   4    0.31    0.38
 -11   7   4   -0.28    0.30
 -11   7   4   -0.21    0.24
  11  -7   4    0.31    0.38
 -11   7   4   -0.21    0.24
  11   7   4    0.21    0.36
 -11  -7   4   -0.26    0.30
  11   7   4    0.24    0.26
  11   7   4    0.11    0.16
  11   7   4    0.24    0.26
 -11  -7   4    0.24    0.45
 -11  -7   4   -0.26    0.30
  11   7   4    0.21    0.36
 -11  -7   4    0.24    0.45
  11   7   4    0.11    0.16
 -12   7   0   14.49    1.34
 -12   7   0   14.49    1.34
 -12  -7   0   13.09    1.35
 -12  -7   0   13.09    1.35
 -12  -7  -1   26.90    2.24
 -12  -7  -1   26.90    2.24
 -12   7   1   28.42    2.19
 -12   7   1   28.42    2.19
 -12  -7   1   23.71    2.27
  12   7   1   23.30    2.14
 -12   7  -1   22.22    2.24
  12   7   1   23.30    2.14
 -12  -7   1   23.71    2.27
 -12   7  -1   22.22    2.24
  12  -7   2   10.95    1.07
  12  -7   2   10.95    1.07
 -12   7   2   12.62    1.10
 -12   7   2   12.62    1.10
 -12  -7   2    9.92    1.10
 -12   7  -2   10.78    1.21
 -12  -7   2   12.93    1.17
 -12   7  -2   10.78    1.21
 -12  -7   2    9.92    1.10
 -12  -7   2   12.93    1.17
 -12   7   3   19.72    1.81
 -12   7   3   19.72    1.81
  12  -7   3   16.73    1.77
  12  -7   3   16.73    1.77
 -12  -7   3   16.80    1.82
 -12  -7   3   16.80    1.82
  12   7   3   22.81    1.80
  12   7   3   22.81    1.80
  12   7   3   22.71    1.76
 -12  -7   3   21.06    1.77
 -12  -7   3   21.06    1.77
  12   7   3   18.11    1.74
  12   7   3   18.11    1.74
  12   7   3   22.71    1.76
 -13   7   0   12.40    1.19
 -13   7   0   12.39    1.19
 -13  -7   0   11.11    1.21
 -13  -7   0   11.11    1.21
 -13   7   1    2.21    0.37
 -13  -7  -1    2.06    0.45
 -13   7   1    2.21    0.37
 -13  -7  -1    2.06    0.45
 -13  -7   1    1.73    0.46
 -13  -7   1    1.73    0.46
  13   7   1    2.85    0.36
  13   7   1    2.85    0.36
  13  -7   2   10.59    0.94
 -13   7   2   10.28    0.97
  13  -7   2   10.59    0.94
 -13   7   2   10.28    0.97
 -13  -7   2    9.68    1.03
 -13   7  -2    8.25    1.16
 -13  -7   2    9.68    1.03
  13   7   2   10.74    0.92
  13   7   2    7.61    0.90
  13   7   2    7.61    0.90
 -13   7  -2    8.25    1.16
  13   7   2   10.74    0.92
  13  -7   3    1.91    0.41
 -13   7   3    2.53    0.43
  13  -7   3    1.91    0.41
 -13   7   3    2.53    0.43
 -13  -7   3    1.69    0.38
 -13  -7   3    1.89    0.62
  13   7   3    1.72    0.32
 -13  -7   3    1.69    0.38
  13   7   3    1.72    0.32
 -13  -7   3    0.68    0.46
  13   7   3    1.70    0.32
 -13  -7   3    0.68    0.46
 -13  -7   3    1.89    0.62
  13   7   3    1.70    0.32
 -14  -7  -1   88.45    8.42
 -14  -7  -1   88.45    8.42
 -14   7   1  115.91    8.39
 -14   7   1  115.91    8.39
 -14   7  -1  111.26    8.47
 -14  -7   1   83.26    8.43
 -14  -7   1   83.26    8.43
 -14   7  -1  111.26    8.47
 -14  -7  -2   70.21    6.54
 -14  -7  -2   70.21    6.54
 -14   7   2   82.19    6.51
 -14   7   2   82.19    6.51
 -14   7  -2   78.52    6.61
  14   7   2   72.30    6.49
 -14   7  -2   78.52    6.61
 -14  -7   2   82.11    6.54
 -14  -7   2   82.11    6.54
  14   7   2   72.30    6.49
 -15  -7   0    3.23    0.66
 -15   7   0    4.60    0.64
 -15   7   0    4.60    0.64
 -15  -7   0    3.23    0.66
 -15   7   1    1.82    0.40
 -15  -7  -1    1.63    0.50
 -15  -7  -1    1.63    0.50
 -15   7   1    1.82    0.40
 -15   7  -1    2.80    0.68
 -15  -7   1    1.04    0.49
 -15  -7   1    1.04    0.49
 -15   7  -1    2.80    0.68
 -15  -7  -2    2.02    0.57
 -15   7   2    3.52    0.50
 -15  -7  -2    2.02    0.57
 -15   7   2    3.52    0.50
  15   7   2    2.93    0.46
 -15  -7   2    3.59    0.57
 -15  -7   2    3.59    0.57
  15   7   2    2.93    0.46
 -16  -7   0    4.08    0.72
 -16  -7   0    4.08    0.72
 -16  -7  -1    1.16    0.56
 -16  -7  -1    1.16    0.56
 -16   7   1    1.97    0.51
 -16   7   1    1.97    0.51
 -16   7  -1    3.98    0.76
 -16  -7   1    2.53    0.60
 -16   7  -1    3.98    0.76
 -16  -7   1    2.53    0.60
   0  -8   0   22.04    1.79
   0  -8   0   22.04    1.79
   0   8   0   20.40    1.78
   0  -8   0   21.55    1.78
   0  -8   0   21.55    1.78
   0   8   0   20.40    1.78
   0  -8   0   20.45    1.82
   0  -8   0   20.45    1.82
   0  -8   1  119.57    9.57
   0   8   1  110.62    9.54
   0   8  -1  123.15    9.53
   0  -8   1  119.57    9.57
   0   8   1  110.62    9.54
   0  -8   1  102.83    9.56
   0  -8   1  102.83    9.56
   0   8   1  126.15    9.56
   0   8  -1  123.15    9.53
   0   8   1  126.15    9.56
   0  -8   1  123.70    9.55
   0   8  -1   98.26    9.56
   0   8  -1   98.26    9.56
   0  -8   1  123.70    9.55
   0   8  -2   17.84    1.48
   0  -8   2   16.67    1.53
   0  -8   2   16.67    1.53
   0   8   2   16.36    1.50
   0   8   2   17.10    1.53
   0  -8   2   19.90    1.51
   0  -8   2   19.90    1.51
   0   8   2   16.36    1.50
   0   8  -2   17.84    1.48
   0   8   2   17.10    1.53
   0   8   3   84.55    6.42
   0   8   3   82.63    6.38
   0  -8   3   73.29    6.43
   0  -8  -3   65.43    6.38
   0  -8  -3   65.43    6.38
   0  -8   3   73.29    6.43
   0   8   3   84.55    6.42
   0   8   3   82.64    6.38
   0  -8   4   12.73    1.17
   0   8   4   12.98    1.07
   0   8   4   10.77    0.97
   0  -8   4   12.73    1.17
   0   8   4   12.98    1.07
   0  -8  -4    9.51    0.95
   0  -8  -4    9.51    0.95
   0   8   4   10.77    0.97
   0   8   5   38.53    3.45
   0  -8   5   42.74    3.57
   0  -8   5   42.90    3.48
   0  -8   5   35.30    3.43
   0  -8   5   42.74    3.57
   0   8   5   40.92    3.39
   0   8   5   40.92    3.39
   0  -8   5   42.90    3.48
   0   8   5   38.53    3.45
   0  -8   5   35.30    3.43
   1  -8   0    8.36    0.73
  -1   8   0    7.80    0.73
   1  -8   0    7.77    0.76
   1   8   0    8.78    0.73
   1  -8   0    9.03    0.72
   1  -8   0    9.03    0.72
  -1  -8   0    8.82    0.73
  -1  -8   0    8.26    0.74
  -1   8   0    7.80    0.73
  -1  -8   0    8.26    0.74
  -1  -8   0    8.82    0.73
   1   8   0    8.78    0.73
   1  -8   0    8.36    0.73
   1  -8   0    7.77    0.76
   1  -8   1   29.25    2.22
   1  -8   1   29.25    2.22
   1  -8   1   24.09    2.20
  -1  -8  -1   24.56    2.19
  -1   8   1   27.00    2.21
  -1  -8  -1   24.56    2.19
  -1   8   1   27.00    2.21
   1   8  -1   23.83    2.18
  -1   8   1   23.90    2.19
   1   8  -1   23.83    2.18
  -1   8   1   23.90    2.19
   1  -8   1   27.43    2.22
   1  -8   1   27.43    2.22
   1  -8   1   24.09    2.20
   1  -8  -1   27.01    2.24
   1   8   1   27.61    2.21
   1  -8  -1   27.01    2.24
   1   8   1   28.73    2.20
  -1  -8   1   29.42    2.23
  -1  -8   1   25.87    2.20
  -1  -8   1   29.42    2.23
  -1   8  -1   25.04    2.18
   1   8   1   27.61    2.21
  -1  -8   1   25.87    2.20
  -1   8  -1   25.04    2.18
  -1   8  -1   22.63    2.19
  -1   8  -1   22.63    2.19
   1   8   1   28.73    2.20
   1  -8   2    7.44    0.62
  -1   8   2    7.20    0.60
   1  -8   2    5.73    0.64
   1  -8   2    7.44    0.62
  -1   8   2    7.20    0.60
  -1   8   2    6.35    0.64
  -1   8   2    6.35    0.64
   1  -8   2    5.73    0.64
  -1  -8   2    5.83    0.65
   1   8   2    6.55    0.64
   1   8   2    6.55    0.64
  -1   8  -2    7.63    0.70
  -1  -8   2    5.83    0.65
  -1   8  -2    6.95    0.58
  -1  -8   2    6.89    0.62
   1   8   2    6.58    0.61
  -1   8  -2    6.95    0.58
   1  -8  -2    5.64    0.63
  -1  -8   2    7.16    0.65
   1   8   2    7.87    0.61
   1   8   2    6.58    0.61
  -1  -8   2    6.89    0.62
   1  -8  -2    5.64    0.63
  -1  -8   2    7.16    0.65
  -1   8  -2    7.63    0.70
   1   8   2    7.87    0.61
   1  -8   3   16.89    1.35
   1  -8   3   14.79    1.40
  -1   8   3   17.22    1.35
   1  -8   3   16.89    1.35
   1  -8   3   17.42    1.44
   1  -8   3   17.42    1.44
  -1   8   3   17.22    1.35
  -1   8   3   14.45    1.39
  -1   8   3   14.45    1.39
   1  -8   3   14.79    1.40
  -1  -8   3   14.07    1.43
   1   8   3   14.68    1.39
   1   8   3   14.92    1.35
  -1  -8   3   14.07    1.43
   1   8   3   14.68    1.39
   1   8   3   14.92    1.35
   1  -8   4    3.87    0.58
  -1   8   4    4.43    0.41
  -1   8   4    4.05    0.53
   1  -8   4    3.87    0.58
  -1   8   4    4.05    0.53
  -1   8   4    4.43    0.41
  -1  -8  -4    2.85    0.42
  -1  -8  -4    2.85    0.42
   1  -8  -4    4.04    0.38
   1   8   4    4.46    0.41
  -1  -8   4    3.82    0.59
   1   8   4    4.46    0.41
   1   8   4    3.68    0.54
   1   8   4    3.68    0.54
  -1  -8   4    3.82    0.59
   1  -8  -4    4.04    0.38
   1  -8   5    7.93    1.10
  -1   8   5    8.01    0.78
  -1   8   5    8.01    0.78
  -1   8   5    7.41    0.90
   1  -8   5    7.35    0.84
   1  -8   5    9.88    0.91
   1  -8   5    7.93    1.10
  -1   8   5    7.41    0.90
   1  -8   5    9.88    0.91
   1  -8   5    7.35    0.84
   1   8   5    7.40    0.90
  -1  -8   5    9.47    1.15
   1   8   5    8.89    0.78
  -1  -8   5    9.47    1.15
   1   8   5    8.89    0.78
   1   8   5    7.40    0.90
  -1  -8   5    7.39    0.85
  -1  -8   5    9.11    0.93
  -1  -8   5    7.39    0.85
  -1  -8   5    9.11    0.93
  -2   8   0   58.94    4.52
   2   8   0   55.88    4.52
   2   8   0   55.97    4.51
   2  -8   0   49.61    4.54
  -2   8   0   47.79    4.50
  -2  -8   0   57.38    4.52
   2   8   0   55.88    4.52
  -2   8   0   58.94    4.52
  -2  -8   0   47.40    4.51
   2  -8   0   57.28    4.52
   2   8   0   55.97    4.51
   2  -8   0   57.39    4.50
  -2   8   0   47.79    4.50
   2  -8   0   57.39    4.50
  -2  -8   0   47.40    4.51
   2  -8   0   57.28    4.52
  -2  -8   0   57.38    4.52
   2  -8   0   49.61    4.54
   2  -8   1   27.84    2.41
  -2   8   1   31.21    2.38
   2  -8   1   27.84    2.41
  -2   8   1   31.21    2.38
   2   8  -1   30.31    2.39
   2  -8   1   25.39    2.40
   2  -8   1   31.95    2.41
   2   8  -1   30.31    2.39
  -2  -8  -1   29.50    2.38
   2  -8   1   25.39    2.40
   2  -8   1   31.95    2.41
  -2  -8  -1   29.50    2.38
   2   8   1   25.23    2.39
  -2  -8   1   30.55    2.39
  -2  -8   1   24.12    2.38
   2   8   1   23.95    2.38
   2   8   1   25.23    2.39
   2   8   1   23.95    2.38
   2  -8  -1   28.60    2.42
  -2  -8   1   24.12    2.38
   2   8   1   32.42    2.41
  -2  -8   1   26.75    2.38
  -2   8  -1   31.53    2.37
  -2  -8   1   26.75    2.38
  -2  -8   1   27.42    2.41
   2   8   1   32.42    2.41
  -2   8  -1   31.53    2.37
   2  -8  -1   28.60    2.42
  -2  -8   1   30.55    2.39
  -2  -8   1   27.42    2.41
   2  -8   2   48.31    3.67
   2  -8   2   46.46    3.70
   2  -8   2   39.93    3.68
  -2   8   2   43.95    3.69
  -2   8   2   43.95    3.69
  -2   8   2   47.87    3.65
   2  -8   2   48.31    3.67
   2   8  -2   45.40    3.65
   2  -8   2   39.93    3.68
  -2   8   2   47.87    3.65
   2  -8   2   46.46    3.70
   2   8  -2   45.40    3.65
   2   8   2   43.38    3.66
   2  -8  -2   40.94    3.67
   2   8   2   41.60    3.64
   2   8   2   41.60    3.64
  -2  -8   2   41.26    3.69
   2   8   2   41.19    3.69
  -2  -8   2   41.26    3.69
   2   8   2   43.38    3.66
   2   8   2   41.19    3.69
   2  -8  -2   40.94    3.67
  -2   8   3   15.57    1.50
  -2   8   3   15.57    1.50
  -2   8   3   19.19    1.46
   2  -8   3   17.16    1.46
   2  -8   3   18.45    1.52
   2  -8   3   18.45    1.52
   2  -8   3   15.64    1.53
   2  -8   3   15.64    1.53
  -2   8   3   19.19    1.46
   2  -8   3   17.16    1.46
   2  -8  -3   18.04    1.46
   2   8   3   15.31    1.50
  -2  -8   3   15.82    1.54
   2   8   3   15.31    1.50
   2   8   3   16.08    1.46
   2   8   3   16.08    1.46
   2  -8  -3   18.04    1.46
  -2  -8   3   15.82    1.54
   2  -8   4   21.59    1.99
  -2   8   4   22.81    1.94
  -2   8   4   22.81    1.94
   2  -8   4   21.59    1.99
  -2  -8   4   24.50    2.02
   2   8   4   23.28    1.88
   2   8   4   23.29    1.88
   2  -8  -4   21.36    1.84
  -2  -8   4   18.30    1.83
   2  -8  -4   21.36    1.84
   2   8   4   23.20    1.95
  -2  -8   4   18.30    1.83
  -2  -8   4   24.50    2.02
   2   8   4   23.20    1.95
  -2   8   5    7.63    0.79
   2  -8   5    7.64    0.85
   2  -8   5    8.45    0.92
   2  -8   5    7.64    0.85
   2  -8   5   11.48    1.11
   2  -8   5    8.45    0.92
  -2   8   5    7.63    0.79
   2  -8   5   11.48    1.11
   2   8   5    8.08    0.92
  -2  -8   5    9.16    1.14
  -2  -8   5    9.62    0.96
   2   8   5    9.68    0.81
  -2  -8   5    7.42    0.88
  -2  -8   5    7.42    0.88
   2   8   5    9.68    0.81
  -2  -8   5    9.62    0.96
   2   8   5    8.08    0.92
  -2  -8   5    9.16    1.14
  -3  -8   0    0.93    0.22
   3   8   0    1.40    0.15
  -3  -8   0    1.35    0.17
  -3  -8   0    1.35    0.17
  -3   8   0    1.45    0.20
   3  -8   0    1.70    0.18
  -3   8   0    1.45    0.20
   3   8   0    1.35    0.18
   3  -8   0    1.31    0.18
  -3   8   0    1.42    0.13
   3   8   0    1.40    0.15
   3  -8   0    1.70    0.18
  -3   8   0    1.42    0.13
   3  -8   0    1.31    0.18
   3  -8   0    1.36    0.18
  -3  -8   0    0.93    0.22
   3  -8   0    1.36    0.18
   3   8   0    1.35    0.18
   3  -8   1    2.82    0.31
   3  -8   1    3.32    0.32
  -3   8   1    2.96    0.28
  -3   8   1    3.11    0.35
   3   8  -1    2.82    0.30
  -3   8   1    2.96    0.28
   3  -8   1    3.18    0.32
   3  -8   1    3.18    0.32
  -3  -8  -1    3.52    0.29
   3  -8   1    3.32    0.32
   3   8  -1    2.82    0.30
  -3  -8  -1    3.52    0.29
   3  -8   1    2.82    0.31
  -3   8   1    3.11    0.35
  -3  -8   1    3.04    0.32
  -3  -8   1    3.30    0.31
  -3  -8   1    3.04    0.32
   3   8   1    3.38    0.33
   3   8   1    3.38    0.33
  -3  -8   1    2.55    0.34
   3  -8  -1    3.24    0.32
   3  -8  -1    3.24    0.32
  -3  -8   1    2.99    0.33
  -3  -8   1    2.55    0.34
  -3  -8   1    2.99    0.33
  -3  -8   1    3.30    0.31
   3   8  -2    1.10    0.15
   3   8  -2    1.10    0.15
  -3   8   2    1.41    0.21
  -3  -8  -2    0.86    0.21
   3  -8   2    0.70    0.16
   3  -8   2    1.04    0.19
  -3   8   2    1.20    0.13
  -3   8   2    1.20    0.13
   3  -8   2    0.70    0.16
  -3  -8  -2    0.86    0.21
   3  -8   2    1.04    0.19
   3  -8   2    1.25    0.17
  -3   8   2    1.41    0.21
   3  -8   2    1.25    0.17
  -3  -8   2    0.71    0.17
   3  -8  -2    1.17    0.16
  -3   8  -2    0.74    0.14
  -3  -8   2    0.96    0.21
  -3  -8   2    0.85    0.17
  -3  -8   2    0.71    0.17
   3   8   2    1.36    0.17
   3  -8  -2    1.17    0.16
  -3  -8   2    0.85    0.17
  -3  -8   2    1.13    0.13
  -3  -8   2    1.10    0.15
  -3   8  -2    0.74    0.14
   3   8   2    1.36    0.17
  -3  -8   2    1.10    0.15
  -3  -8   2    0.96    0.21
  -3  -8   2    1.13    0.13
  -3  -8  -3    1.09    0.26
   3  -8   3    1.32    0.26
   3  -8   3    1.83    0.33
  -3   8   3    1.54    0.20
   3  -8   3    1.64    0.23
   3  -8   3    1.64    0.23
  -3  -8  -3    1.09    0.26
   3  -8   3    1.82    0.29
   3  -8   3    1.82    0.29
   3  -8   3    1.83    0.33
  -3   8   3    1.70    0.29
  -3   8   3    1.54    0.20
   3  -8   3    1.32    0.26
  -3   8   3    1.70    0.29
   3  -8  -3    1.96    0.21
   3  -8  -3    1.96    0.21
   3   8   3    1.64    0.21
   3   8   3    1.35    0.27
   3   8   3    1.35    0.27
  -3  -8   3    1.43    0.32
  -3  -8   3    2.02    0.21
   3   8   3    1.64    0.21
  -3  -8   3    2.02    0.21
  -3  -8   3    1.43    0.32
  -3  -8  -4    0.24    0.19
   3  -8   4    0.69    0.32
   3  -8   4    0.69    0.32
  -3   8   4    0.50    0.22
  -3   8   4    0.50    0.22
  -3  -8  -4    0.24    0.19
  -3  -8   4    0.46    0.33
   3  -8  -4    0.74    0.13
   3   8   4    0.26    0.23
   3   8   4    0.67    0.14
  -3  -8   4    0.46    0.33
   3   8   4    0.26    0.23
   3  -8  -4    0.74    0.13
   3   8   4    0.67    0.14
  -3   8   5    0.98    0.18
  -3   8   5    0.85    0.32
   3  -8   5    0.43    0.28
   3  -8   5    0.55    0.25
   3  -8   5    0.75    0.49
   3  -8   5    0.43    0.28
  -3   8   5    0.85    0.32
   3  -8   5    0.75    0.49
   3  -8   5    0.55    0.25
  -3   8   5    0.98    0.18
   3   8   5    0.48    0.46
   3   8   5    0.48    0.46
   3   8   5    0.46    0.33
   3   8   5    0.70    0.18
   3   8   5    0.70    0.18
  -3  -8   5    0.98    0.50
   3   8   5    0.46    0.33
  -3  -8   5    0.23    0.31
  -3  -8   5    0.23    0.31
  -3  -8   5    0.98    0.50
   4   8   0   20.15    1.80
  -4   8   0   19.80    1.83
   4  -8   0   24.74    1.85
  -4  -8   0   20.54    1.83
   4  -8   0   24.74    1.85
   4  -8   0   22.85    1.84
   4   8   0   20.15    1.80
   4  -8   0   22.85    1.84
  -4  -8   0   20.54    1.83
  -4   8   0   19.80    1.83
   4  -8   1   52.81    4.89
  -4   8   1   57.36    4.87
  -4   8   1   53.96    4.90
  -4  -8  -1   62.59    4.86
  -4   8   1   57.36    4.87
   4  -8   1   52.81    4.89
  -4  -8  -1   62.59    4.86
   4   8  -1   51.12    4.88
  -4   8   1   53.96    4.90
   4   8  -1   51.12    4.88
  -4   8  -1   64.25    4.87
   4  -8  -1   63.88    4.90
   4   8   1   67.69    4.91
  -4   8  -1   64.25    4.87
   4  -8  -1   63.88    4.90
  -4  -8   1   55.69    4.87
  -4  -8   1   59.72    4.92
  -4  -8   1   54.36    4.91
  -4  -8   1   55.69    4.87
  -4  -8   1   54.36    4.91
  -4  -8   1   59.72    4.92
   4   8   1   67.69    4.91
   4  -8   2   19.16    1.55
  -4   8   2   15.70    1.60
   4  -8   2   18.59    1.55
   4  -8   2   18.59    1.55
   4  -8   2   19.16    1.55
  -4   8   2   15.70    1.60
  -4  -8   2   17.42    1.51
   4   8   2   18.82    1.54
  -4  -8   2   17.80    1.53
  -4  -8   2   17.80    1.53
  -4  -8   2   16.75    1.56
  -4  -8   2   16.75    1.56
   4   8   2   18.82    1.54
   4   8   2   17.08    1.56
  -4  -8   2   17.42    1.51
  -4  -8   2   18.99    1.59
   4   8   2   17.08    1.56
  -4  -8   2   18.99    1.59
  -4   8   3   43.86    3.37
  -4   8   3   43.58    3.31
   4  -8   3   36.27    3.33
   4  -8   3   34.44    3.37
  -4   8   3   43.58    3.31
   4  -8   3   34.44    3.37
  -4   8   3   43.86    3.37
   4  -8   3   36.27    3.33
  -4  -8   3   37.58    3.29
  -4  -8   3   38.69    3.30
  -4  -8   3   44.31    3.42
   4   8   3   34.90    3.35
   4   8   3   37.83    3.32
  -4  -8   3   38.69    3.30
  -4  -8   3   44.15    3.31
  -4  -8   3   44.31    3.42
  -4  -8   3   44.15    3.31
   4   8   3   37.83    3.32
  -4  -8   3   37.58    3.29
   4  -8  -3   37.60    3.30
   4   8   3   34.90    3.35
   4  -8  -3   37.60    3.30
  -4   8   4   10.83    1.01
  -4   8   4   12.20    1.11
  -4   8   4   10.83    1.01
   4  -8   4   11.25    1.19
   4  -8   4   11.25    1.19
  -4   8   4   12.20    1.11
  -4  -8   4   10.92    1.20
   4  -8  -4    9.91    0.99
  -4  -8   4   11.61    1.26
   4   8   4   11.73    1.11
   4   8   4   13.59    1.04
  -4  -8   4   10.92    1.20
   4  -8  -4    9.91    0.99
   4   8   4   13.59    1.04
   4   8   4   11.73    1.11
  -4  -8   4   11.61    1.26
  -4   8   5   15.32    1.56
   4  -8   5   18.34    1.82
  -4   8   5   18.27    1.66
   4  -8   5   18.57    1.66
   4  -8   5   17.47    1.60
   4  -8   5   17.47    1.60
  -4   8   5   15.31    1.56
  -4   8   5   18.27    1.66
   4  -8   5   18.34    1.82
   4  -8   5   18.57    1.66
   4   8   5   21.78    1.79
  -4  -8   5   18.89    1.82
   4   8   5   17.84    1.67
   4   8   5   21.78    1.79
  -4  -8   5   18.89    1.82
   4   8   5   17.84    1.67
  -5   8   0  116.46   10.21
   5  -8   0  121.53   10.23
  -5   8   0  116.46   10.21
  -5  -8   0  130.60   10.22
   5   8   0  122.93   10.22
   5  -8   0  121.53   10.23
   5   8   0  122.93   10.22
  -5  -8   0  130.60   10.22
   5  -8   1   43.37    3.53
   5  -8   1   38.90    3.52
  -5   8   1   40.84    3.54
   5  -8   1   43.49    3.54
   5  -8   1   38.90    3.52
   5   8  -1   43.83    3.51
   5  -8   1   43.37    3.53
   5  -8   1   43.49    3.54
   5   8  -1   43.83    3.51
  -5   8   1   40.84    3.54
  -5  -8   1   39.38    3.55
   5   8   1   44.00    3.54
   5   8   1   44.00    3.54
  -5  -8   1   38.31    3.49
  -5   8  -1   45.11    3.51
  -5  -8   1   39.38    3.55
  -5  -8   1   38.31    3.49
  -5   8  -1   45.11    3.51
   5  -8   2   93.48    8.30
   5  -8   2   94.48    8.33
   5  -8   2   93.48    8.30
   5  -8   2  111.73    8.34
   5  -8   2   99.56    8.33
   5  -8   2  111.73    8.34
   5  -8   2   99.56    8.33
   5  -8   2   94.48    8.33
  -5   8   2   94.41    8.46
  -5   8   2   94.41    8.46
  -5  -8   2   97.46    8.30
   5   8   2  104.91    8.35
  -5  -8   2  101.96    8.34
  -5  -8   2  101.96    8.34
  -5  -8   2   97.46    8.30
   5   8   2  104.91    8.35
   5  -8   3   25.49    2.36
   5  -8   3   25.49    2.36
   5  -8   3   28.76    2.32
  -5   8   3   28.88    2.30
   5  -8   3   28.76    2.32
  -5   8   3   28.88    2.30
   5  -8  -3   25.96    2.29
   5   8   3   24.94    2.35
  -5  -8   3   27.27    2.30
   5   8   3   24.94    2.35
  -5  -8   3   27.90    2.29
   5  -8  -3   25.96    2.29
  -5  -8   3   27.27    2.30
  -5  -8   3   27.90    2.29
   5  -8   4   59.69    4.75
   5  -8   4   59.69    4.75
   5  -8   4   60.68    4.93
  -5   8   4   57.29    4.80
  -5   8   4   57.29    4.80
   5  -8   4   60.68    4.93
  -5   8   4   50.99    4.74
  -5   8   4   50.99    4.74
   5  -8   4   55.38    4.84
   5  -8   4   55.38    4.84
   5   8   4   54.10    4.75
  -5  -8   4   54.69    4.84
   5   8   4   58.25    4.83
  -5  -8   4   54.69    4.84
   5   8   4   58.25    4.83
   5   8   4   57.79    4.80
   5   8   4   54.09    4.75
   5   8   4   57.79    4.80
   6  -8   0   12.22    0.96
   6   8   0   10.30    0.94
  -6  -8   0   11.31    0.98
  -6   8   0   10.14    0.94
  -6  -8   0    9.77    0.95
  -6  -8   0   11.31    0.98
   6  -8   0   12.22    0.96
   6   8   0   10.30    0.94
  -6  -8   0    9.77    0.95
  -6   8   0   10.14    0.94
   6  -8   1  242.10   18.98
   6   8  -1  242.07   18.96
   6   8  -1  242.07   18.96
   6  -8   1  234.02   18.98
   6  -8   1  215.89   18.99
   6  -8   1  215.90   18.99
   6  -8   1  242.10   18.98
   6  -8   1  234.02   18.98
  -6  -8   1  212.98   19.01
  -6  -8   1  212.98   19.01
  -6  -8   1  241.90   18.94
  -6   8  -1  238.37   18.96
  -6   8  -1  238.37   18.96
   6   8   1  200.65   19.00
   6   8   1  200.65   19.00
  -6  -8   1  241.90   18.94
  -6   8   2    8.95    0.87
   6  -8   2    9.20    0.84
   6  -8   2    9.38    0.79
   6  -8   2    8.01    0.87
   6  -8   2    9.38    0.79
   6  -8   2    9.20    0.84
  -6   8   2    8.95    0.87
   6  -8   2    8.01    0.87
   6   8   2    8.88    0.82
   6   8   2    8.90    0.85
   6   8   2    8.90    0.85
   6   8   2    7.80    0.81
   6   8   2    8.88    0.82
  -6  -8   2   10.98    0.89
  -6  -8   2   10.98    0.89
  -6  -8   2    9.51    0.81
   6   8   2    7.80    0.81
  -6  -8   2    9.36    0.86
  -6  -8   2    9.51    0.81
  -6  -8   2    9.36    0.86
  -6   8   3  172.84   14.23
  -6   8   3  181.18   14.18
  -6   8   3  172.84   14.23
   6  -8   3  191.84   14.18
  -6   8   3  181.17   14.18
   6  -8   3  153.97   14.21
   6  -8   3  153.97   14.21
   6  -8   3  191.84   14.18
  -6  -8   3  171.60   14.19
   6   8   3  150.35   14.20
   6  -8  -3  163.95   14.17
   6   8   3  177.90   14.23
   6   8   3  177.90   14.23
   6   8   3  150.35   14.20
  -6  -8   3  171.60   14.19
   6  -8  -3  163.95   14.17
  -6   8   4    8.71    0.80
   6  -8   4    8.80    0.81
  -6   8   4    8.71    0.80
  -6   8   4   10.85    0.91
   6  -8   4    7.03    0.96
   6  -8   4    7.03    0.96
   6  -8   4    8.80    0.81
  -6   8   4   10.85    0.91
   6   8   4    7.79    0.90
  -6  -8   4   10.59    0.98
  -6  -8   4   10.59    0.98
  -6  -8   4    9.67    0.82
  -6  -8   4    9.67    0.82
  -6  -8   4    7.82    1.00
   6   8   4    7.58    0.96
  -6  -8   4    7.82    1.00
   6   8   4    7.58    0.96
   6   8   4    7.06    0.79
   6   8   4    7.79    0.90
   6   8   4    7.06    0.79
   7   8   0    0.28    0.10
   7  -8   0    0.48    0.13
  -7  -8   0    0.37    0.14
  -7   8   0    0.59    0.14
   7   8   0    0.28    0.10
   7  -8   0    0.48    0.13
  -7   8   0    0.59    0.14
  -7  -8   0    0.37    0.14
   7  -8   1    1.18    0.21
   7   8  -1    1.18    0.18
  -7   8   1    1.13    0.24
  -7   8   1    1.02    0.21
   7  -8   1    1.56    0.21
  -7  -8  -1    1.60    0.17
   7  -8   1    1.23    0.25
  -7   8   1    1.13    0.24
  -7   8   1    1.02    0.21
   7  -8   1    1.56    0.21
   7  -8   1    1.23    0.25
  -7  -8  -1    1.60    0.17
   7   8  -1    1.18    0.18
   7  -8   1    1.18    0.21
  -7   8  -1    1.66    0.26
   7   8   1    1.11    0.20
   7  -8  -1    1.62    0.21
   7  -8  -1    1.62    0.21
  -7   8  -1    1.66    0.26
   7   8   1    1.11    0.20
   7  -8   2    0.09    0.10
   7  -8   2    0.17    0.11
  -7   8   2    0.38    0.18
   7  -8   2    0.09    0.10
  -7   8   2    0.38    0.18
  -7   8   2    0.31    0.13
   7  -8   2    0.07    0.16
  -7   8   2    0.31    0.13
   7  -8   2    0.07    0.16
   7  -8   2    0.17    0.11
  -7  -8   2    0.15    0.19
   7  -8  -2    0.29    0.11
  -7  -8   2    0.64    0.19
  -7  -8   2    0.21    0.20
   7   8   2    0.34    0.11
   7  -8  -2    0.29    0.11
   7   8   2    0.23    0.15
   7   8   2    0.25    0.11
   7   8   2    0.23    0.15
  -7  -8   2    0.64    0.19
  -7  -8   2    0.15    0.19
   7   8   2    0.34    0.11
   7   8   2    0.25    0.11
  -7  -8   2    0.21    0.20
   7  -8   3    0.61    0.25
  -7   8   3    0.84    0.17
   7  -8   3    0.61    0.25
   7  -8   3    0.62    0.16
  -7   8   3    0.90    0.27
  -7   8   3    0.84    0.17
   7  -8   3    0.62    0.16
  -7   8   3    0.90    0.27
   7   8   3    0.70    0.23
   7   8   3    0.70    0.23
   7  -8  -3    0.60    0.17
  -7  -8   3    0.78    0.19
  -7  -8   3    0.78    0.19
   7   8   3    0.48    0.23
  -7  -8   3    1.02    0.19
  -7  -8   3    1.02    0.19
   7  -8  -3    0.60    0.17
   7   8   3    0.48    0.23
  -7   8   4    0.26    0.23
   7  -8   4    0.22    0.19
  -7   8   4    0.26    0.23
   7  -8   4    0.20    0.30
   7  -8   4    0.20    0.30
  -7   8   4    0.15    0.14
   7  -8   4    0.22    0.19
  -7   8   4    0.15    0.14
   7   8   4   -0.60    0.31
   7   8   4    0.38    0.28
  -7  -8   4    0.12    0.21
  -7  -8   4    0.12    0.21
  -7  -8   4    0.17    0.24
  -7  -8   4   -0.70    0.37
  -7  -8   4    0.17    0.24
   7   8   4    0.38    0.28
   7   8   4   -0.60    0.31
  -7  -8   4   -0.70    0.37
  -8  -8   0    7.54    0.76
   8   8   0    8.26    0.70
  -8   8   0    6.92    0.71
  -8  -8   0    7.54    0.76
   8   8   0    8.26    0.70
  -8   8   0    6.92    0.71
   8   8  -1    4.35    0.47
   8  -8   1    4.99    0.51
  -8  -8  -1    5.53    0.46
   8  -8   1    4.44    0.51
  -8   8   1    4.63    0.51
   8   8  -1    4.35    0.47
  -8  -8  -1    5.53    0.46
   8  -8   1    4.99    0.51
  -8   8   1    4.63    0.51
   8  -8   1    4.44    0.51
  -8  -8   1    4.60    0.63
   8   8   1    4.67    0.51
  -8   8  -1    4.78    0.57
   8   8   1    4.67    0.51
  -8  -8   1    4.60    0.63
   8  -8  -1    6.00    0.51
  -8   8  -1    4.78    0.57
   8  -8  -1    6.00    0.51
   8  -8   2    4.89    0.59
   8  -8   2    6.59    0.61
  -8   8   2    6.01    0.64
  -8   8   2    5.88    0.59
  -8   8   2    5.88    0.59
  -8   8   2    6.01    0.64
   8  -8   2    4.89    0.59
   8  -8   2    6.59    0.61
  -8  -8   2    4.73    0.62
   8   8   2    5.36    0.53
  -8  -8   2    4.89    0.68
   8   8   2    6.68    0.72
  -8   8  -2    6.56    0.60
  -8  -8   2    4.73    0.62
   8  -8  -2    6.74    0.58
   8   8   2    6.34    0.62
   8   8   2    5.36    0.53
  -8  -8   2    6.21    0.63
   8   8   2    6.34    0.62
   8   8   2    6.68    0.72
   8  -8  -2    6.74    0.58
  -8  -8   2    6.21    0.63
  -8  -8   2    4.89    0.68
  -8   8  -2    6.56    0.60
   8  -8   3    3.57    0.35
   8  -8   3    2.70    0.42
   8  -8   3    2.70    0.42
   8  -8   3    3.57    0.35
   8   8   3    3.13    0.45
  -8  -8   3    2.24    0.39
   8   8   3    3.13    0.45
  -8  -8   3    2.93    0.38
  -8  -8   3    2.93    0.38
   8   8   3    3.04    0.39
   8   8   3    3.04    0.39
  -8  -8   3    2.24    0.39
  -8   8   4    3.70    0.44
   8  -8   4    3.16    0.54
  -8   8   4    3.25    0.49
   8  -8   4    3.16    0.54
  -8   8   4    3.70    0.44
   8  -8   4    2.51    0.45
  -8   8   4    3.25    0.49
   8  -8   4    2.51    0.45
   8   8   4    2.83    0.51
  -8  -8   4    3.52    0.48
   8   8   4    3.44    0.48
   8   8   4    2.83    0.51
   8   8   4    3.44    0.48
  -8  -8   4    2.63    0.58
  -8  -8   4    3.52    0.48
  -8  -8   4    2.63    0.58
   9   8   0    1.93    0.25
  -9  -8   0    2.39    0.34
  -9   8   0    2.26    0.32
   9  -8   0    1.78    0.28
  -9  -8   0    2.39    0.34
   9   8   0    1.93    0.25
   9  -8   0    1.78    0.28
  -9   8   0    2.26    0.32
   9   8  -1    3.04    0.31
   9  -8   1    2.07    0.34
   9  -8   1    2.07    0.34
  -9  -8  -1    2.85    0.30
  -9   8   1    2.72    0.38
  -9   8   1    2.72    0.38
   9   8  -1    3.04    0.31
  -9  -8  -1    2.85    0.30
   9  -8  -1    2.50    0.32
   9   8   1    2.72    0.34
   9   8   1    2.72    0.34
  -9   8  -1    2.52    0.39
  -9  -8   1    2.54    0.42
   9  -8  -1    2.50    0.32
  -9   8  -1    2.52    0.39
  -9  -8   1    2.54    0.42
   9  -8   2    1.32    0.25
   9  -8   2    1.32    0.25
  -9   8   2    0.91    0.24
  -9   8   2    1.36    0.27
  -9   8   2    0.91    0.24
  -9   8   2    1.36    0.27
  -9  -8   2    1.65    0.31
  -9  -8   2    1.68    0.30
  -9   8  -2    1.28    0.29
  -9  -8   2    1.11    0.40
   9   8   2    1.49    0.20
   9   8   2    1.49    0.20
  -9  -8   2    1.68    0.30
  -9  -8   2    1.11    0.40
   9   8   2    1.51    0.27
  -9  -8   2    1.65    0.31
   9   8   2    1.51    0.27
  -9   8  -2    1.28    0.29
   9  -8   3    1.81    0.35
   9  -8   3    2.52    0.28
   9  -8   3    1.81    0.35
   9  -8   3    2.52    0.28
  -9  -8   3    1.40    0.33
   9   8   3    1.56    0.30
  -9  -8   3    2.10    0.30
  -9  -8   3    1.40    0.33
   9   8   3    1.56    0.30
   9   8   3    2.15    0.35
   9   8   3    2.15    0.35
  -9  -8   3    2.10    0.30
  -9   8   4    0.52    0.23
  -9   8   4    0.39    0.30
  -9   8   4    0.52    0.23
  -9   8   4    0.39    0.30
   9  -8   4    0.29    0.21
   9  -8   4    0.29    0.21
   9  -8   4    0.74    0.37
   9  -8   4    0.74    0.37
   9   8   4    0.78    0.41
  -9  -8   4    0.86    0.29
  -9  -8   4    0.86    0.29
  -9  -8   4    0.41    0.43
  -9  -8   4    0.89    0.32
   9   8   4    0.75    0.19
   9   8   4    0.78    0.41
   9   8   4    0.56    0.31
  -9  -8   4    0.89    0.32
   9   8   4    0.56    0.31
   9   8   4    0.75    0.19
  -9  -8   4    0.41    0.43
 -10   8   0   96.45    7.55
 -10  -8   0   90.66    7.58
  10   8   0   91.03    7.52
 -10   8   0   96.45    7.55
  10  -8   0   82.45    7.55
  10  -8   0   82.45    7.55
 -10  -8   0   90.66    7.58
  10   8   0   91.03    7.52
 -10  -8  -1   45.23    4.13
 -10   8   1   48.41    4.17
 -10  -8  -1   45.23    4.13
 -10   8   1   48.41    4.17
 -10   8  -1   54.54    4.21
  10   8   1   54.92    4.17
  10  -8  -1   48.45    4.18
  10   8   1   54.92    4.17
  10  -8  -1   48.45    4.18
 -10  -8   1   44.59    4.23
 -10  -8   1   44.59    4.23
 -10   8  -1   54.54    4.21
 -10   8   2   70.71    6.32
  10  -8   2   70.93    6.30
  10  -8   2   70.93    6.30
 -10   8   2   70.71    6.32
  10   8   2   81.53    6.25
 -10   8  -2   78.54    6.32
 -10  -8   2   74.41    6.33
 -10   8  -2   78.54    6.32
  10   8   2   74.01    6.31
  10   8   2   74.01    6.31
  10   8   2   81.53    6.25
 -10  -8   2   74.41    6.33
  10  -8   3   33.24    3.12
 -10   8   3   36.47    3.14
  10  -8   3   33.24    3.12
 -10   8   3   36.47    3.14
 -10  -8   3   40.35    3.09
  10   8   3   36.13    3.10
 -10  -8   3   40.35    3.09
  10   8   3   33.90    3.06
  10   8   3   36.80    3.12
  10   8   3   36.80    3.12
  10   8   3   36.13    3.10
  10   8   3   33.90    3.06
 -10   8   4   37.68    3.66
 -10   8   4   42.69    3.70
 -10   8   4   42.69    3.70
  10  -8   4   39.66    3.70
 -10   8   4   37.68    3.66
  10  -8   4   39.66    3.70
 -10  -8   4   47.47    3.65
 -10  -8   4   42.56    3.72
 -10  -8   4   42.56    3.72
  10   8   4   40.81    3.65
  10   8   4   45.33    3.66
  10   8   4   44.30    3.64
 -10  -8   4   47.47    3.65
  10   8   4   45.33    3.66
  10   8   4   44.31    3.64
  10   8   4   40.81    3.65
  11   8   0   30.90    2.76
 -11  -8   0   31.71    2.86
 -11  -8   0   31.71    2.86
 -11   8   0   35.24    2.81
 -11   8   0   35.24    2.81
  11   8   0   30.90    2.76
 -11  -8  -1   28.13    2.58
 -11   8   1   29.02    2.54
 -11  -8  -1   28.13    2.58
 -11   8   1   29.02    2.54
 -11   8  -1   33.68    2.61
 -11  -8   1   24.86    2.61
  11   8   1   31.31    2.52
  11   8   1   31.31    2.52
 -11   8  -1   33.68    2.61
 -11  -8   1   24.86    2.61
 -11   8   2   28.59    2.46
 -11   8   2   28.59    2.46
  11  -8   2   27.73    2.44
  11  -8   2   27.73    2.44
  11   8   2   28.72    2.44
 -11  -8   2   32.86    2.51
  11   8   2   23.65    2.45
 -11  -8   2   32.86    2.51
  11   8   2   28.72    2.44
  11   8   2   23.65    2.45
 -11   8  -2   28.93    2.51
 -11   8  -2   28.93    2.51
 -11   8   3   23.18    1.98
 -11   8   3   23.18    1.98
  11  -8   3   20.90    1.95
  11  -8   3   20.90    1.95
  11   8   3   24.61    1.95
  11   8   3   19.02    1.87
  11   8   3   19.02    1.87
 -11  -8   3   17.56    2.10
  11   8   3   21.04    1.93
 -11  -8   3   17.56    2.10
  11   8   3   24.61    1.95
 -11  -8   3   25.24    1.93
  11   8   3   21.04    1.93
 -11  -8   3   25.24    1.93
 -12   8   0    4.51    0.60
 -12   8   0    4.51    0.60
  12   8   0    4.31    0.44
 -12  -8   0    3.16    0.55
 -12  -8   0    3.17    0.55
  12   8   0    4.31    0.44
 -12  -8  -1   67.39    5.37
 -12  -8  -1   67.39    5.37
 -12   8   1   61.58    5.31
 -12   8   1   61.58    5.31
 -12   8  -1   68.69    5.38
  12   8   1   63.18    5.30
 -12   8  -1   68.69    5.38
  12   8   1   63.18    5.30
 -12  -8   1   54.00    5.38
 -12  -8   1   54.00    5.38
  12  -8   2    3.86    0.53
 -12   8   2    4.62    0.57
  12  -8   2    3.86    0.53
 -12   8   2    4.62    0.57
 -12   8  -2    3.88    0.66
  12   8   2    3.92    0.51
 -12  -8   2    5.59    0.67
 -12   8  -2    3.88    0.66
  12   8   2    3.80    0.48
  12   8   2    3.80    0.48
  12   8   2    3.92    0.51
 -12  -8   2    5.59    0.67
 -12   8   3   39.24    3.58
  12  -8   3   39.39    3.56
 -12   8   3   39.24    3.58
  12  -8   3   39.39    3.56
  12   8   3   46.66    3.56
  12   8   3   39.81    3.54
  12   8   3   39.81    3.54
  12   8   3   46.66    3.56
 -13   8   0    0.65    0.32
 -13  -8   0    0.81    0.35
 -13   8   0    0.65    0.32
 -13  -8   0    0.81    0.35
 -13  -8  -1    0.34    0.32
 -13  -8  -1    0.34    0.32
 -13   8  -1    0.20    0.55
  13   8   1    0.19    0.17
 -13   8  -1    0.20    0.55
 -13  -8   1    0.33    0.37
  13   8   1    0.19    0.17
 -13  -8   1    0.33    0.37
 -13   8   2    0.57    0.29
 -13   8   2    0.57    0.29
  13   8   2    1.00    0.23
 -13   8  -2    0.48    0.60
 -13  -8   2    0.66    0.38
  13   8   2    0.59    0.22
  13   8   2    0.59    0.22
 -13  -8   2    0.66    0.38
  13   8   2    1.00    0.23
 -13   8  -2    0.48    0.60
  13  -8   3    0.09    0.29
  13  -8   3    0.09    0.29
 -13   8   3    0.03    0.32
 -13   8   3    0.03    0.32
  13   8   3    0.29    0.25
 -13  -8   3    0.18    0.28
 -13  -8   3    0.00    0.39
 -13  -8   3    0.18    0.28
  13   8   3    0.12    0.18
  13   8   3    0.29    0.25
  13   8   3    0.12    0.18
 -13  -8   3    0.00    0.39
 -14   8   0    0.51    0.35
 -14   8   0    0.51    0.35
 -14  -8   0    0.13    0.38
 -14  -8   0    0.13    0.38
 -14  -8  -1    1.15    0.40
 -14  -8  -1    1.15    0.40
 -14  -8   1    0.88    0.44
 -14   8  -1    0.69    0.53
 -14   8  -1    0.69    0.53
 -14  -8   1    0.88    0.44
 -14   8   2    0.73    0.32
 -14  -8  -2    0.02    0.37
 -14  -8  -2    0.02    0.37
 -14   8   2    0.73    0.32
  14   8   2    0.32    0.23
  14   8   2    0.37    0.21
 -14  -8   2    0.56    0.39
  14   8   2    0.37    0.21
  14   8   2    0.32    0.23
 -14  -8   2    0.56    0.39
 -15   8   0   12.77    1.32
 -15   8   0   12.77    1.32
 -15  -8  -1    7.45    0.97
 -15  -8  -1    7.45    0.97
 -15  -8   1    5.87    0.87
 -15  -8   1    5.87    0.87
 -15   8   2    9.59    0.98
 -15  -8  -2    8.30    1.07
 -15   8   2    9.59    0.98
 -15  -8  -2    8.30    1.07
  15   8   2    7.23    0.85
  15   8   2    7.23    0.85
 -15  -8   2    9.42    1.02
 -15  -8   2    9.42    1.02
 -16  -8   0    9.56    1.40
 -16   8   0   14.65    1.36
 -16  -8   0    9.56    1.40
 -16   8   0   14.65    1.36
 -16  -8  -1   30.93    3.03
 -16  -8  -1   30.93    3.03
 -16  -8   1   35.20    3.04
 -16  -8   1   35.20    3.04
   0  -9   0    0.04    0.09
   0  -9   0    0.10    0.05
   0  -9   0    0.04    0.09
   0  -9   0   -0.02    0.08
   0  -9   0    0.10    0.05
   0  -9   0   -0.02    0.08
   0   9   0    0.02    0.06
   0   9   0    0.02    0.06
   0   9  -1    0.01    0.05
   0  -9   1    0.20    0.09
   0  -9  -1    0.03    0.09
   0  -9  -1    0.03    0.04
   0   9   1    0.04    0.05
   0  -9   1   -0.16    0.07
   0  -9   1   -0.16    0.07
   0  -9  -1    0.03    0.09
   0  -9   1    0.06    0.07
   0   9   1    0.04    0.05
   0   9   1    0.08    0.08
   0   9   1    0.08    0.08
   0  -9   1    0.20    0.09
   0   9  -1    0.01    0.05
   0  -9  -1    0.03    0.04
   0  -9   1    0.06    0.07
   0   9  -2    0.06    0.06
   0   9  -2    0.06    0.06
   0  -9   2    0.23    0.13
   0   9   2   -0.01    0.05
   0  -9   2    0.08    0.13
   0   9   2   -0.01    0.05
   0  -9  -2    0.23    0.13
   0  -9  -2    0.23    0.13
   0  -9   2    0.02    0.06
   0  -9   2    0.02    0.06
   0  -9   2    0.23    0.13
   0  -9   2    0.08    0.13
   0  -9   3    0.50    0.25
   0  -9  -3    0.27    0.14
   0   9   3    0.36    0.18
   0  -9  -3    0.27    0.14
   0   9   3    0.36    0.18
   0  -9   3    0.50    0.25
   0  -9   4    0.00    0.10
   0  -9   4    0.06    0.31
   0  -9  -4    0.00    0.11
   0   9   4   -0.11    0.20
   0  -9   4    0.06    0.31
   0  -9   4    0.00    0.10
   0   9   4    0.07    0.09
   0   9   4    0.07    0.09
   0   9   4   -0.11    0.20
   0  -9  -4    0.00    0.11
   0   9   5   -0.13    0.31
   0  -9   5   -0.05    0.24
   0   9   5    0.06    0.12
   0  -9   5    0.09    0.24
   0  -9   5    0.25    0.46
   0   9   5    0.06    0.12
   0   9   5   -0.13    0.31
   0  -9   5    0.08    0.24
   0  -9   5    0.25    0.46
   0  -9   5   -0.05    0.24
  -1  -9   0    4.21    0.42
   1  -9   0    5.02    0.39
   1  -9   0    4.49    0.40
  -1  -9   0    3.85    0.40
  -1   9   0    4.69    0.40
   1   9   0    4.15    0.40
  -1  -9   0    4.21    0.42
   1   9   0    4.15    0.40
   1  -9   0    3.65    0.43
   1  -9   0    3.65    0.43
   1  -9   0    4.49    0.40
  -1   9   0    4.69    0.40
   1  -9   0    5.02    0.39
  -1  -9   0    3.85    0.40
  -1   9   1   15.14    1.17
   1  -9   1   13.17    1.16
   1  -9   1   13.17    1.16
   1  -9   1   12.75    1.16
  -1   9   1   14.40    1.14
   1   9  -1   11.66    1.13
  -1  -9  -1   13.51    1.14
   1  -9   1   13.50    1.17
   1  -9   1   12.75    1.16
  -1  -9  -1   13.51    1.14
  -1   9   1   15.14    1.17
   1   9  -1   11.66    1.13
   1  -9   1   13.50    1.17
  -1   9   1   14.40    1.14
   1   9   1   14.98    1.17
  -1  -9   1   12.97    1.17
  -1  -9   1   10.78    1.17
   1  -9  -1   11.65    1.18
   1  -9  -1   11.65    1.18
   1   9   1   14.79    1.15
   1   9   1   14.79    1.15
  -1   9  -1   14.31    1.13
  -1  -9   1   13.74    1.15
  -1  -9   1   13.74    1.15
   1   9   1   14.98    1.17
  -1  -9   1   12.97    1.17
  -1   9  -1   14.31    1.13
  -1  -9   1   10.78    1.17
   1  -9   2    3.77    0.39
   1  -9   2    3.77    0.39
  -1  -9  -2    2.58    0.37
   1   9  -2    3.62    0.31
   1  -9   2    3.22    0.37
   1   9  -2    3.62    0.31
   1  -9   2    3.22    0.37
  -1   9   2    3.18    0.48
  -1  -9  -2    2.58    0.37
  -1   9   2    3.18    0.48
  -1  -9   2    3.56    0.39
  -1   9  -2    3.06    0.30
   1   9   2    3.35    0.32
  -1  -9   2    3.56    0.34
  -1  -9   2    3.56    0.34
   1   9   2    3.35    0.32
   1  -9  -2    2.93    0.36
   1  -9  -2    2.93    0.36
  -1  -9   2    3.56    0.39
  -1   9  -2    3.06    0.30
   1  -9   3    8.95    0.97
  -1   9   3    8.95    0.92
  -1   9   3    8.84    0.85
  -1   9   3    8.84    0.85
   1  -9   3    8.95    0.97
   1  -9   3   10.35    0.86
   1  -9   3   10.35    0.86
  -1   9   3    8.95    0.92
   1   9   3    7.65    0.92
   1   9   3   10.87    0.87
  -1  -9   3    8.63    0.96
  -1  -9   3   11.11    0.86
  -1  -9   3   11.11    0.86
  -1  -9   3    8.63    0.96
   1   9   3    7.65    0.92
   1   9   3   10.87    0.87
  -1  -9  -4    1.87    0.32
   1  -9   4    4.30    0.55
   1  -9   4    1.79    0.28
   1  -9   4    4.30    0.55
  -1   9   4    2.88    0.41
  -1   9   4    2.88    0.41
   1  -9   4    1.79    0.28
  -1  -9  -4    1.87    0.32
   1  -9  -4    2.50    0.28
   1   9   4    2.48    0.28
   1   9   4    2.84    0.42
   1   9   4    2.84    0.42
  -1  -9   4    2.53    0.47
  -1  -9   4    2.53    0.47
   1  -9  -4    2.50    0.28
  -1  -9   4    2.37    0.28
  -1  -9   4    2.37    0.28
   1   9   4    2.48    0.28
   1  -9   5    4.51    0.68
   1  -9   5    6.30    0.82
  -1   9   5    5.49    0.53
   1  -9   5    4.51    0.68
   1  -9   5    6.30    0.82
  -1   9   5    4.15    0.63
   1  -9   5    3.95    0.62
  -1   9   5    5.49    0.53
   1  -9   5    3.95    0.62
  -1   9   5    4.15    0.63
   1   9   5    5.78    0.54
   1   9   5    5.03    0.70
  -1  -9   5    5.17    0.82
  -1  -9   5    5.26    0.69
   1   9   5    5.78    0.54
  -1  -9   5    5.26    0.69
  -1  -9   5    5.17    0.82
   1   9   5    5.03    0.70
   2  -9   0   22.34    1.70
   2  -9   0   22.34    1.70
   2   9   0   19.17    1.66
  -2   9   0   17.95    1.63
   2   9   0   19.17    1.66
   2  -9   0   20.15    1.66
   2  -9   0   20.99    1.64
  -2   9   0   20.31    1.66
  -2  -9   0   18.21    1.66
  -2   9   0   17.95    1.63
   2  -9   0   20.99    1.64
   2   9   0   17.50    1.64
  -2   9   0   20.31    1.66
  -2  -9   0   18.21    1.66
   2   9   0   17.50    1.64
   2  -9   0   20.15    1.66
   2  -9   1    4.27    0.37
  -2   9   1    3.46    0.32
   2   9  -1    3.44    0.33
  -2   9   1    3.05    0.37
   2  -9   1    4.27    0.37
   2   9  -1    3.44    0.33
  -2   9   1    3.46    0.32
  -2  -9  -1    3.69    0.33
  -2  -9  -1    3.69    0.33
  -2   9   1    3.05    0.37
   2  -9  -1    3.54    0.38
  -2  -9   1    3.39    0.35
  -2  -9   1    3.43    0.37
  -2   9  -1    4.23    0.33
  -2  -9   1    3.39    0.35
   2  -9  -1    3.54    0.38
  -2  -9   1    3.08    0.34
  -2  -9   1    3.87    0.34
  -2  -9   1    3.43    0.37
   2   9   1    3.59    0.37
  -2  -9   1    3.08    0.34
   2   9   1    2.99    0.34
   2   9   1    3.59    0.37
   2   9   1    2.99    0.34
  -2   9  -1    4.23    0.33
  -2  -9   1    3.87    0.34
   2  -9   2   15.37    1.38
   2  -9   2   15.37    1.38
   2  -9   2   18.38    1.39
   2   9  -2   17.41    1.34
   2   9  -2   17.41    1.34
   2  -9   2   18.38    1.39
   2   9   2   16.35    1.40
   2   9   2   16.35    1.40
  -2  -9   2   16.93    1.39
   2   9   2   14.24    1.33
  -2  -9   2   15.39    1.37
  -2   9  -2   14.28    1.36
  -2  -9   2   15.39    1.37
   2   9   2   14.34    1.35
   2   9   2   14.24    1.33
  -2  -9   2   16.93    1.39
   2   9   2   14.34    1.35
  -2   9  -2   14.28    1.36
   2  -9   3    3.87    0.52
   2  -9   3    2.38    0.41
  -2   9   3    3.11    0.33
  -2   9   3    3.35    0.44
  -2   9   3    3.11    0.33
   2  -9   3    2.38    0.41
   2  -9   3    4.00    0.36
  -2   9   3    3.35    0.44
   2  -9   3    3.87    0.52
   2  -9   3    4.00    0.36
   2   9   3    3.17    0.35
  -2  -9   3    3.39    0.47
   2  -9  -3    3.56    0.35
   2   9   3    3.18    0.35
   2   9   3    3.45    0.46
   2   9   3    3.45    0.46
  -2  -9   3    3.39    0.47
   2  -9  -3    3.56    0.35
   2  -9   4    8.35    0.98
   2  -9   4    8.35    0.98
  -2   9   4   10.69    1.01
   2  -9   4    9.61    1.09
  -2   9   4   10.69    1.01
   2  -9   4    9.61    1.09
  -2  -9   4   10.67    0.88
   2   9   4   10.70    1.03
   2   9   4   11.39    0.92
   2  -9  -4    9.21    0.88
   2   9   4   10.70    1.03
  -2  -9   4    9.41    1.11
   2   9   4   11.39    0.92
  -2  -9   4    9.41    1.11
  -2  -9   4   10.67    0.88
   2  -9  -4    9.21    0.88
  -2   9   5    2.71    0.34
  -2   9   5    2.71    0.34
   2  -9   5    2.56    0.44
   2  -9   5    3.00    0.59
   2  -9   5    2.56    0.44
  -2   9   5    2.28    0.45
   2  -9   5    3.00    0.59
   2  -9   5    1.94    0.38
   2  -9   5    1.94    0.38
  -2   9   5    2.28    0.45
   2   9   5    2.34    0.45
   2   9   5    2.41    0.33
  -2  -9   5    2.19    0.43
  -2  -9   5    2.14    0.60
   2   9   5    2.34    0.45
  -2  -9   5    2.19    0.43
   2   9   5    2.41    0.33
  -2  -9   5    2.14    0.60
   3   9   0    5.81    0.48
   3  -9   0    5.82    0.52
  -3  -9   0    4.34    0.56
   3  -9   0    6.09    0.50
  -3   9   0    5.21    0.46
  -3   9   0    5.25    0.50
   3  -9   0    5.82    0.52
  -3   9   0    5.21    0.46
  -3   9   0    5.25    0.50
  -3  -9   0    5.57    0.49
   3  -9   0    4.73    0.51
   3  -9   0    6.09    0.50
  -3  -9   0    5.57    0.49
   3   9   0    5.81    0.48
   3  -9   0    4.73    0.51
  -3  -9   0    4.34    0.56
   3   9  -1    0.67    0.11
  -3  -9  -1    0.66    0.10
  -3  -9  -1    0.66    0.10
  -3  -9  -1    0.53    0.20
  -3   9   1    0.81    0.17
   3  -9   1    0.44    0.12
  -3   9   1    0.60    0.09
   3  -9   1    0.34    0.10
   3  -9   1    0.64    0.12
  -3  -9  -1    0.53    0.20
   3  -9   1    0.64    0.12
   3   9  -1    0.67    0.11
   3  -9   1    0.44    0.12
   3  -9   1    0.34    0.10
  -3   9   1    0.60    0.09
  -3   9   1    0.81    0.17
   3  -9  -1    0.56    0.12
  -3  -9   1    0.72    0.13
  -3  -9   1    0.52    0.13
  -3   9  -1    0.63    0.10
  -3  -9   1    0.77    0.16
   3   9   1    0.63    0.12
  -3  -9   1    0.52    0.13
  -3  -9   1    0.36    0.15
  -3   9  -1    0.63    0.10
   3  -9  -1    0.56    0.12
   3   9   1    0.63    0.12
   3   9   1    0.44    0.12
  -3  -9   1    0.72    0.13
  -3   9  -1    0.62    0.08
  -3  -9   1    0.77    0.16
  -3  -9   1    0.82    0.13
  -3  -9   1    0.82    0.13
   3   9   1    0.44    0.12
  -3  -9   1    0.36    0.15
  -3   9  -1    0.62    0.08
   3  -9   2    5.59    0.60
   3  -9   2    5.59    0.60
  -3   9   2    5.67    0.51
   3  -9   2    5.92    0.54
  -3   9   2    5.67    0.51
   3  -9   2    5.92    0.54
   3   9  -2    6.07    0.52
   3   9  -2    6.07    0.52
  -3  -9   2    6.06    0.52
  -3  -9   2    5.47    0.56
   3   9   2    5.29    0.57
   3   9   2    5.47    0.54
   3   9   2    5.29    0.57
   3  -9  -2    5.88    0.54
   3   9   2    5.48    0.54
  -3  -9   2    6.06    0.52
  -3  -9   2    5.47    0.56
   3  -9  -2    5.88    0.54
  -3   9   3    0.85    0.15
   3  -9   3    1.22    0.20
  -3  -9  -3    0.55    0.21
  -3  -9  -3    0.55    0.21
   3  -9   3    0.77    0.23
  -3   9   3    0.91    0.25
   3  -9   3    1.00    0.30
   3  -9   3    0.77    0.23
   3  -9   3    1.00    0.30
  -3   9   3    0.91    0.25
  -3   9   3    0.85    0.15
   3  -9   3    1.22    0.20
  -3  -9   3    0.48    0.29
  -3  -9   3    1.17    0.17
   3   9   3    0.64    0.21
   3   9   3    0.64    0.21
   3  -9  -3    1.02    0.16
   3   9   3    1.22    0.18
   3  -9  -3    1.02    0.16
   3   9   3    1.22    0.18
  -3  -9   3    1.17    0.17
  -3  -9   3    0.48    0.29
  -3   9   4    3.72    0.56
  -3   9   4    4.55    0.43
   3  -9   4    4.11    0.61
  -3   9   4    4.55    0.43
  -3   9   4    3.72    0.56
   3  -9   4    4.11    0.61
   3  -9  -4    4.00    0.41
  -3  -9   4    4.20    0.56
   3   9   4    4.14    0.57
  -3  -9   4    4.20    0.56
  -3  -9   4    3.74    0.62
   3   9   4    3.85    0.43
  -3  -9   4    4.20    0.40
   3   9   4    3.85    0.43
  -3  -9   4    4.20    0.40
   3  -9  -4    4.00    0.41
   3   9   4    4.14    0.57
  -3  -9   4    3.74    0.62
  -3   9   5    0.97    0.20
   3  -9   5    0.83    0.29
   3  -9   5    1.33    0.33
  -3   9   5    1.22    0.36
   3  -9   5    0.91    0.49
   3  -9   5    0.91    0.49
   3  -9   5    0.83    0.29
   3  -9   5    1.33    0.33
  -3   9   5    0.97    0.20
  -3   9   5    1.22    0.36
  -3  -9   5    1.41    0.40
  -3  -9   5    0.67    0.56
  -3  -9   5    0.67    0.56
   3   9   5    1.07    0.24
  -3  -9   5    1.41    0.40
   3   9   5    1.24    0.37
   3   9   5    1.24    0.37
   3   9   5    1.07    0.24
   4   9   0    2.69    0.25
   4  -9   0    2.79    0.29
  -4   9   0    2.19    0.31
   4  -9   0    2.79    0.29
  -4  -9   0    3.63    0.33
  -4  -9   0    1.94    0.35
   4   9   0    2.69    0.25
  -4  -9   0    3.63    0.33
  -4  -9   0    2.69    0.28
   4  -9   0    2.88    0.29
  -4   9   0    2.19    0.31
  -4  -9   0    1.94    0.35
   4   9   0    2.56    0.29
   4  -9   0    2.88    0.29
  -4  -9   0    2.69    0.28
   4   9   0    2.56    0.29
  -4  -9  -1   46.62    3.44
  -4   9   1   38.06    3.48
  -4   9   1   43.58    3.44
   4   9  -1   35.42    3.45
  -4   9   1   38.06    3.48
  -4   9   1   43.59    3.44
   4  -9   1   41.94    3.47
  -4  -9  -1   46.62    3.44
   4   9  -1   35.42    3.45
   4  -9   1   41.94    3.47
   4  -9   1   35.24    3.46
   4  -9   1   44.24    3.48
   4  -9   1   44.24    3.48
   4  -9   1   35.24    3.46
  -4  -9   1   46.50    3.50
   4   9   1   47.59    3.49
  -4  -9   1   36.29    3.44
  -4  -9   1   46.50    3.50
  -4  -9   1   36.29    3.44
  -4   9  -1   38.59    3.44
  -4   9  -1   38.59    3.44
   4   9   1   47.59    3.49
  -4   9   2    2.85    0.38
   4   9  -2    3.05    0.28
  -4   9   2    2.56    0.26
  -4  -9  -2    1.86    0.36
  -4  -9  -2    1.86    0.36
  -4   9   2    2.56    0.26
   4  -9   2    2.35    0.34
   4  -9   2    2.35    0.34
   4  -9   2    2.98    0.30
   4   9  -2    3.05    0.28
  -4   9   2    2.85    0.38
   4  -9   2    2.98    0.30
  -4  -9   2    1.97    0.31
  -4  -9   2    2.72    0.36
  -4  -9   2    2.63    0.31
  -4  -9   2    1.97    0.31
   4  -9  -2    3.03    0.28
  -4  -9   2    2.72    0.36
  -4  -9   2    2.63    0.31
   4  -9  -2    3.03    0.28
  -4   9  -2    2.51    0.26
   4   9   2    2.78    0.35
  -4  -9   2    2.33    0.36
   4   9   2    2.78    0.35
  -4  -9   2    2.66    0.26
  -4  -9   2    2.66    0.26
  -4   9  -2    2.51    0.26
  -4  -9   2    2.33    0.36
   4  -9   3   21.99    2.23
  -4   9   3   25.79    2.27
   4  -9   3   21.99    2.23
   4  -9   3   25.71    2.29
   4  -9   3   25.71    2.29
  -4   9   3   25.79    2.27
  -4   9   3   24.95    2.20
  -4   9   3   24.95    2.20
   4   9   3   23.58    2.26
  -4  -9   3   29.85    2.22
   4   9   3   23.58    2.26
  -4  -9   3   25.88    2.30
   4   9   3   29.93    2.23
   4  -9  -3   25.83    2.20
  -4  -9   3   25.88    2.30
   4   9   3   29.93    2.23
  -4  -9   3   29.85    2.22
   4  -9  -3   25.83    2.20
  -4   9   4    3.18    0.33
   4  -9   4    2.49    0.48
  -4   9   4    2.86    0.42
  -4   9   4    3.18    0.33
   4  -9   4    2.49    0.48
   4  -9   4    2.81    0.41
   4  -9   4    2.81    0.41
  -4   9   4    2.86    0.42
   4  -9  -4    2.48    0.32
   4   9   4    2.55    0.43
  -4  -9   4    2.89    0.46
  -4  -9   4    2.46    0.51
   4   9   4    2.55    0.43
   4  -9  -4    2.48    0.32
  -4  -9   4    2.46    0.51
   4   9   4    2.78    0.33
   4   9   4    2.78    0.33
  -4  -9   4    2.89    0.46
  -5  -9   0    2.38    0.42
  -5   9   0    2.97    0.35
  -5   9   0    2.97    0.35
  -5  -9   0    3.30    0.34
  -5  -9   0    3.30    0.34
  -5  -9   0    2.38    0.42
  -5  -9   0    3.36    0.37
   5  -9   0    3.59    0.34
   5   9   0    3.39    0.34
   5  -9   0    3.59    0.34
  -5  -9   0    3.36    0.37
   5   9   0    3.39    0.34
  -5   9   1    0.37    0.16
  -5   9   1    0.37    0.08
   5   9  -1    0.24    0.09
   5  -9   1    0.50    0.12
   5  -9   1    0.34    0.12
  -5   9   1    0.37    0.16
   5  -9   1    0.34    0.12
   5  -9   1    0.29    0.10
   5  -9   1    0.29    0.10
  -5  -9  -1    0.39    0.08
   5   9  -1    0.24    0.09
  -5   9   1    0.37    0.08
   5  -9   1    0.50    0.12
  -5  -9  -1    0.39    0.08
  -5  -9   1    0.24    0.16
   5  -9  -1    0.61    0.12
  -5  -9   1    0.24    0.16
  -5  -9   1    0.29    0.09
  -5   9  -1    0.34    0.10
  -5  -9   1    0.29    0.09
  -5  -9   1    0.03    0.16
   5  -9  -1    0.61    0.12
  -5  -9   1    0.47    0.14
  -5   9  -1    0.34    0.10
  -5  -9   1    0.03    0.16
   5   9   1    0.57    0.14
   5   9   1    0.57    0.14
  -5  -9   1    0.47    0.14
   5  -9   2    2.26    0.35
   5  -9   2    2.62    0.35
   5  -9   2    2.62    0.35
  -5   9   2    2.53    0.39
   5   9  -2    2.16    0.30
   5  -9   2    2.26    0.35
  -5   9   2    2.53    0.39
  -5   9   2    3.63    0.31
  -5   9   2    3.63    0.31
   5   9  -2    2.16    0.30
   5  -9  -2    3.37    0.31
   5   9   2    2.88    0.33
  -5  -9   2    3.50    0.42
  -5  -9   2    3.01    0.39
  -5  -9   2    2.69    0.39
   5  -9  -2    3.37    0.31
  -5  -9   2    3.01    0.39
   5   9   2    2.88    0.33
  -5  -9   2    3.47    0.32
  -5  -9   2    3.47    0.32
  -5  -9   2    3.50    0.42
   5   9   2    3.00    0.39
   5   9   2    3.00    0.39
  -5  -9   2    2.69    0.39
   5  -9   3    0.47    0.14
   5  -9   3    0.54    0.20
   5  -9   3    0.47    0.14
  -5   9   3    0.30    0.23
   5  -9   3    0.43    0.26
  -5   9   3    0.55    0.12
  -5  -9  -3    0.15    0.21
  -5  -9  -3    0.15    0.21
  -5   9   3    0.30    0.23
   5  -9   3    0.43    0.26
   5  -9   3    0.54    0.20
  -5   9   3    0.55    0.12
  -5  -9   3    0.84    0.14
  -5  -9   3    0.37    0.31
   5   9   3    0.13    0.19
  -5  -9   3    0.37    0.31
  -5  -9   3    0.84    0.14
  -5  -9   3    0.31    0.12
   5   9   3    0.13    0.19
  -5  -9   3    0.31    0.12
   5  -9  -3    0.40    0.11
   5  -9  -3    0.40    0.11
   5  -9   4    1.85    0.45
   5  -9   4    1.85    0.45
  -5   9   4    2.33    0.38
   5  -9   4    1.78    0.32
  -5   9   4    2.19    0.27
  -5   9   4    2.33    0.38
  -5   9   4    2.19    0.27
   5  -9   4    1.78    0.32
   5  -9   4    1.99    0.32
   5  -9   4    1.99    0.32
   5  -9  -4    1.72    0.30
   5   9   4    1.77    0.37
   5   9   4    2.25    0.28
  -5  -9   4    1.51    0.47
   5   9   4    1.77    0.37
   5   9   4    2.31    0.47
  -5  -9   4    1.51    0.47
   5   9   4    2.25    0.28
   5   9   4    2.31    0.47
  -5  -9   4    1.97    0.41
   5  -9  -4    1.72    0.30
  -5  -9   4    1.97    0.41
  -6  -9   0    5.07    0.50
  -6  -9   0    5.07    0.50
   6  -9   0    5.47    0.50
   6   9   0    4.77    0.49
   6   9   0    4.77    0.49
   6  -9   0    5.47    0.50
   6  -9   1   27.14    2.37
  -6   9   1   30.30    2.38
   6  -9   1   27.14    2.37
  -6   9   1   30.30    2.38
   6  -9   1   27.13    2.37
   6  -9   1   27.17    2.37
   6   9  -1   28.48    2.34
   6   9  -1   28.48    2.34
   6  -9   1   27.13    2.37
   6  -9   1   27.17    2.37
  -6  -9   1   27.15    2.39
  -6  -9   1   23.67    2.42
   6   9   1   32.69    2.37
  -6  -9   1   23.67    2.42
   6   9   1   32.69    2.37
  -6  -9   1   25.57    2.31
  -6  -9   1   27.15    2.39
  -6  -9   1   25.57    2.31
   6  -9   2    3.94    0.40
   6  -9   2    3.14    0.39
   6  -9   2    3.14    0.39
   6  -9   2    3.94    0.40
   6  -9   2    4.09    0.43
  -6   9   2    4.63    0.51
  -6   9   2    3.97    0.36
   6  -9   2    4.09    0.43
  -6   9   2    3.97    0.36
  -6   9   2    4.63    0.51
   6   9   2    4.28    0.45
   6   9   2    4.28    0.45
  -6  -9   2    3.10    0.45
   6   9   2    3.24    0.38
  -6  -9   2    3.46    0.38
  -6  -9   2    3.44    0.44
   6   9   2    3.24    0.38
  -6  -9   2    3.44    0.44
   6   9   2    3.06    0.40
  -6  -9   2    3.10    0.45
  -6  -9   2    3.17    0.42
  -6  -9   2    3.17    0.42
  -6  -9   2    3.46    0.38
   6   9   2    3.06    0.40
   6  -9   3   16.09    1.59
   6  -9   3   16.09    1.59
   6  -9   3   17.91    1.65
   6  -9   3   18.28    1.59
   6  -9   3   17.91    1.65
   6  -9   3   18.28    1.59
   6   9   3   20.49    1.66
   6   9   3   17.90    1.63
   6  -9  -3   19.75    1.57
   6   9   3   20.49    1.66
  -6  -9   3   17.85    1.59
  -6  -9   3   17.85    1.59
   6  -9  -3   19.75    1.57
   6   9   3   17.90    1.63
   6  -9   4    2.09    0.42
  -6   9   4    2.87    0.44
   6  -9   4    2.16    0.47
  -6   9   4    2.33    0.33
   6  -9   4    2.09    0.42
  -6   9   4    2.87    0.44
  -6   9   4    2.33    0.33
   6  -9   4    2.16    0.47
   6   9   4    3.25    0.35
  -6  -9   4    3.71    0.53
  -6  -9   4    2.67    0.53
   6   9   4    3.25    0.35
  -6  -9   4    3.71    0.53
  -6  -9   4    2.67    0.53
  -7  -9   0    1.05    0.19
  -7   9   0    0.91    0.18
  -7   9   0    0.91    0.18
   7   9   0    1.25    0.23
  -7  -9   0    1.05    0.19
   7   9   0    1.25    0.23
  -7  -9   0    0.96    0.23
  -7  -9   0    0.96    0.23
  -7   9   1    0.20    0.14
   7  -9   1    0.12    0.13
  -7   9   1    0.15    0.11
  -7   9   1    0.15    0.11
   7  -9   1    0.41    0.13
   7  -9   1    0.12    0.13
   7  -9   1    0.41    0.13
  -7   9   1    0.20    0.14
   7   9   1    0.10    0.11
  -7  -9   1    0.01    0.18
  -7   9  -1    0.32    0.17
  -7  -9   1    0.31    0.23
  -7  -9   1    0.31    0.23
  -7   9  -1    0.32    0.17
  -7  -9   1    0.19    0.13
   7  -9  -1    0.29    0.10
  -7  -9   1    0.19    0.13
  -7  -9   1    0.01    0.18
   7  -9  -1    0.29    0.10
   7   9   1    0.10    0.11
  -7   9   2    1.13    0.27
   7  -9   2    1.48    0.23
   7  -9   2    0.75    0.20
  -7   9   2    1.13    0.27
  -7   9   2    1.00    0.18
   7  -9   2    0.99    0.20
   7  -9   2    0.75    0.20
   7  -9   2    0.99    0.20
  -7   9   2    1.00    0.18
   7  -9   2    1.48    0.23
  -7  -9   2    1.34    0.24
  -7  -9   2    1.19    0.25
  -7  -9   2    1.22    0.24
   7   9   2    0.96    0.17
  -7  -9   2    0.98    0.28
   7  -9  -2    1.09    0.18
   7   9   2    0.94    0.24
   7  -9  -2    1.09    0.18
   7   9   2    0.94    0.24
   7   9   2    0.99    0.20
  -7  -9   2    1.22    0.24
  -7  -9   2    1.19    0.25
   7   9   2    0.96    0.17
  -7  -9   2    0.98    0.28
  -7  -9   2    1.34    0.24
   7   9   2    0.99    0.20
  -7   9   3   -0.03    0.21
   7  -9   3    0.12    0.18
   7  -9   3    0.11    0.20
   7  -9   3    0.11    0.20
  -7   9   3   -0.03    0.21
   7  -9   3    0.12    0.18
   7   9   3   -0.05    0.20
  -7  -9   3    0.21    0.15
  -7  -9   3    0.17    0.16
   7   9   3    0.39    0.22
  -7  -9   3    0.17    0.16
   7  -9  -3    0.53    0.15
   7  -9  -3    0.53    0.15
   7   9   3    0.39    0.22
   7   9   3   -0.05    0.20
  -7  -9   3    0.21    0.15
  -7   9   4    1.25    0.30
  -7   9   4    1.03    0.22
   7  -9   4    1.01    0.26
   7  -9   4    1.01    0.26
  -7   9   4    1.03    0.22
  -7  -9  -4    0.45    0.29
   7  -9   4    0.91    0.38
   7  -9   4    0.91    0.38
   7  -9   4    1.10    0.27
   7  -9   4    1.10    0.27
  -7   9   4    1.25    0.30
  -7  -9  -4    0.45    0.29
   7   9   4    0.91    0.19
   7   9   4    0.48    0.38
  -7  -9   4    1.53    0.26
   7   9   4    0.91    0.19
  -7  -9   4    1.51    0.37
   7   9   4    0.48    0.38
  -7  -9   4    0.95    0.45
  -7  -9   4    0.95    0.45
  -7  -9   4    1.53    0.26
  -7  -9   4    1.51    0.37
   8  -9   0    1.64    0.26
   8   9   0    1.94    0.25
  -8  -9   0    1.98    0.30
  -8  -9   0    1.69    0.32
  -8   9   0    1.88    0.26
   8   9   0    1.94    0.25
  -8   9   0    1.88    0.26
   8  -9   0    1.64    0.26
  -8  -9   0    1.98    0.30
  -8  -9   0    1.69    0.32
  -8  -9  -1   16.25    1.29
   8  -9   1   14.49    1.33
  -8   9   1   13.26    1.34
   8   9  -1   15.35    1.31
  -8   9   1   13.26    1.34
   8   9  -1   15.35    1.31
   8  -9   1   14.49    1.33
  -8  -9  -1   16.25    1.29
   8  -9  -1   16.60    1.34
   8   9   1   14.64    1.34
  -8   9  -1   16.12    1.36
  -8  -9   1   13.14    1.41
  -8  -9   1   13.14    1.41
   8  -9  -1   16.60    1.34
   8   9   1   14.64    1.34
  -8   9  -1   16.12    1.36
   8  -9   2    1.34    0.27
   8  -9   2    2.41    0.32
   8  -9   2    1.70    0.28
  -8   9   2    1.63    0.27
   8  -9   2    2.41    0.32
  -8   9   2    1.63    0.27
   8  -9   2    1.70    0.28
   8  -9   2    1.34    0.27
   8   9   2    1.77    0.21
   8   9   2    1.75    0.29
  -8  -9   2    1.21    0.38
  -8  -9   2    2.08    0.33
  -8  -9   2    2.44    0.32
  -8  -9   2    1.21    0.38
  -8   9  -2    1.68    0.33
   8   9   2    1.77    0.21
  -8   9  -2    1.68    0.33
   8   9   2    1.75    0.29
  -8  -9   2    2.08    0.33
  -8  -9   2    2.44    0.32
   8  -9   3    6.72    0.73
   8  -9   3    6.54    0.63
   8  -9   3    6.72    0.73
  -8   9   3    8.14    0.76
  -8   9   3    8.14    0.76
   8  -9   3    6.55    0.63
  -8  -9   3    7.68    0.65
  -8  -9   3    7.68    0.65
  -8  -9   3    5.25    0.66
   8  -9  -3    5.77    0.62
   8   9   3    6.53    0.66
   8  -9  -3    5.77    0.62
  -8  -9   3    5.25    0.66
   8   9   3    7.19    0.72
   8   9   3    6.53    0.66
   8   9   3    5.82    0.63
   8   9   3    5.82    0.63
   8   9   3    7.19    0.72
  -8   9   4    2.15    0.32
  -8   9   4    1.92    0.39
  -8   9   4    2.16    0.32
  -8   9   4    1.92    0.39
   8  -9   4    1.34    0.33
   8  -9   4    1.70    0.44
   8  -9   4    1.70    0.44
   8  -9   4    1.34    0.33
  -8  -9   4    0.89    0.49
   8   9   4    1.58    0.44
   8   9   4    1.45    0.37
  -8  -9   4    0.89    0.49
  -8  -9   4    2.36    0.47
  -8  -9   4    2.17    0.32
   8   9   4    1.65    0.28
   8   9   4    1.58    0.44
  -8  -9   4    2.17    0.32
   8   9   4    1.65    0.28
   8   9   4    1.45    0.37
  -8  -9   4    2.36    0.47
  -9   9   0    1.39    0.26
   9   9   0    1.69    0.24
  -9  -9   0    1.24    0.25
  -9  -9   0    1.24    0.25
   9  -9   0    1.30    0.25
  -9   9   0    1.39    0.26
   9   9   0    1.69    0.24
   9  -9   0    1.30    0.25
   9  -9   1   31.55    2.96
   9   9  -1   41.10    2.93
   9  -9   1   31.55    2.96
  -9  -9  -1   31.44    2.90
  -9  -9  -1   31.44    2.90
   9   9  -1   41.10    2.93
   9  -9  -1   33.27    2.94
  -9  -9   1   35.19    3.02
   9   9   1   35.35    2.94
   9   9   1   35.35    2.94
   9  -9  -1   33.27    2.94
  -9  -9   1   35.19    3.02
  -9   9   2    1.68    0.32
  -9   9   2    1.07    0.24
   9  -9   2    1.17    0.25
  -9   9   2    1.07    0.24
   9  -9   2    1.17    0.25
  -9   9   2    1.68    0.32
  -9  -9   2    1.11    0.31
   9  -9  -2    1.21    0.25
  -9   9  -2    1.62    0.38
   9   9   2    1.66    0.28
   9   9   2    1.66    0.28
  -9  -9   2    1.72    0.32
  -9  -9   2    1.11    0.31
   9   9   2    1.57    0.18
  -9  -9   2    1.72    0.32
  -9   9  -2    1.62    0.38
   9  -9  -2    1.21    0.25
   9   9   2    1.57    0.18
   9  -9   3   20.92    1.99
   9  -9   3   22.52    2.02
   9  -9   3   20.92    1.99
  -9   9   3   25.56    2.07
   9  -9   3   22.52    2.02
  -9   9   3   25.56    2.07
  -9   9   3   18.89    1.98
  -9   9   3   18.89    1.98
   9   9   3   22.55    1.96
  -9  -9   3   27.04    1.98
   9   9   3   21.57    1.98
   9   9   3   24.25    2.04
   9   9   3   22.55    1.96
   9   9   3   21.57    1.98
  -9  -9   3   27.04    1.98
   9   9   3   24.25    2.04
   9  -9   4    1.57    0.43
   9  -9   4    1.57    0.43
  -9   9   4    1.22    0.37
  -9   9   4    1.22    0.37
   9  -9   4    1.26    0.31
   9  -9   4    1.26    0.31
  -9   9   4    1.73    0.32
  -9   9   4    1.73    0.32
   9   9   4    1.78    0.39
  -9  -9   4    2.71    0.49
   9   9   4    1.37    0.25
  -9  -9   4    1.14    0.51
  -9  -9   4    2.30    0.36
   9   9   4    1.37    0.25
   9   9   4    1.78    0.39
  -9  -9   4    2.30    0.36
   9   9   4    2.02    0.46
  -9  -9   4    2.71    0.49
  -9  -9   4    1.14    0.51
   9   9   4    2.02    0.46
 -10  -9   0   11.03    1.03
  10   9   0    9.46    0.91
 -10   9   0   11.43    0.96
 -10  -9   0   11.03    1.03
 -10   9   0   11.43    0.96
  10  -9   0    9.28    0.95
  10  -9   0    9.28    0.95
  10   9   0    9.46    0.91
 -10   9   1   30.06    2.27
 -10  -9  -1   24.54    2.20
  10  -9   1   24.34    2.27
 -10  -9  -1   24.54    2.20
 -10   9   1   30.06    2.27
  10  -9   1   24.34    2.27
  10  -9  -1   24.75    2.25
  10   9   1   26.75    2.24
  10   9   1   26.75    2.24
  10  -9  -1   24.75    2.25
 -10  -9   1   26.86    2.34
 -10  -9   1   26.86    2.34
 -10   9   2   11.32    0.97
  10  -9   2    9.36    0.92
 -10   9   2   11.32    0.97
  10  -9   2    9.36    0.92
  10  -9  -2    7.53    0.87
 -10   9  -2    9.62    1.06
 -10  -9   2   11.20    0.99
  10   9   2    9.95    0.92
  10   9   2    9.95    0.92
 -10  -9   2   11.20    0.99
 -10   9  -2    9.62    1.06
  10  -9  -2    7.53    0.87
  10  -9   3   22.97    1.73
 -10   9   3   19.75    1.74
 -10   9   3   19.75    1.74
  10  -9   3   22.97    1.73
  10   9   3   17.49    1.62
  10   9   3   19.32    1.70
 -10  -9   3   15.93    1.70
  10   9   3   17.49    1.62
 -10  -9   3   15.93    1.70
  10   9   3   19.32    1.70
 -11   9   0    0.14    0.22
  11  -9   0    0.19    0.14
 -11  -9   0   -0.08    0.29
  11   9   0    0.02    0.11
 -11   9   0    0.14    0.22
 -11  -9   0   -0.08    0.29
  11   9   0    0.02    0.11
  11  -9   0    0.19    0.14
 -11  -9  -1    0.42    0.17
 -11   9   1    0.59    0.23
 -11  -9  -1    0.20    0.24
 -11   9   1    0.59    0.23
 -11  -9  -1    0.20    0.24
 -11  -9  -1    0.42    0.17
  11   9   1    0.25    0.14
 -11   9  -1    0.16    0.35
  11   9   1    0.25    0.14
 -11  -9   1    0.74    0.35
 -11   9  -1    0.16    0.35
 -11  -9   1    0.74    0.35
 -11   9   2    0.26    0.24
  11  -9   2   -0.10    0.21
 -11   9   2    0.26    0.24
  11  -9   2   -0.10    0.21
 -11   9  -2   -0.29    0.47
 -11   9  -2   -0.29    0.47
 -11  -9   2    0.05    0.32
  11   9   2    0.10    0.17
 -11  -9   2    0.05    0.32
 -11  -9   2    0.30    0.28
  11   9   2    0.10    0.17
 -11  -9   2    0.30    0.28
  11  -9   3    0.22    0.25
  11  -9   3    0.22    0.25
 -11   9   3   -0.02    0.28
 -11   9   3   -0.02    0.28
 -11  -9   3    0.20    0.23
  11   9   3   -0.10    0.17
  11   9   3    0.51    0.26
  11   9   3    0.51    0.26
 -11  -9   3    0.06    0.31
 -11  -9   3    0.20    0.23
  11   9   3   -0.10    0.17
 -11  -9   3    0.06    0.31
 -12   9   0    0.01    0.25
 -12  -9   0    0.26    0.31
  12   9   0    0.00    0.13
 -12  -9   0    0.26    0.31
 -12   9   0    0.01    0.25
  12   9   0    0.00    0.13
 -12   9   1    2.81    0.42
 -12  -9  -1    2.27    0.34
 -12   9   1    2.81    0.42
 -12  -9  -1    2.47    0.45
 -12  -9  -1    2.27    0.34
 -12  -9  -1    2.47    0.45
 -12   9  -1    4.26    0.57
 -12   9  -1    4.26    0.57
 -12  -9   1    2.10    0.50
  12   9   1    2.59    0.36
 -12  -9   1    2.10    0.50
  12   9   1    2.59    0.36
 -12   9   2    0.24    0.28
 -12   9   2    0.24    0.28
  12  -9   2    0.01    0.23
  12  -9   2    0.01    0.23
 -12   9  -2   -0.26    0.71
 -12  -9   2    0.10    0.30
  12   9   2   -0.10    0.16
  12   9   2   -0.10    0.16
  12   9   2    0.23    0.19
 -12  -9   2    0.10    0.30
 -12   9  -2   -0.26    0.71
  12   9   2    0.23    0.19
  12  -9   3    2.04    0.43
  12  -9   3    2.04    0.43
 -12   9   3    2.10    0.45
 -12   9   3    2.10    0.45
  12   9   3    1.57    0.31
  12   9   3    1.78    0.36
 -12  -9   3    1.93    0.47
 -12  -9   3    2.57    0.38
  12   9   3    1.78    0.36
 -12  -9   3    1.93    0.47
  12   9   3    1.57    0.31
 -12  -9   3    2.57    0.38
 -13  -9   0    3.93    0.64
 -13   9   0    5.01    0.67
 -13   9   0    5.01    0.67
 -13  -9   0    3.93    0.64
 -13  -9  -1    6.44    0.79
 -13  -9  -1    6.44    0.79
 -13   9   1   10.19    1.00
 -13  -9  -1    7.08    0.93
 -13  -9  -1    7.08    0.93
 -13   9   1   10.19    1.00
  13   9   1    8.15    0.77
 -13   9  -1    9.27    1.17
 -13   9  -1    9.27    1.17
  13   9   1    8.15    0.77
 -13  -9   1    8.03    1.00
 -13  -9   1    8.03    1.00
 -13   9   2    4.07    0.56
 -13   9   2    4.07    0.56
  13   9   2    3.70    0.50
 -13  -9   2    4.74    0.62
  13   9   2    3.31    0.49
 -13  -9   2    4.74    0.62
  13   9   2    3.31    0.49
  13   9   2    3.70    0.50
 -14  -9   0    8.04    1.19
 -14  -9   0    8.04    1.19
 -14   9   0   12.24    1.12
 -14   9   0   12.24    1.12
 -14  -9  -1    8.96    1.11
 -14  -9  -1    8.96    1.11
 -14  -9  -1    8.77    1.00
 -14  -9  -1    8.77    1.00
  14   9   1   11.54    0.96
 -14  -9   1    9.43    1.18
 -14  -9   1    9.43    1.18
  14   9   1   11.54    0.96
 -14  -9  -2    6.64    1.04
 -14   9   2    9.75    0.99
 -14   9   2    9.75    0.99
 -14  -9  -2    6.64    1.04
  14   9   2    9.16    0.88
  14   9   2    8.40    0.88
 -14  -9   2    9.01    1.01
 -14  -9   2    9.01    1.01
  14   9   2    9.16    0.88
  14   9   2    8.40    0.88
 -15   9   0   20.43    1.92
 -15   9   0   20.43    1.92
 -15  -9  -1   14.78    1.52
 -15  -9  -1   14.78    1.52
 -15  -9   1   13.15    1.50
 -15  -9   1   13.15    1.50
   0  10   0  138.29   11.07
   0 -10   0  128.29   11.06
   0 -10   0  128.29   11.06
   0  10   0  138.29   11.07
   0 -10  -1   40.25    3.47
   0 -10  -1   34.96    3.52
   0 -10   1   46.70    3.50
   0  10  -1   42.95    3.46
   0  10   1   41.52    3.47
   0 -10   1   43.16    3.48
   0 -10   1   43.16    3.48
   0 -10  -1   40.25    3.47
   0  10  -1   42.95    3.46
   0  10   1   45.12    3.49
   0 -10  -1   34.96    3.52
   0 -10   1   37.05    3.50
   0  10   1   45.12    3.49
   0 -10   1   37.05    3.50
   0  10   1   41.52    3.47
   0 -10   1   46.70    3.50
   0  10  -2  107.21    8.51
   0 -10   2  111.05    8.55
   0 -10   2  100.77    8.56
   0  10   2   90.58    8.56
   0 -10   2  100.77    8.56
   0 -10   2  111.05    8.55
   0  10  -2  107.21    8.51
   0  10   2   90.58    8.56
   0  10   3   25.65    2.27
   0  10   3   25.95    2.21
   0  10   3   25.65    2.27
   0 -10   3   26.50    2.30
   0  10   3   25.95    2.21
   0 -10   3   26.50    2.30
   0 -10   4   53.43    4.96
   0 -10   4   55.35    4.85
   0  10   4   63.28    4.87
   0  10   4   57.54    4.93
   0 -10   4   59.55    4.96
   0 -10   4   55.35    4.85
   0  10   4   63.28    4.87
   0 -10   4   53.43    4.96
   0  10   4   57.54    4.93
   0 -10   4   59.55    4.96
  -1 -10   0    8.48    0.78
  -1 -10   0    8.48    0.78
   1 -10   0    9.91    0.83
   1 -10   0    9.62    0.79
  -1  10   0    9.20    0.77
  -1  10   0    8.07    0.78
   1 -10   0    9.62    0.79
   1 -10   0    9.91    0.83
  -1  10   0    8.07    0.78
   1  10   0    7.90    0.78
  -1 -10   0    8.40    0.84
  -1 -10   0    8.92    0.79
  -1 -10   0    8.40    0.84
   1 -10   0    9.30    0.76
   1  10   0    7.90    0.78
  -1  10   0    9.20    0.77
  -1 -10   0    8.92    0.79
   1 -10   0    9.30    0.76
   1 -10   1  138.03   10.90
  -1  10   1  123.41   10.87
   1 -10   1  129.68   10.91
  -1  10   1  123.31   10.87
  -1  10   1  125.25   10.89
   1 -10   1  136.37   10.90
   1  10  -1  130.37   10.87
   1  10  -1  130.37   10.87
   1 -10   1  136.37   10.90
  -1  10   1  125.25   10.89
   1 -10   1  138.03   10.90
   1 -10   1  129.68   10.91
  -1  10  -1  144.67   10.87
  -1 -10   1  131.33   10.89
   1  10   1  117.50   10.89
   1 -10  -1  127.33   10.93
   1  10   1  136.46   10.88
  -1  10  -1  144.67   10.87
   1  10   1  117.50   10.89
   1  10   1  136.46   10.88
   1 -10  -1  127.33   10.93
  -1 -10   1  131.33   10.89
  -1  10   2    8.86    0.69
  -1  10   2    8.86    0.69
  -1  10   2    6.67    0.73
  -1 -10  -2    6.31    0.75
   1  10  -2    7.29    0.67
  -1  10   2    6.67    0.73
   1  10  -2    7.29    0.67
  -1 -10  -2    6.31    0.75
   1  10   2    7.65    0.69
   1 -10  -2    8.56    0.75
   1  10   2    7.99    0.75
   1 -10  -2    8.56    0.75
  -1 -10   2    8.04    0.71
   1  10   2    7.65    0.69
   1  10   2    7.99    0.75
  -1 -10   2    8.04    0.71
  -1 -10   2    7.88    0.74
  -1 -10   2    7.88    0.74
  -1  10   3   91.52    7.76
  -1  10   3   90.79    7.81
  -1  10   3   91.52    7.76
  -1  10   3   90.79    7.81
   1 -10   3   92.79    7.83
   1 -10   3   92.79    7.83
  -1 -10   3   80.53    7.82
  -1 -10   3  102.79    7.77
   1  10   3  104.19    7.77
  -1 -10   3  102.79    7.77
   1  10   3  104.19    7.77
  -1 -10   3   80.53    7.82
  -1 -10   3   87.40    7.93
  -1 -10   3   87.40    7.93
   1 -10   4    6.29    0.72
   1 -10   4    5.72    0.59
  -1  10   4    5.94    0.59
  -1  10   4    7.28    0.76
   1 -10   4    6.41    0.81
   1 -10   4    6.41    0.81
  -1  10   4    7.28    0.76
   1 -10   4    5.72    0.59
   1 -10   4    6.29    0.72
  -1  10   4    5.94    0.59
  -1 -10   4    7.90    0.87
   1 -10  -4    5.68    0.59
  -1 -10   4    7.90    0.87
  -1 -10   4    6.67    0.72
   1 -10  -4    5.68    0.59
  -1 -10   4    6.67    0.72
  -1 -10   4    6.93    0.59
  -1 -10   4    6.93    0.59
  -2 -10   0    2.39    0.29
  -2  10   0    1.87    0.23
   2 -10   0    1.77    0.22
   2 -10   0    1.82    0.26
  -2 -10   0    2.18    0.23
   2 -10   0    2.30    0.24
   2 -10   0    2.30    0.24
  -2 -10   0    2.18    0.23
   2 -10   0    1.82    0.26
  -2  10   0    2.05    0.20
  -2  10   0    2.05    0.20
  -2  10   0    1.87    0.23
   2 -10   0    1.77    0.22
   2  10   0    1.97    0.23
   2  10   0    1.97    0.23
  -2 -10   0    2.39    0.29
   2 -10   1    2.35    0.29
   2  10  -1    2.37    0.25
  -2  10   1    2.16    0.29
  -2  10   1    2.16    0.29
   2 -10   1    2.18    0.27
  -2  10   1    2.41    0.23
   2 -10   1    2.76    0.28
  -2 -10  -1    2.53    0.24
  -2  10   1    2.41    0.23
   2 -10   1    2.76    0.28
   2  10  -1    2.37    0.25
   2 -10   1    2.18    0.27
   2 -10   1    2.35    0.29
  -2 -10  -1    2.53    0.24
   2  10   1    2.20    0.26
  -2 -10   1    2.22    0.26
  -2  10  -1    2.26    0.24
   2 -10  -1    2.55    0.30
  -2 -10   1    2.18    0.27
  -2 -10   1    2.35    0.31
  -2 -10   1    2.35    0.31
  -2  10  -1    2.19    0.24
  -2 -10   1    2.18    0.27
   2  10   1    2.48    0.30
   2  10   1    2.20    0.26
   2 -10  -1    2.55    0.30
   2  10   1    2.48    0.30
  -2 -10   1    2.60    0.29
  -2 -10   1    2.60    0.29
  -2 -10   1    2.50    0.25
  -2  10  -1    2.26    0.24
  -2 -10   1    2.50    0.25
  -2  10  -1    2.19    0.24
  -2 -10   1    2.22    0.26
  -2  10   2    1.71    0.17
  -2 -10  -2    0.87    0.24
   2 -10   2    1.67    0.19
  -2  10   2    1.71    0.17
   2  10  -2    1.16    0.18
   2  10  -2    1.16    0.18
   2 -10   2    1.62    0.24
   2 -10   2    1.67    0.19
  -2  10   2    0.79    0.22
   2 -10   2    1.62    0.24
  -2  10   2    0.79    0.22
  -2 -10  -2    0.87    0.24
   2  10   2    1.32    0.19
  -2 -10   2    1.29    0.23
  -2 -10   2    1.36    0.21
  -2  10  -2    1.49    0.16
   2  10   2    1.32    0.19
   2 -10  -2    1.28    0.22
  -2 -10   2    1.36    0.21
  -2 -10   2    1.43    0.24
   2  10   2    1.48    0.23
   2  10   2    1.44    0.25
  -2 -10   2    1.29    0.23
   2 -10  -2    1.28    0.22
  -2 -10   2    1.43    0.24
   2  10   2    1.44    0.25
   2  10   2    1.48    0.23
  -2  10  -2    1.49    0.16
  -2  10   3    1.38    0.18
   2 -10   3    1.70    0.21
  -2  10   3    1.58    0.30
   2 -10   3    1.55    0.33
   2 -10   3    1.55    0.33
  -2  10   3    1.38    0.18
   2 -10   3    1.70    0.21
  -2  10   3    1.58    0.30
   2 -10  -3    1.22    0.21
   2  10   3    0.95    0.18
  -2 -10   3    1.38    0.19
   2  10   3    1.20    0.29
   2  10   3    0.95    0.18
  -2 -10   3    1.38    0.19
  -2 -10   3    1.70    0.34
  -2 -10   3    1.70    0.34
   2 -10  -3    1.22    0.21
   2  10   3    1.20    0.29
   2 -10   4    0.16    0.36
   2 -10   4    0.51    0.18
  -2  10   4    0.61    0.26
  -2  10   4    0.61    0.26
   2 -10   4    0.16    0.36
   2 -10   4    0.33    0.22
   2 -10   4    0.33    0.22
  -2 -10  -4    0.52    0.19
  -2  10   4    0.42    0.13
  -2 -10  -4    0.52    0.19
  -2  10   4    0.42    0.13
   2 -10   4    0.51    0.18
  -2 -10   4    0.63    0.14
   2 -10  -4    0.47    0.13
   2 -10  -4    0.47    0.13
   2  10   4    0.87    0.33
  -2 -10   4    0.53    0.36
  -2 -10   4    0.53    0.36
   2  10   4    0.78    0.16
   2  10   4    0.87    0.33
  -2 -10   4    0.63    0.14
   2  10   4    0.78    0.16
   3 -10   0    6.24    0.53
   3 -10   0    6.24    0.53
   3  10   0    5.28    0.51
   3  10   0    6.70    0.54
  -3 -10   0    5.14    0.52
  -3  10   0    5.36    0.49
   3 -10   0    6.36    0.55
   3 -10   0    6.36    0.55
   3  10   0    5.28    0.51
  -3  10   0    5.37    0.49
  -3  10   0    5.09    0.53
  -3  10   0    5.09    0.53
   3  10   0    6.70    0.54
  -3 -10   0    5.14    0.52
   3  10  -1    0.32    0.10
  -3 -10  -1    0.24    0.18
   3 -10   1    0.31    0.10
  -3  10   1    0.34    0.07
   3 -10   1    0.29    0.10
  -3  10   1    0.34    0.07
  -3 -10  -1    0.34    0.08
  -3 -10  -1    0.24    0.18
   3 -10   1    0.29    0.10
  -3  10   1    0.20    0.13
   3  10  -1    0.32    0.10
   3 -10   1    0.50    0.14
  -3 -10  -1    0.34    0.08
   3 -10   1    0.50    0.14
   3 -10   1    0.31    0.10
  -3  10   1    0.20    0.13
   3 -10  -1    0.33    0.11
   3  10   1    0.35    0.10
  -3  10  -1    0.43    0.06
  -3 -10   1    0.26    0.14
  -3 -10   1    0.49    0.13
  -3  10  -1    0.43    0.06
   3  10   1    0.33    0.14
  -3 -10   1    0.32    0.15
  -3 -10   1    0.49    0.13
  -3  10  -1    0.48    0.09
  -3  10  -1    0.48    0.09
  -3 -10   1    0.32    0.15
  -3 -10   1    0.26    0.14
  -3 -10   1    0.24    0.10
   3  10   1    0.35    0.10
  -3 -10   1    0.35    0.11
  -3 -10   1    0.35    0.11
   3  10   1    0.33    0.14
   3 -10  -1    0.33    0.11
  -3 -10   1    0.24    0.10
  -3  10   2    4.18    0.53
   3 -10   2    4.06    0.51
  -3  10   2    5.22    0.44
   3  10  -2    5.05    0.45
  -3  10   2    5.22    0.44
   3 -10   2    5.15    0.47
   3 -10   2    4.06    0.51
   3 -10   2    5.15    0.47
  -3  10   2    4.18    0.53
   3  10  -2    5.05    0.45
   3  10   2    4.82    0.51
  -3 -10   2    4.59    0.52
  -3 -10   2    4.59    0.52
  -3 -10   2    4.43    0.52
  -3 -10   2    3.91    0.48
   3 -10  -2    5.71    0.48
  -3 -10   2    4.43    0.52
   3  10   2    4.82    0.51
   3 -10  -2    5.71    0.48
  -3 -10   2    3.91    0.48
  -3 -10  -3    0.19    0.19
  -3  10   3    0.09    0.19
  -3  10   3    0.09    0.19
  -3  10   3    0.26    0.09
  -3  10   3    0.26    0.09
  -3 -10  -3    0.19    0.19
   3 -10   3   -0.02    0.26
   3 -10   3   -0.02    0.26
   3 -10  -3    0.28    0.11
   3  10   3    0.32    0.11
   3  10   3    0.16    0.16
  -3 -10   3    0.30    0.11
  -3 -10   3    0.48    0.27
  -3 -10   3    0.48    0.27
  -3 -10   3    0.30    0.11
   3 -10  -3    0.28    0.11
   3  10   3    0.32    0.11
   3  10   3    0.16    0.16
   3 -10   4    2.43    0.39
   3 -10   4    2.41    0.49
  -3  10   4    2.96    0.42
  -3  10   4    2.96    0.42
   3 -10   4    2.41    0.49
  -3  10   4    2.75    0.31
  -3  10   4    2.75    0.31
   3 -10   4    2.43    0.39
   3  10   4    2.95    0.44
  -3 -10   4    1.80    0.39
  -3 -10   4    3.28    0.31
   3 -10  -4    2.27    0.29
  -3 -10   4    1.80    0.39
   3  10   4    2.95    0.44
  -3 -10   4    2.12    0.50
  -3 -10   4    2.12    0.50
   3 -10  -4    2.27    0.29
  -3 -10   4    3.28    0.31
   4  10   0    0.48    0.10
  -4 -10   0    0.80    0.13
  -4 -10   0    0.82    0.18
  -4  10   0    0.72    0.17
   4 -10   0    0.43    0.12
  -4 -10   0    0.80    0.13
  -4 -10   0    0.07    0.17
   4 -10   0    0.43    0.12
  -4 -10   0    0.07    0.17
   4  10   0    0.48    0.10
   4 -10   0    0.46    0.12
   4  10   0    0.28    0.11
   4 -10   0    0.46    0.12
   4  10   0    0.28    0.11
  -4  10   0    0.72    0.17
  -4 -10   0    0.82    0.18
  -4 -10  -1    0.32    0.17
   4 -10   1    0.55    0.12
  -4  10   1    0.53    0.08
   4 -10   1    0.55    0.12
  -4 -10  -1    0.62    0.10
   4 -10   1    0.40    0.11
  -4  10   1    0.43    0.16
  -4  10   1    0.53    0.08
   4 -10   1    0.72    0.14
   4 -10   1    0.72    0.14
  -4  10   1    0.43    0.16
   4  10  -1    0.38    0.11
  -4 -10  -1    0.62    0.10
   4  10  -1    0.38    0.11
  -4 -10  -1    0.32    0.17
   4 -10   1    0.40    0.11
   4  10   1    0.49    0.14
  -4 -10   1    0.32    0.16
  -4 -10   1    0.73    0.16
  -4 -10   1    0.52    0.16
  -4 -10   1    0.51    0.12
  -4 -10   1    0.18    0.15
   4  10   1    0.63    0.13
  -4  10  -1    0.50    0.12
  -4 -10   1    0.18    0.15
   4 -10  -1    0.58    0.13
   4  10   1    0.49    0.14
  -4 -10   1    0.32    0.16
  -4 -10   1    0.52    0.16
  -4  10  -1    0.50    0.12
   4 -10  -1    0.58    0.13
  -4 -10   1    0.73    0.16
  -4 -10   1    0.51    0.12
   4  10   1    0.63    0.13
  -4  10   2    0.33    0.08
   4  10  -2    0.47    0.11
  -4  10   2    0.33    0.08
   4  10  -2    0.47    0.11
  -4  10   2    0.49    0.19
   4 -10   2    0.44    0.19
   4 -10   2    0.44    0.19
  -4  10   2    0.49    0.19
  -4  10  -2    0.23    0.09
  -4 -10   2    0.47    0.15
  -4 -10   2    0.32    0.18
  -4 -10   2    0.38    0.16
  -4 -10   2    0.38    0.16
   4 -10  -2    0.43    0.11
   4  10   2    0.22    0.09
  -4 -10   2    0.29    0.14
   4  10   2    0.22    0.09
   4 -10  -2    0.43    0.11
  -4  10  -2    0.23    0.09
  -4 -10   2    0.47    0.15
   4  10   2    0.37    0.17
  -4 -10   2    0.32    0.18
   4  10   2    0.37    0.17
  -4 -10   2    0.52    0.09
  -4 -10   2    0.29    0.14
  -4 -10   2    0.52    0.09
  -4  10   3   -0.05    0.18
  -4  10   3    0.22    0.08
   4 -10   3   -0.03    0.24
  -4 -10  -3    0.25    0.17
  -4  10   3    0.22    0.08
  -4  10   3   -0.05    0.18
  -4 -10  -3    0.25    0.17
   4 -10   3   -0.03    0.24
  -4 -10   3    0.07    0.10
   4  10   3    0.17    0.19
   4 -10  -3    0.17    0.09
   4  10   3    0.17    0.19
  -4 -10   3    0.01    0.30
  -4 -10   3    0.07    0.10
  -4 -10   3    0.01    0.30
   4 -10  -3    0.17    0.09
  -4  10   4    0.53    0.14
  -4 -10  -4    0.44    0.24
   4 -10   4    0.43    0.21
   4 -10   4    0.39    0.38
  -4  10   4    0.66    0.27
  -4 -10  -4    0.44    0.24
   4 -10   4    0.39    0.38
   4 -10   4    0.34    0.23
   4 -10   4    0.43    0.21
  -4  10   4    0.66    0.27
  -4  10   4    0.53    0.14
   4 -10   4    0.34    0.23
   4  10   4    0.54    0.14
  -4 -10   4    0.90    0.21
  -4 -10   4    0.33    0.42
  -4 -10   4    0.69    0.26
  -4 -10   4    0.69    0.26
   4  10   4    0.43    0.28
  -4 -10   4    0.90    0.21
   4  10   4    0.43    0.28
   4 -10  -4    0.55    0.16
  -4 -10   4    0.33    0.42
   4  10   4    0.54    0.14
   4 -10  -4    0.55    0.16
   5  10   0   37.29    3.01
  -5 -10   0   37.92    3.01
   5 -10   0   36.29    3.02
  -5  10   0   30.77    3.00
  -5  10   0   30.77    3.00
   5 -10   0   36.29    3.02
  -5 -10   0   37.92    3.01
   5  10   0   37.29    3.01
   5 -10   1   46.11    3.59
   5  10  -1   35.58    3.54
   5  10  -1   35.58    3.54
   5 -10   1   46.11    3.59
  -5  10   1   42.79    3.59
  -5  10   1   42.79    3.59
  -5  10  -1   41.17    3.53
  -5 -10   1   48.46    3.60
  -5 -10   1   48.46    3.60
   5  10   1   43.73    3.52
  -5 -10   1   42.22    3.59
  -5 -10   1   42.22    3.59
   5  10   1   38.68    3.56
  -5  10  -1   41.17    3.53
   5  10   1   43.73    3.52
   5  10   1   38.68    3.56
   5 -10   2   28.14    2.63
   5  10  -2   30.72    2.59
   5 -10   2   28.14    2.63
  -5  10   2   34.36    2.59
   5 -10   2   30.35    2.62
  -5  10   2   34.36    2.59
   5 -10   2   30.35    2.62
   5  10  -2   30.72    2.59
   5  10   2   31.50    2.62
  -5 -10   2   31.37    2.60
  -5 -10   2   31.37    2.60
   5  10   2   31.50    2.62
   5 -10  -2   32.41    2.61
  -5 -10   2   28.24    2.65
  -5 -10   2   32.85    2.58
  -5 -10   2   32.85    2.58
  -5 -10   2   28.32    2.62
  -5 -10   2   28.24    2.65
  -5 -10   2   28.32    2.62
   5 -10  -2   32.41    2.61
   5  10   2   28.50    2.64
   5  10   2   28.50    2.64
   5 -10   3   27.29    2.58
   5 -10   3   27.26    2.63
   5 -10   3   27.26    2.63
  -5  10   3   33.15    2.65
   5 -10   3   27.29    2.58
  -5  10   3   33.15    2.65
  -5 -10   3   36.00    2.54
  -5 -10   3   31.35    2.67
   5 -10  -3   30.07    2.56
  -5 -10   3   31.35    2.67
  -5 -10   3   29.80    2.58
   5  10   3   27.21    2.62
  -5 -10   3   29.80    2.58
   5  10   3   27.21    2.62
   5 -10  -3   30.07    2.56
  -5 -10   3   36.00    2.54
   5 -10   4   18.46    1.85
   5 -10   4   18.00    1.77
  -5  10   4   21.56    1.72
  -5  10   4   20.41    1.81
  -5  10   4   20.41    1.81
   5 -10   4   18.46    1.85
   5 -10   4   18.00    1.77
  -5  10   4   21.56    1.72
  -5 -10   4   21.83    1.87
  -5 -10   4   17.55    1.88
  -5 -10   4   17.55    1.88
   5  10   4   19.00    1.84
   5  10   4   18.15    1.81
   5  10   4   18.56    1.72
   5  10   4   19.00    1.84
   5 -10  -4   22.20    1.70
   5  10   4   18.15    1.81
   5 -10  -4   22.20    1.70
   5  10   4   18.57    1.72
  -5 -10   4   21.83    1.87
  -6 -10   0  102.90    8.72
  -6  10   0   96.18    8.69
   6  10   0  101.81    8.73
  -6  10   0   96.18    8.69
   6  10   0  101.81    8.73
  -6 -10   0  116.06    8.70
  -6 -10   0  102.90    8.72
  -6 -10   0  116.06    8.70
   6 -10   1   26.57    2.63
   6 -10   1   26.57    2.63
   6 -10   1   30.81    2.64
  -6  10   1   31.55    2.60
  -6  10   1   28.05    2.66
   6 -10   1   30.81    2.64
  -6 -10  -1   31.62    2.60
   6  10  -1   33.01    2.62
   6 -10   1   29.93    2.64
  -6  10   1   28.05    2.66
   6  10  -1   33.01    2.62
   6 -10   1   29.93    2.64
  -6 -10  -1   31.62    2.60
  -6  10   1   31.55    2.60
   6 -10  -1   33.68    2.65
  -6  10  -1   33.43    2.61
   6 -10  -1   33.68    2.65
  -6  10  -1   33.43    2.61
   6 -10   2   71.80    6.71
  -6  10   2   90.65    6.76
  -6  10   2   90.65    6.76
   6 -10   2   71.80    6.71
  -6  10   2   84.18    6.68
  -6  10   2   84.18    6.68
   6 -10   2   83.53    6.72
   6 -10   2   83.53    6.72
   6 -10  -2   89.89    6.70
   6  10   2   89.83    6.72
  -6 -10   2   71.32    6.70
  -6 -10   2   69.96    6.71
   6  10   2   89.84    6.72
  -6 -10   2   82.36    6.76
   6  10   2   71.80    6.68
   6 -10  -2   89.89    6.70
  -6 -10   2   69.96    6.71
  -6 -10   2   71.32    6.70
   6  10   2   75.28    6.72
   6  10   2   75.28    6.72
   6  10   2   71.80    6.68
  -6 -10   2   82.36    6.76
   6 -10   3   20.12    1.78
   6 -10   3   17.08    1.72
   6 -10   3   20.12    1.78
   6 -10   3   17.08    1.72
   6  10   3   18.85    1.75
   6  10   3   22.16    1.79
  -6 -10   3   16.76    1.81
   6  10   3   22.16    1.79
   6  10   3   18.85    1.75
  -6 -10   3   20.43    1.72
  -6 -10   3   21.77    1.69
   6 -10  -3   20.31    1.70
  -6 -10   3   21.77    1.69
  -6 -10   3   16.76    1.81
   6 -10  -3   20.31    1.70
  -6 -10   3   20.43    1.72
  -6  10   4   42.59    3.51
   6 -10   4   38.44    3.52
   6 -10   4   38.44    3.52
   6 -10   4   39.66    3.56
  -6  10   4   45.32    3.59
   6 -10   4   39.66    3.56
  -6  10   4   42.59    3.51
  -6  10   4   45.32    3.59
   6 -10   4   38.58    3.60
   6 -10   4   38.58    3.60
   6  10   4   42.36    3.52
  -6 -10   4   41.70    3.63
   6  10   4   40.78    3.58
   6  10   4   40.78    3.58
  -6 -10   4   41.70    3.63
   6  10   4   42.35    3.52
   6  10   4   42.74    3.58
   6  10   4   42.74    3.58
  -7  10   0   36.79    3.36
   7  10   0   43.96    3.37
  -7 -10   0   37.52    3.39
  -7  10   0   36.79    3.36
   7 -10   0   42.72    3.38
  -7 -10   0   37.83    3.36
  -7 -10   0   37.83    3.36
   7  10   0   43.96    3.37
  -7 -10   0   37.52    3.39
   7 -10   0   42.72    3.38
  -7  10   1   46.40    4.36
  -7  10   1   47.89    4.41
   7  10  -1   55.52    4.38
   7 -10   1   47.36    4.39
   7  10  -1   55.52    4.38
  -7  10   1   46.40    4.36
   7 -10   1   47.36    4.39
  -7 -10  -1   50.67    4.36
  -7  10   1   47.89    4.41
  -7 -10  -1   50.67    4.36
  -7 -10   1   45.58    4.43
  -7  10  -1   60.04    4.38
  -7 -10   1   58.94    4.47
  -7 -10   1   45.58    4.43
   7 -10  -1   59.34    4.37
  -7 -10   1   58.94    4.47
   7  10   1   50.35    4.40
   7 -10  -1   59.34    4.37
   7  10   1   50.35    4.40
  -7  10  -1   60.04    4.38
  -7  10   2   29.77    2.44
   7 -10   2   28.02    2.47
  -7  10   2   29.77    2.44
   7 -10   2   27.91    2.47
   7 -10   2   28.02    2.47
   7 -10   2   27.91    2.47
  -7 -10   2   24.85    2.45
   7  10   2   28.06    2.48
   7  10   2   28.06    2.48
  -7 -10   2   33.45    2.53
   7  10   2   27.12    2.41
   7 -10  -2   29.93    2.49
  -7 -10   2   32.66    2.46
   7 -10  -2   29.93    2.49
  -7 -10   2   24.85    2.45
   7  10   2   25.71    2.45
  -7 -10   2   32.66    2.46
   7  10   2   25.71    2.45
  -7 -10   2   33.45    2.53
   7  10   2   27.12    2.41
  -7  10   3   36.85    2.82
   7 -10   3   28.54    2.78
  -7  10   3   36.85    2.82
   7 -10   3   28.54    2.78
  -7 -10   3   29.34    2.74
  -7 -10   3   34.98    2.71
   7  10   3   31.58    2.74
   7  10   3   35.49    2.80
   7  10   3   28.29    2.74
  -7 -10   3   34.98    2.71
   7  10   3   35.49    2.80
  -7 -10   3   29.34    2.74
   7  10   3   31.58    2.74
   7  10   3   28.29    2.74
   7 -10   4   19.14    1.80
  -7  10   4   22.81    1.70
   7 -10   4   18.34    1.73
  -7  10   4   22.81    1.70
  -7  10   4   18.33    1.75
   7 -10   4   18.34    1.73
  -7  10   4   18.33    1.75
   7 -10   4   19.14    1.80
   7  10   4   18.92    1.68
   7  10   4   15.69    1.77
   7  10   4   18.93    1.76
   7  10   4   15.69    1.77
  -7 -10   4   18.68    1.85
   7  10   4   18.92    1.68
  -7 -10   4   18.68    1.85
   7  10   4   18.93    1.76
   8 -10   0    0.03    0.10
  -8  10   0   -0.17    0.13
  -8 -10   0   -0.06    0.19
   8 -10   0    0.03    0.10
  -8  10   0   -0.17    0.13
  -8 -10   0   -0.06    0.19
  -8 -10   0    0.08    0.13
   8  10   0   -0.05    0.09
  -8 -10   0    0.08    0.13
   8  10   0   -0.05    0.09
  -8  10   1    1.29    0.29
  -8 -10  -1    1.44    0.20
   8 -10   1    1.55    0.25
   8  10  -1    1.59    0.23
   8  10  -1    1.59    0.23
  -8  10   1    1.29    0.29
   8 -10   1    1.55    0.25
  -8 -10  -1    1.44    0.20
   8  10   1    1.73    0.26
  -8 -10   1    1.81    0.30
   8 -10  -1    1.86    0.24
  -8 -10   1    1.56    0.36
  -8  10  -1    2.44    0.29
  -8 -10   1    1.56    0.36
  -8 -10   1    1.10    0.33
   8  10   1    1.73    0.26
  -8 -10   1    1.10    0.33
   8 -10  -1    1.86    0.24
  -8  10  -1    2.44    0.29
  -8 -10   1    1.81    0.30
  -8  10   2    0.00    0.13
  -8  10   2   -0.21    0.21
  -8  10   2   -0.21    0.21
   8 -10   2    0.15    0.17
  -8  10   2    0.00    0.13
   8 -10   2    0.15    0.17
  -8 -10   2   -0.12    0.22
  -8 -10   2   -0.03    0.19
  -8 -10   2    0.07    0.18
  -8 -10   2   -0.03    0.19
   8  10   2   -0.32    0.11
  -8  10  -2    0.53    0.36
   8 -10  -2    0.04    0.09
   8  10   2   -0.32    0.11
   8  10   2    0.10    0.18
   8 -10  -2    0.04    0.09
  -8 -10   2    0.07    0.18
  -8 -10   2   -0.12    0.22
   8  10   2    0.10    0.18
  -8  10  -2    0.53    0.36
  -8  10   3    1.04    0.25
  -8  10   3    1.04    0.25
  -8  10   3    1.18    0.32
   8 -10   3    0.85    0.29
   8 -10   3    0.85    0.29
  -8  10   3    1.18    0.32
   8  10   3    0.57    0.19
   8  10   3    1.05    0.31
   8 -10  -3    1.14    0.21
   8  10   3    0.89    0.24
  -8 -10   3    1.52    0.24
   8  10   3    0.57    0.19
   8  10   3    1.05    0.31
  -8 -10   3    1.41    0.34
  -8 -10   3    1.41    0.34
   8 -10  -3    1.14    0.21
  -8 -10   3    1.52    0.24
   8  10   3    0.89    0.24
   8 -10   4   -0.07    0.33
  -8  10   4    0.15    0.27
   8 -10   4   -0.07    0.33
  -8  10   4    0.06    0.18
  -8 -10  -4   -0.16    0.29
  -8 -10  -4   -0.16    0.29
  -8  10   4    0.15    0.27
   8 -10   4   -0.43    0.20
  -8  10   4    0.06    0.18
   8 -10   4   -0.43    0.20
  -8 -10   4   -0.37    0.25
  -8 -10   4    0.81    0.46
  -8 -10   4    0.11    0.25
  -8 -10   4   -0.37    0.25
   8  10   4    0.14    0.14
  -8 -10   4    0.11    0.25
   8  10   4    0.14    0.14
   8  10   4    0.24    0.37
   8  10   4   -0.33    0.27
   8  10   4    0.24    0.37
  -8 -10   4    0.81    0.46
   8  10   4   -0.33    0.27
   9 -10   0    8.02    0.75
   9  10   0    7.73    0.73
  -9  10   0    7.09    0.75
  -9  10   0    7.09    0.75
  -9 -10   0    7.09    0.82
  -9 -10   0    8.46    0.77
   9 -10   0    8.02    0.75
  -9 -10   0    7.09    0.82
  -9 -10   0    8.46    0.77
   9  10   0    7.73    0.73
  -9 -10  -1   14.31    1.33
   9  10  -1   16.39    1.36
   9 -10   1   13.68    1.39
   9  10  -1   16.39    1.36
  -9 -10  -1   14.31    1.33
  -9  10   1   16.24    1.42
  -9  10   1   16.24    1.42
   9 -10   1   13.68    1.39
  -9 -10   1   14.94    1.48
  -9 -10   1   14.94    1.48
   9 -10  -1   17.92    1.39
   9  10   1   15.73    1.39
   9 -10  -1   17.92    1.39
   9  10   1   15.73    1.39
   9 -10   2    6.46    0.73
   9 -10   2    6.46    0.73
  -9  10   2    7.68    0.80
  -9  10   2    7.68    0.80
   9 -10  -2    6.88    0.67
  -9 -10   2    6.96    0.75
   9  10   2    7.16    0.73
   9  10   2    7.16    0.73
   9 -10  -2    6.88    0.67
  -9 -10   2    6.96    0.75
   9 -10   3    9.59    1.00
   9 -10   3    9.59    1.00
   9  10   3    9.79    0.92
   9  10   3    9.79    0.92
  -9 -10   3   11.79    0.94
  -9 -10   3    8.13    1.16
   9  10   3    9.97    1.00
  -9 -10   3    8.99    0.97
   9  10   3   10.39    0.94
  -9 -10   3    8.99    0.97
   9 -10  -3    9.32    0.91
  -9 -10   3   11.79    0.94
   9  10   3   10.39    0.94
  -9 -10   3    8.13    1.16
   9  10   3    9.97    1.00
   9 -10  -3    9.32    0.91
   9 -10   4    3.82    0.57
  -9  10   4    5.21    0.71
  -9  10   4    4.06    0.57
   9 -10   4    3.11    0.61
   9 -10   4    3.11    0.61
  -9  10   4    4.06    0.57
  -9  10   4    5.21    0.71
   9 -10   4    3.82    0.57
   9  10   4    4.20    0.49
   9  10   4    4.95    0.64
   9  10   4    4.95    0.64
   9  10   4    4.91    0.61
   9  10   4    4.20    0.49
   9  10   4    4.91    0.61
 -10 -10   0   45.81    3.82
 -10  10   0   49.44    3.77
  10  10   0   43.35    3.74
  10 -10   0   43.37    3.78
 -10 -10   0   40.05    3.77
  10  10   0   43.35    3.74
 -10  10   0   49.44    3.77
 -10 -10   0   45.81    3.82
  10 -10   0   43.37    3.78
 -10 -10   0   40.05    3.77
  10 -10   1   28.19    2.67
 -10 -10  -1   34.44    2.72
 -10 -10  -1   30.76    2.61
 -10 -10  -1   34.44    2.72
  10 -10   1   28.19    2.67
 -10 -10  -1   30.76    2.61
 -10 -10   1   27.52    2.72
  10  10   1   34.41    2.66
  10 -10  -1   30.26    2.66
  10 -10  -1   30.26    2.66
 -10 -10   1   27.52    2.72
  10  10   1   34.41    2.66
 -10  10   2   40.18    3.10
 -10  10   2   40.18    3.10
  10 -10   2   37.89    3.06
  10 -10   2   37.89    3.06
 -10 -10   2   37.97    3.08
  10 -10  -2   34.53    3.04
 -10 -10   2   37.97    3.08
  10  10   2   37.35    3.07
 -10 -10   2   29.33    3.15
 -10 -10   2   29.33    3.15
  10 -10  -2   34.53    3.04
  10  10   2   37.35    3.07
  10  10   2   32.90    3.05
  10  10   2   32.90    3.05
  10 -10   3   23.78    2.24
  10 -10   3   23.78    2.24
 -10  10   3   25.35    2.27
 -10  10   3   25.35    2.27
 -10 -10   3   21.77    2.24
 -10 -10   3   29.39    2.20
 -10 -10   3   21.77    2.24
  10  10   3   25.94    2.24
  10  10   3   25.94    2.24
 -10 -10   3   29.39    2.20
  11  10   0    4.83    0.48
  11  10   0    4.83    0.48
 -11 -10   0    3.33    0.55
 -11 -10   0    3.33    0.55
  11 -10   0    4.40    0.51
 -11 -10   0    3.59    0.59
 -11  10   0    5.22    0.58
 -11  10   0    5.22    0.58
 -11 -10   0    3.59    0.59
  11 -10   0    4.40    0.51
 -11 -10  -1   73.17    6.32
 -11  10   1   79.47    6.39
 -11 -10  -1   87.69    6.43
 -11 -10  -1   73.17    6.32
 -11  10   1   79.47    6.39
 -11 -10  -1   87.69    6.43
  11 -10  -1   64.85    6.36
 -11 -10   1   74.99    6.44
 -11 -10   1   74.99    6.44
  11  10   1   75.89    6.36
  11  10   1   75.89    6.36
  11 -10  -1   64.85    6.36
 -11  10   2    5.66    0.65
  11 -10   2    4.13    0.53
  11 -10   2    4.13    0.53
 -11  10   2    5.66    0.65
 -11 -10   2    5.14    0.65
 -11 -10   2    3.32    0.63
 -11 -10   2    5.14    0.65
  11  10   2    4.26    0.53
  11  10   2    3.90    0.50
  11  10   2    3.90    0.50
  11  10   2    4.26    0.53
 -11 -10   2    3.32    0.63
  11 -10   3   52.49    4.75
 -11  10   3   56.21    4.78
  11 -10   3   52.49    4.75
 -11  10   3   56.21    4.78
  11  10   3   56.47    4.75
  11  10   3   52.29    4.73
  11  10   3   56.47    4.75
  11  10   3   52.29    4.73
 -11 -10   3   63.37    4.83
 -11 -10   3   46.28    4.77
 -11 -10   3   63.79    4.72
 -11 -10   3   63.79    4.72
 -11 -10   3   46.28    4.77
 -11 -10   3   63.37    4.83
 -12 -10   0    2.03    0.46
 -12  10   0    3.70    0.48
 -12 -10   0    2.03    0.46
  12  10   0    2.52    0.35
  12  10   0    2.52    0.35
 -12  10   0    3.70    0.48
 -12 -10  -1    0.74    0.23
 -12  10   1    1.61    0.37
 -12 -10  -1    1.13    0.37
 -12 -10  -1    1.13    0.37
 -12  10   1    1.61    0.37
 -12 -10  -1    0.74    0.23
  12  10   1    0.83    0.22
 -12 -10   1    1.46    0.46
  12  10   1    0.83    0.22
 -12 -10   1    1.46    0.46
 -12  10  -1    1.95    0.43
 -12  10  -1    1.95    0.43
 -12  10   2    2.68    0.47
 -12  10   2    2.68    0.47
 -12 -10   2    3.18    0.48
 -12 -10   2    2.25    0.52
  12  10   2    1.99    0.36
 -12 -10   2    2.25    0.52
  12  10   2    1.99    0.36
 -12 -10   2    3.18    0.48
  12 -10   3    0.30    0.33
 -12  10   3    0.67    0.40
  12 -10   3    0.30    0.33
 -12  10   3    0.67    0.40
 -12 -10   3    0.58    0.27
 -12 -10   3    0.58    0.27
  12  10   3    0.19    0.27
  12  10   3    0.19    0.27
  12  10   3    0.25    0.27
  12  10   3    0.25    0.27
 -12 -10   3    0.86    0.30
 -12 -10   3    0.86    0.30
 -12 -10   3    0.43    0.40
 -12 -10   3    0.43    0.40
  13  10   0    8.39    0.84
 -13 -10   0    8.81    1.07
 -13  10   0   10.02    1.00
  13  10   0    8.39    0.84
 -13 -10   0    8.81    1.07
 -13  10   0   10.02    1.00
 -13 -10  -1    5.29    0.85
 -13 -10  -1    6.98    0.71
 -13 -10  -1    5.29    0.85
 -13 -10  -1    6.98    0.71
  13  10   1    6.87    0.69
  13  10   1    6.87    0.69
 -13 -10   1    7.08    0.94
 -13 -10   1    7.08    0.94
 -13  10   2    8.79    0.87
 -13  10   2    8.79    0.87
 -13 -10   2    5.65    0.91
 -13 -10   2    7.89    0.87
  13  10   2    6.55    0.72
 -13 -10   2    5.65    0.91
  13  10   2    5.72    0.70
  13  10   2    5.72    0.71
 -13 -10   2    7.89    0.87
  13  10   2    6.55    0.72
 -14 -10   0    1.32    0.35
 -14 -10   0    1.32    0.35
 -14  10   0    1.90    0.48
 -14 -10   0    1.36    0.50
 -14  10   0    1.90    0.48
 -14 -10   0    1.36    0.50
 -14  10   1    1.61    0.39
 -14  10   1    1.61    0.39
 -14 -10  -1    0.24    0.40
 -14 -10  -1    0.24    0.40
 -14 -10   1    0.07    0.44
 -14  10  -1    0.83    0.56
 -14  10  -1    0.83    0.56
 -14 -10   1    0.07    0.44
  14  10   1    0.77    0.24
  14  10   1    0.77    0.24
 -14 -10  -2    0.54    0.46
 -14  10   2    1.27    0.40
 -14  10   2    1.27    0.40
 -14 -10  -2    0.54    0.46
  14  10   2    1.33    0.32
  14  10   2    1.33    0.32
 -14 -10   2    0.47    0.44
  14  10   2    1.14    0.29
 -14 -10   2    1.22    0.42
 -14 -10   2    0.47    0.44
  14  10   2    1.14    0.29
 -14 -10   2    1.22    0.42
 -15 -10   0   10.95    1.26
 -15 -10   0    9.06    1.05
 -15 -10   0    9.06    1.05
 -15 -10   0   10.95    1.26
 -15  10   1    3.48    0.56
 -15 -10  -1    2.20    0.60
 -15 -10  -1    2.20    0.60
 -15  10   1    3.48    0.56
 -15  10  -1    4.19    0.77
 -15 -10   1    2.07    0.63
 -15  10  -1    4.19    0.77
 -15 -10   1    2.07    0.63
   0  11   0    0.09    0.09
   0 -11   0    0.04    0.07
   0 -11   0    0.04    0.10
   0 -11   0    0.04    0.10
   0 -11   0   -0.01    0.10
   0  11   0    0.09    0.09
   0 -11   0   -0.01    0.10
   0 -11   0    0.04    0.07
   0  11   1    0.09    0.10
   0  11  -1    0.02    0.07
   0 -11   1    0.02    0.11
   0 -11   1   -0.03    0.09
   0 -11   1    0.02    0.11
   0 -11   1   -0.03    0.09
   0 -11  -1   -0.05    0.07
   0  11   1    0.02    0.06
   0  11  -1    0.02    0.07
   0  11   1    0.02    0.06
   0 -11  -1   -0.07    0.10
   0 -11  -1   -0.07    0.10
   0 -11   1   -0.05    0.08
   0  11   1    0.09    0.10
   0 -11  -1   -0.05    0.07
   0 -11   1   -0.05    0.08
   0 -11   2   -0.07    0.13
   0 -11   2   -0.03    0.07
   0  11  -2   -0.10    0.08
   0  11   2    0.06    0.07
   0 -11   2   -0.03    0.07
   0  11   2    0.06    0.07
   0 -11  -2    0.11    0.13
   0  11   2   -0.03    0.15
   0  11   2   -0.03    0.15
   0  11  -2   -0.10    0.08
   0 -11  -2    0.11    0.13
   0 -11   2   -0.07    0.13
   0  11   3    0.02    0.18
   0  11   3    0.02    0.18
   0 -11   3    0.03    0.08
   0 -11   3    0.03    0.08
   0  11   3    0.03    0.08
   0  11   3    0.03    0.08
   0 -11   3   -0.15    0.27
   0 -11   3   -0.15    0.27
   0 -11   4    0.04    0.34
   0  11   4   -0.03    0.09
   0 -11  -4   -0.06    0.13
   0 -11   4    0.04    0.34
   0 -11   4    0.08    0.12
   0  11   4    0.05    0.28
   0 -11   4    0.08    0.12
   0  11   4   -0.03    0.09
   0  11   4    0.05    0.28
   0 -11  -4   -0.06    0.13
  -1 -11   0    6.12    0.61
   1 -11   0    6.41    0.59
   1 -11   0    5.79    0.63
   1  11   0    7.35    0.60
   1  11   0    7.35    0.60
   1 -11   0    6.41    0.59
  -1  11   0    5.73    0.56
   1 -11   0    5.79    0.63
   1 -11   0    7.23    0.57
  -1  11   0    5.59    0.58
  -1  11   0    5.73    0.56
  -1 -11   0    6.12    0.61
  -1  11   0    5.59    0.58
  -1 -11   0    7.31    0.59
  -1 -11   0    7.31    0.59
   1 -11   0    7.23    0.57
  -1  11   1   58.42    5.41
  -1 -11  -1   56.15    5.46
  -1  11   1   58.42    5.41
   1 -11   1   70.05    5.43
   1 -11   1   69.24    5.44
   1  11  -1   57.51    5.38
  -1 -11  -1   56.15    5.46
   1 -11   1   70.05    5.43
  -1  11   1   64.70    5.39
  -1 -11  -1   68.84    5.39
   1 -11   1   61.90    5.41
  -1 -11  -1   68.84    5.39
   1 -11   1   61.90    5.41
   1  11  -1   57.51    5.38
  -1  11   1   64.70    5.39
   1 -11   1   69.24    5.44
  -1  11  -1   65.84    5.38
   1  11   1   64.74    5.40
   1 -11  -1   71.19    5.46
  -1 -11   1   65.95    5.41
  -1 -11   1   56.29    5.43
   1 -11  -1   71.19    5.46
  -1 -11   1   56.29    5.43
  -1 -11   1   65.95    5.41
   1  11   1   74.64    5.42
  -1  11  -1   65.84    5.38
   1  11   1   74.64    5.42
   1  11   1   64.74    5.40
   1 -11   2    6.38    0.54
  -1  11   2    6.37    0.51
  -1  11   2    5.16    0.58
  -1  11   2    6.37    0.51
  -1 -11  -2    5.40    0.60
   1 -11   2    6.39    0.54
  -1  11   2    5.16    0.58
  -1 -11  -2    5.40    0.60
  -1 -11   2    5.29    0.54
  -1  11  -2    4.65    0.49
   1  11   2    5.74    0.53
  -1  11  -2    4.65    0.49
   1  11   2    5.74    0.53
  -1 -11   2    5.11    0.57
  -1 -11   2    5.29    0.54
  -1 -11   2    5.11    0.57
   1  11   2    6.44    0.59
  -1 -11   2    5.03    0.57
   1 -11  -2    5.50    0.58
   1 -11  -2    5.50    0.58
   1  11   2    6.44    0.59
  -1 -11   2    5.03    0.57
  -1  11   3   42.16    3.57
  -1  11   3   42.16    3.57
  -1  11   3   45.81    3.64
  -1  11   3   45.81    3.64
   1 -11   3   39.73    3.65
   1 -11   3   39.73    3.65
   1  11   3   38.31    3.63
  -1 -11   3   45.50    3.67
  -1 -11   3   45.50    3.67
   1  11   3   38.31    3.63
   1  11   3   43.35    3.58
   1  11   3   43.35    3.58
  -1  11   4    3.99    0.57
  -1  11   4    4.58    0.43
   1 -11   4    3.38    0.55
   1 -11   4    2.84    0.50
  -1  11   4    3.99    0.57
   1 -11   4    3.38    0.55
   1 -11   4    2.84    0.50
   1 -11   4    3.79    0.61
  -1  11   4    4.58    0.43
   1 -11   4    3.79    0.61
   1  11   4    4.45    0.44
  -1 -11   4    4.33    0.42
  -1 -11   4    4.33    0.42
   1  11   4    4.57    0.66
  -1 -11   4    3.79    0.63
  -1 -11   4    3.79    0.63
   1  11   4    4.57    0.66
   1  11   4    4.45    0.44
   2 -11   0    0.48    0.14
  -2 -11   0    0.90    0.19
  -2  11   0    0.56    0.13
  -2 -11   0    0.71    0.12
  -2  11   0    0.56    0.09
  -2 -11   0    0.43    0.17
   2 -11   0    0.72    0.12
  -2 -11   0    0.43    0.17
  -2 -11   0    0.71    0.12
  -2  11   0    0.56    0.13
  -2  11   0    0.56    0.09
  -2 -11   0    0.90    0.19
   2 -11   0    0.52    0.11
   2 -11   0    0.72    0.12
   2 -11   0    0.48    0.14
   2 -11   0    0.52    0.11
  -2 -11  -1    0.04    0.14
  -2  11   1    0.27    0.12
   2  11  -1    0.01    0.08
  -2 -11  -1    0.04    0.14
   2 -11   1    0.02    0.11
  -2  11   1    0.20    0.06
  -2  11   1    0.20    0.06
  -2  11   1    0.27    0.12
   2 -11   1    0.14    0.09
   2 -11   1    0.02    0.11
   2  11  -1    0.01    0.08
   2 -11   1    0.14    0.09
  -2 -11  -1    0.09    0.07
  -2 -11  -1    0.09    0.07
  -2 -11   1    0.03    0.10
  -2  11  -1    0.10    0.09
  -2 -11   1    0.05    0.08
  -2 -11   1    0.25    0.09
  -2  11  -1    0.10    0.09
   2 -11  -1    0.04    0.10
  -2 -11   1    0.29    0.13
  -2 -11   1    0.29    0.13
   2 -11  -1    0.04    0.10
  -2 -11   1    0.16    0.09
  -2 -11   1    0.03    0.10
   2  11   1    0.05    0.12
   2  11   1    0.05    0.12
   2  11   1    0.16    0.09
  -2 -11   1    0.05    0.08
  -2 -11   1    0.16    0.09
  -2 -11   1    0.25    0.09
   2  11   1    0.16    0.09
   2 -11   2    0.44    0.14
  -2  11   2    0.59    0.20
  -2  11   2    0.59    0.20
   2  11  -2    0.54    0.11
   2  11  -2    0.54    0.11
   2 -11   2    0.61    0.20
  -2  11   2    0.52    0.11
  -2  11   2    0.52    0.11
   2 -11   2    0.44    0.14
   2 -11   2    0.61    0.20
   2 -11  -2    0.54    0.15
   2  11   2    0.51    0.21
  -2 -11   2    0.39    0.14
   2  11   2    0.57    0.14
   2 -11  -2    0.54    0.15
  -2 -11   2    0.64    0.15
  -2  11  -2    0.63    0.11
  -2 -11   2    0.64    0.15
   2  11   2    0.51    0.21
  -2  11  -2    0.63    0.11
  -2 -11   2    0.39    0.14
  -2 -11   2    0.70    0.20
  -2 -11   2    0.70    0.20
   2  11   2    0.57    0.14
   2 -11   3    0.30    0.26
  -2 -11  -3    0.01    0.16
   2 -11   3    0.30    0.26
  -2  11   3    0.27    0.21
  -2  11   3    0.08    0.07
  -2 -11  -3    0.01    0.16
  -2  11   3    0.08    0.07
  -2  11   3    0.27    0.21
   2  11   3   -0.09    0.22
   2  11   3    0.02    0.09
   2  11   3    0.02    0.09
  -2 -11   3   -0.09    0.29
   2  11   3   -0.09    0.22
  -2 -11   3    0.23    0.10
   2 -11  -3    0.01    0.10
  -2 -11   3    0.23    0.10
   2 -11  -3    0.01    0.10
  -2 -11   3   -0.09    0.29
  -2  11   4    0.66    0.15
   2 -11   4    0.28    0.14
  -2 -11  -4    0.11    0.19
   2 -11   4    0.17    0.19
   2 -11   4    0.28    0.14
  -2  11   4    0.29    0.25
  -2  11   4    0.66    0.15
   2 -11   4    0.32    0.36
  -2  11   4    0.29    0.25
   2 -11   4    0.32    0.36
  -2 -11  -4    0.11    0.19
   2 -11   4    0.17    0.19
   2  11   4    0.53    0.28
   2 -11  -4    0.32    0.13
   2  11   4    0.53    0.28
   2  11   4    0.43    0.13
  -2 -11   4    0.51    0.14
   2  11   4    0.43    0.13
  -2 -11   4    0.16    0.36
  -2 -11   4    0.16    0.36
  -2 -11   4    0.51    0.14
   2 -11  -4    0.32    0.13
  -2 -11   4    0.46    0.23
  -2 -11   4    0.46    0.23
  -3 -11   0  525.84   40.20
  -3  11   0  481.89   40.08
  -3  11   0  514.28   40.09
  -3  11   0  481.89   40.08
   3  11   0  404.03   40.08
  -3 -11   0  469.49   40.09
   3 -11   0  539.99   40.12
  -3  11   0  514.26   40.09
   3  11   0  451.02   40.06
  -3 -11   0  469.49   40.09
   3  11   0  404.03   40.08
   3  11   0  451.02   40.06
   3 -11   0  539.99   40.12
  -3 -11   0  525.84   40.20
   3 -11   1   94.50    7.65
  -3  11   1   86.72    7.65
   3 -11   1   85.78    7.67
  -3  11   1   86.72    7.65
   3  11  -1   81.72    7.62
   3 -11   1   85.78    7.67
   3  11  -1   81.72    7.62
   3 -11   1   94.50    7.65
  -3  11  -1   87.29    7.60
   3  11   1   92.01    7.64
  -3  11  -1   89.44    7.59
   3 -11  -1  103.65    7.67
  -3 -11   1   99.35    7.62
  -3 -11   1   99.35    7.62
   3  11   1   92.01    7.64
  -3 -11   1   89.51    7.63
   3  11   1   97.58    7.69
   3  11   1   97.58    7.69
  -3 -11   1   89.51    7.63
  -3  11  -1   89.44    7.59
   3 -11  -1  103.65    7.67
  -3  11  -1   87.29    7.60
   3 -11   2  337.45   29.02
   3  11  -2  314.21   28.97
  -3  11   2  346.02   28.97
   3 -11   2  335.44   29.02
  -3  11   2  404.08   29.04
   3 -11   2  371.35   29.08
   3 -11   2  337.45   29.02
   3  11  -2  314.21   28.97
   3 -11   2  371.35   29.08
   3 -11   2  335.44   29.02
  -3  11   2  404.08   29.04
  -3  11   2  346.03   28.97
   3 -11  -2  373.09   29.02
   3  11   2  384.27   29.00
   3  11   2  384.26   29.00
  -3 -11   2  355.73   29.01
  -3 -11   2  312.99   29.02
  -3 -11   2  312.99   29.02
  -3 -11   2  345.56   29.05
   3 -11  -2  373.09   29.02
  -3  11  -2  316.24   28.95
  -3 -11   2  355.73   29.01
  -3 -11   2  345.56   29.05
  -3  11  -2  316.24   28.95
  -3  11   3   72.39    5.70
  -3  11   3   72.48    5.70
   3 -11   3   66.25    5.77
   3 -11   3   66.25    5.77
   3 -11  -3   60.04    5.71
  -3 -11   3   76.84    5.72
  -3 -11   3   64.93    5.79
  -3 -11   3   76.84    5.72
   3 -11  -3   60.04    5.71
  -3 -11   3   64.93    5.79
   3 -11   4  195.80   16.58
   3 -11   4  195.80   16.58
  -3  11   4  182.76   16.48
  -3  11   4  215.94   16.56
   3 -11   4  234.08   16.59
  -3  11   4  215.94   16.56
  -3  11   4  182.75   16.48
   3 -11   4  234.08   16.59
  -3 -11   4  184.05   16.56
   3 -11  -4  182.88   16.45
   3  11   4  193.49   16.55
   3 -11  -4  182.88   16.45
   3  11   4  193.49   16.55
  -3 -11   4  184.05   16.56
   4  11   0    1.29    0.16
  -4 -11   0    1.32    0.19
  -4 -11   0    1.30    0.22
  -4 -11   0    1.32    0.19
   4 -11   0    1.19    0.19
   4  11   0    1.29    0.16
  -4  11   0    1.14    0.21
   4 -11   0    1.19    0.19
  -4  11   0    1.14    0.21
  -4 -11   0    1.30    0.22
   4  11   0    1.07    0.18
   4  11   0    1.07    0.18
  -4  11   1    2.99    0.42
   4  11  -1    2.90    0.34
  -4  11   1    2.99    0.42
   4 -11   1    3.17    0.41
   4 -11   1    3.61    0.38
   4 -11   1    3.17    0.41
   4  11  -1    2.90    0.34
   4 -11   1    3.61    0.38
  -4 -11   1    2.45    0.42
   4 -11  -1    4.06    0.38
  -4 -11   1    3.00    0.36
  -4  11  -1    3.36    0.35
   4  11   1    3.64    0.36
  -4 -11   1    4.38    0.40
  -4 -11   1    3.20    0.41
   4 -11  -1    4.06    0.38
   4  11   1    3.64    0.36
  -4  11  -1    3.36    0.35
  -4 -11   1    4.38    0.40
  -4 -11   1    2.45    0.42
  -4 -11   1    4.22    0.41
  -4 -11   1    4.22    0.41
  -4 -11   1    3.00    0.36
  -4 -11   1    3.20    0.41
   4 -11   2    0.93    0.21
  -4  11   2    1.01    0.15
  -4  11   2    1.01    0.15
   4  11  -2    0.80    0.15
   4 -11   2    0.86    0.16
  -4  11   2    0.85    0.22
   4  11  -2    0.80    0.15
  -4 -11  -2    0.66    0.24
  -4  11   2    0.85    0.22
  -4 -11  -2    0.66    0.24
   4 -11   2    0.93    0.21
   4 -11   2    0.86    0.16
  -4 -11   2    1.10    0.14
  -4 -11   2    0.74    0.21
  -4 -11   2    1.12    0.16
  -4  11  -2    0.63    0.12
  -4 -11   2    0.77    0.21
  -4  11  -2    0.63    0.12
  -4 -11   2    1.01    0.23
  -4 -11   2    1.01    0.23
   4  11   2    0.98    0.17
   4  11   2    0.98    0.17
  -4 -11   2    0.74    0.21
  -4 -11   2    0.77    0.21
   4 -11  -2    1.24    0.22
  -4 -11   2    1.12    0.16
   4 -11  -2    1.24    0.22
  -4 -11   2    1.10    0.14
   4  11   2    0.74    0.21
   4  11   2    0.74    0.21
  -4  11   3    1.90    0.36
   4 -11   3    1.96    0.30
   4 -11   3    1.96    0.30
   4 -11   3    2.26    0.39
  -4  11   3    1.90    0.36
   4 -11   3    2.26    0.39
   4  11   3    2.00    0.27
  -4 -11   3    2.47    0.29
  -4 -11   3    2.46    0.45
   4  11   3    1.59    0.32
  -4 -11   3    2.46    0.45
   4 -11  -3    1.81    0.27
   4 -11  -3    1.81    0.27
  -4 -11   3    2.47    0.29
   4  11   3    1.59    0.32
   4  11   3    2.00    0.27
  -4  11   4    0.35    0.29
  -4 -11  -4    0.48    0.22
  -4  11   4    0.31    0.13
   4 -11   4    0.77    0.41
   4 -11   4    0.84    0.27
  -4 -11  -4    0.48    0.22
  -4  11   4    0.31    0.13
   4 -11   4    0.84    0.27
  -4  11   4    0.35    0.29
   4 -11   4    0.77    0.41
  -4 -11   4    0.75    0.17
  -4 -11   4    1.00    0.47
   4  11   4    0.42    0.30
  -4 -11   4    0.75    0.17
   4  11   4    0.42    0.30
  -4 -11   4    0.29    0.25
  -4 -11   4    1.00    0.47
   4  11   4    0.84    0.18
   4  11   4    0.84    0.18
   4 -11  -4    0.64    0.16
   4 -11  -4    0.64    0.16
  -4 -11   4    0.29    0.25
   5 -11   0    2.05    0.25
  -5  11   0    1.74    0.30
  -5 -11   0    1.72    0.36
  -5 -11   0    1.30    0.30
   5  11   0    2.82    0.28
   5 -11   0    2.05    0.25
  -5 -11   0    1.30    0.30
  -5 -11   0    1.72    0.36
  -5  11   0    1.74    0.30
   5  11   0    2.82    0.28
  -5 -11   0    2.36    0.26
  -5 -11   0    2.36    0.26
   5 -11   1    6.49    0.58
  -5  11   1    7.16    0.54
   5 -11   1    6.49    0.58
  -5 -11  -1    6.51    0.55
  -5 -11  -1    6.51    0.55
   5  11  -1    5.35    0.56
  -5  11   1    7.16    0.54
  -5  11   1    4.92    0.63
   5 -11   1    6.15    0.61
   5  11  -1    5.35    0.56
   5 -11   1    6.15    0.61
  -5  11   1    4.92    0.63
  -5 -11   1    6.94    0.63
   5  11   1    6.09    0.61
  -5  11  -1    5.06    0.59
  -5 -11   1    6.94    0.63
   5  11   1    5.92    0.55
   5  11   1    6.09    0.61
  -5 -11   1    4.97    0.62
   5  11   1    5.92    0.55
  -5 -11   1    4.97    0.62
  -5  11  -1    5.06    0.59
  -5  11   2    2.47    0.39
   5  11  -2    1.77    0.25
  -5  11   2    2.25    0.23
   5 -11   2    2.01    0.26
  -5  11   2    2.25    0.23
   5 -11   2    2.01    0.26
   5  11  -2    1.77    0.25
  -5  11   2    2.47    0.39
   5  11   2    1.75    0.26
  -5 -11   2    1.81    0.23
   5  11   2    1.75    0.26
   5  11   2    1.86    0.31
  -5 -11   2    1.81    0.23
  -5 -11   2    2.04    0.29
  -5 -11   2    1.80    0.31
  -5 -11   2    1.80    0.31
   5  11   2    1.86    0.31
  -5 -11   2    2.04    0.29
  -5  11   3    4.09    0.56
  -5  11   3    4.09    0.56
   5 -11   3    3.15    0.42
   5 -11   3    4.12    0.56
   5 -11   3    3.15    0.42
   5 -11   3    4.12    0.56
  -5 -11   3    4.27    0.44
   5  11   3    4.70    0.44
   5  11   3    3.59    0.55
   5  11   3    3.59    0.55
  -5 -11   3    4.06    0.58
  -5 -11   3    4.27    0.44
   5  11   3    4.70    0.44
  -5 -11   3    4.06    0.58
   5 -11   4    0.70    0.39
  -5  11   4    1.52    0.24
   5 -11   4    1.81    0.31
   5 -11   4    1.81    0.31
  -5  11   4    1.00    0.33
   5 -11   4    0.70    0.39
  -5 -11  -4    0.56    0.29
  -5 -11  -4    0.56    0.29
  -5  11   4    1.51    0.24
  -5  11   4    1.00    0.33
   5  11   4    1.84    0.40
   5  11   4    1.29    0.23
   5 -11  -4    1.18    0.21
  -5 -11   4    1.02    0.31
   5  11   4    1.10    0.44
   5  11   4    1.84    0.40
   5 -11  -4    1.18    0.21
  -5 -11   4    1.49    0.48
  -5 -11   4    1.49    0.48
   5  11   4    1.29    0.23
  -5 -11   4    1.02    0.31
   5  11   4    1.10    0.44
  -6  11   0    0.39    0.18
   6  11   0    0.41    0.14
  -6 -11   0    0.50    0.13
   6 -11   0    0.23    0.08
   6  11   0    0.41    0.14
  -6  11   0    0.39    0.18
  -6 -11   0    0.12    0.16
  -6 -11   0    0.12    0.16
  -6 -11   0    0.38    0.20
   6 -11   0    0.23    0.08
  -6 -11   0    0.50    0.13
  -6 -11   0    0.38    0.20
  -6  11   1    1.04    0.16
  -6  11   1    0.90    0.25
  -6 -11  -1    0.59    0.24
   6 -11   1    0.69    0.21
   6 -11   1    0.69    0.21
   6 -11   1    0.93    0.18
   6 -11   1    0.78    0.15
   6 -11   1    0.93    0.18
  -6  11   1    0.90    0.25
   6 -11   1    0.78    0.15
  -6 -11  -1    1.02    0.16
  -6 -11  -1    1.02    0.16
  -6  11   1    1.04    0.16
  -6 -11  -1    0.59    0.24
   6 -11  -1    1.04    0.17
  -6  11  -1    0.91    0.20
  -6 -11   1    0.81    0.27
  -6  11  -1    0.91    0.20
   6  11   1    0.86    0.21
   6  11   1    0.86    0.21
   6 -11  -1    1.04    0.17
  -6 -11   1    0.81    0.27
  -6 -11   1    0.73    0.25
  -6 -11   1    0.73    0.25
   6 -11   2    0.33    0.12
  -6  11   2    0.31    0.10
  -6 -11  -2    0.03    0.21
  -6  11   2    0.21    0.23
  -6  11   2    0.31    0.10
  -6 -11  -2    0.03    0.21
   6  11  -2    0.35    0.14
   6  11  -2    0.35    0.14
  -6  11   2    0.21    0.23
   6 -11   2    0.33    0.12
   6 -11  -2    0.24    0.09
  -6 -11   2    0.45    0.21
   6  11   2    0.20    0.13
   6  11   2    0.27    0.19
  -6 -11   2    0.36    0.19
  -6 -11   2    0.22    0.16
   6  11   2    0.20    0.13
  -6 -11   2    0.22    0.16
  -6 -11   2    0.45    0.21
   6 -11  -2    0.24    0.09
  -6 -11   2    0.36    0.19
   6  11   2    0.27    0.19
  -6 -11  -3    0.41    0.23
   6 -11   3    0.61    0.17
   6 -11   3    0.15    0.27
  -6  11   3    0.70    0.26
   6 -11   3    0.15    0.27
   6 -11   3    0.61    0.17
  -6  11   3    0.70    0.26
  -6 -11  -3    0.41    0.23
   6  11   3    0.23    0.26
  -6 -11   3    0.84    0.38
   6 -11  -3    0.70    0.14
   6  11   3    0.23    0.26
  -6 -11   3    0.65    0.16
  -6 -11   3    0.84    0.38
   6 -11  -3    0.70    0.14
   6  11   3    0.45    0.25
  -6 -11   3    0.65    0.16
  -6 -11   3    0.28    0.20
   6  11   3    0.89    0.18
   6  11   3    0.45    0.25
   6  11   3    0.89    0.18
  -6 -11   3    0.28    0.20
   6 -11   4    0.45    0.39
  -6  11   4    0.02    0.12
  -6 -11  -4    0.22    0.26
   6 -11   4    0.02    0.22
  -6  11   4    0.18    0.30
  -6 -11  -4    0.22    0.26
  -6  11   4    0.18    0.30
   6 -11   4    0.45    0.39
  -6  11   4    0.02    0.12
   6 -11   4    0.02    0.22
   6  11   4    0.14    0.32
   6  11   4    0.14    0.32
   6  11   4    0.15    0.14
  -6 -11   4   -0.17    0.46
   6  11   4    0.51    0.40
  -6 -11   4    0.32    0.27
   6  11   4    0.15    0.14
   6  11   4    0.51    0.40
  -6 -11   4    0.32    0.27
   6 -11  -4    0.23    0.21
  -6 -11   4   -0.17    0.46
   6 -11  -4    0.23    0.21
   7 -11   0  105.79    8.66
  -7 -11   0   98.24    8.67
  -7 -11   0   98.24    8.67
   7  11   0  114.24    8.65
   7 -11   0  105.79    8.66
  -7 -11   0   96.02    8.64
  -7 -11   0   96.02    8.64
   7  11   0  114.24    8.65
   7 -11   1  102.18    8.22
   7  11  -1  101.07    8.18
  -7 -11  -1   94.41    8.16
   7 -11   1  101.58    8.21
   7 -11   1  102.18    8.22
  -7 -11  -1   94.41    8.16
   7  11  -1  101.07    8.18
   7 -11   1  101.58    8.21
  -7  11   1   90.53    8.23
  -7  11   1   90.53    8.23
  -7 -11   1   88.49    8.23
  -7 -11   1   88.49    8.23
   7  11   1  104.54    8.21
   7  11   1  104.54    8.21
  -7 -11   1  102.12    8.24
  -7 -11   1  102.12    8.24
  -7  11   2   73.47    6.43
   7 -11   2   78.08    6.47
   7 -11   2   78.08    6.47
  -7  11   2   73.47    6.43
   7  11   2   70.74    6.41
  -7 -11   2   81.38    6.54
  -7 -11   2   85.30    6.44
   7  11   2   73.50    6.47
   7  11   2   73.50    6.47
   7  11   2   70.74    6.41
  -7 -11   2   81.38    6.54
  -7 -11   2   85.30    6.44
   7 -11   3   56.57    5.52
   7 -11   3   59.82    5.66
   7 -11   3   56.57    5.52
   7 -11   3   65.78    5.56
   7 -11   3   59.82    5.66
   7 -11   3   65.78    5.56
   7 -11  -3   65.38    5.49
   7  11   3   61.48    5.51
  -7 -11   3   76.22    5.48
   7  11   3   69.66    5.53
  -7 -11   3   76.22    5.48
   7 -11  -3   65.38    5.49
  -7 -11   3   64.87    5.53
   7  11   3   61.48    5.51
  -7 -11   3   64.87    5.53
   7  11   3   69.91    5.57
   7  11   3   69.91    5.57
   7  11   3   69.66    5.53
  -7  11   4   50.23    4.10
   7 -11   4   47.70    4.08
   7 -11   4   47.70    4.08
   7 -11   4   47.08    4.10
   7 -11   4   47.08    4.10
  -7  11   4   53.87    4.03
  -7  11   4   53.87    4.03
  -7  11   4   50.23    4.10
  -7 -11   4   41.39    4.12
   7  11   4   42.89    4.08
   7  11   4   40.87    4.07
   7  11   4   52.49    4.03
   7  11   4   42.89    4.08
   7  11   4   52.49    4.03
   7  11   4   40.87    4.07
  -7 -11   4   41.39    4.12
  -8  11   0   19.49    1.88
  -8 -11   0   21.10    1.87
   8 -11   0   21.98    1.88
  -8 -11   0   21.55    1.92
  -8  11   0   19.49    1.88
   8  11   0   23.35    1.86
  -8 -11   0   21.55    1.92
  -8 -11   0   21.10    1.87
   8  11   0   23.35    1.86
   8 -11   0   21.98    1.88
  -8  11   1    2.98    0.54
   8  11  -1    3.21    0.35
  -8  11   1    2.98    0.54
   8 -11   1    3.06    0.38
  -8 -11  -1    3.07    0.33
  -8 -11  -1    3.07    0.33
   8 -11   1    3.06    0.38
   8  11  -1    3.21    0.35
   8  11   1    3.23    0.40
   8 -11  -1    3.13    0.36
   8 -11  -1    3.13    0.36
  -8  11  -1    4.55    0.45
  -8  11  -1    4.55    0.45
  -8 -11   1    2.77    0.46
  -8 -11   1    2.29    0.47
  -8 -11   1    2.29    0.47
   8  11   1    3.23    0.40
  -8 -11   1    2.77    0.46
   8 -11   2   15.37    1.33
  -8  11   2   12.96    1.27
   8 -11   2   15.37    1.33
  -8  11   2   12.96    1.27
  -8 -11   2   12.29    1.56
  -8 -11   2   12.29    1.56
   8 -11  -2   15.86    1.28
   8  11   2   13.58    1.22
   8  11   2   14.41    1.33
   8  11   2   13.58    1.22
  -8 -11   2   16.68    1.32
   8 -11  -2   15.86    1.28
   8  11   2   14.41    1.33
  -8 -11   2   16.68    1.32
   8 -11   3    2.63    0.42
  -8  11   3    2.20    0.42
   8 -11   3    2.21    0.36
   8 -11   3    2.63    0.42
   8 -11   3    2.21    0.36
  -8  11   3    2.20    0.42
   8  11   3    2.00    0.33
  -8 -11   3    3.01    0.38
  -8 -11   3    3.01    0.38
  -8 -11   3    2.16    0.38
   8  11   3    2.00    0.33
   8  11   3    2.16    0.33
  -8 -11   3    2.16    0.38
   8 -11  -3    1.84    0.31
   8 -11  -3    1.84    0.31
   8  11   3    2.05    0.39
   8  11   3    2.16    0.33
   8  11   3    2.05    0.39
  -8  11   4    9.03    0.93
   8 -11   4    6.83    0.84
  -8  11   4    8.42    0.80
  -8  11   4    8.42    0.80
  -8  11   4    9.03    0.93
   8 -11   4    7.39    0.98
   8 -11   4    7.39    0.98
   8 -11   4    6.83    0.84
   8  11   4    6.81    0.94
   8  11   4    6.81    0.94
  -8 -11   4    8.15    1.00
  -8 -11   4    8.15    1.00
   8  11   4    7.50    0.92
   8  11   4    7.50    0.92
  -9 -11   0   77.29    5.70
  -9 -11   0   77.29    5.70
   9  11   0   67.08    5.63
   9  11   0   67.08    5.63
  -9 -11   0   64.54    5.64
   9 -11   0   59.99    5.65
  -9  11   0   67.94    5.65
  -9 -11   0   64.54    5.64
   9 -11   0   59.99    5.65
  -9  11   0   67.94    5.65
   9 -11   1   42.38    3.74
  -9 -11  -1   44.02    3.67
   9 -11   1   42.38    3.74
   9  11  -1   43.34    3.69
  -9 -11  -1   44.02    3.67
   9  11  -1   43.34    3.69
   9  11   1   44.94    3.73
   9  11   1   44.94    3.73
  -9 -11   1   39.41    3.77
  -9 -11   1   39.41    3.77
   9 -11  -1   48.25    3.73
   9 -11  -1   48.24    3.73
   9 -11   2   55.20    4.73
  -9  11   2   59.30    4.78
  -9  11   2   59.30    4.78
   9 -11   2   55.20    4.73
   9  11   2   57.56    4.73
  -9 -11   2   62.17    4.73
  -9 -11   2   62.17    4.73
   9  11   2   62.32    4.75
  -9 -11   2   46.58    4.81
   9  11   2   62.32    4.75
   9 -11  -2   48.99    4.70
   9 -11  -2   48.99    4.70
   9  11   2   57.56    4.73
  -9 -11   2   46.58    4.81
  -9  11   3   36.24    2.84
   9 -11   3   32.67    2.80
   9 -11   3   32.61    2.77
  -9  11   3   36.24    2.84
   9 -11   3   32.67    2.80
   9 -11   3   32.61    2.77
  -9 -11   3   30.24    2.78
   9 -11  -3   28.70    2.72
   9 -11  -3   28.70    2.72
   9  11   3   32.12    2.79
   9  11   3   33.55    2.76
   9  11   3   31.24    2.75
  -9 -11   3   30.24    2.78
   9  11   3   31.24    2.75
   9  11   3   32.12    2.79
   9  11   3   33.55    2.76
 -10  11   0   -0.22    0.23
  10 -11   0    0.04    0.12
 -10 -11   0    0.22    0.28
  10  11   0   -0.03    0.13
 -10 -11   0    0.22    0.28
 -10 -11   0   -0.09    0.18
 -10 -11   0   -0.09    0.18
 -10  11   0   -0.22    0.23
  10 -11   0    0.04    0.12
  10  11   0   -0.03    0.13
 -10 -11  -1    0.28    0.14
 -10 -11  -1    0.27    0.28
  10 -11   1    0.16    0.15
 -10 -11  -1    0.27    0.28
  10 -11   1    0.16    0.15
 -10 -11  -1    0.28    0.14
  10  11  -1    0.18    0.13
  10  11  -1    0.18    0.13
 -10 -11   1    0.22    0.33
  10  11   1    0.45    0.17
 -10  11  -1    0.56    0.29
  10  11   1    0.45    0.17
 -10  11  -1    0.56    0.29
  10 -11  -1    0.37    0.15
  10 -11  -1    0.37    0.15
 -10 -11   1    0.22    0.33
  10 -11   2    0.20    0.15
  10 -11   2    0.15    0.22
  10 -11   2    0.15    0.22
  10 -11   2    0.20    0.15
 -10  11   2    0.12    0.32
 -10  11   2    0.12    0.32
 -10 -11   2   -0.06    0.26
  10 -11  -2    0.23    0.15
 -10 -11   2    0.22    0.32
  10  11   2    0.04    0.15
 -10 -11   2    0.22    0.26
  10  11   2    0.04    0.15
  10  11   2    0.18    0.22
 -10 -11   2    0.22    0.32
  10 -11  -2    0.23    0.15
  10  11   2    0.18    0.22
 -10 -11   2   -0.06    0.26
 -10 -11   2    0.22    0.26
  10 -11   3    0.42    0.29
 -10  11   3    0.06    0.30
 -10  11   3    0.06    0.30
 -10  11   3    0.22    0.24
 -10  11   3    0.22    0.24
  10 -11   3    0.42    0.29
 -10 -11   3    0.59    0.24
 -10 -11   3   -0.10    0.25
 -10 -11   3    0.08    0.29
  10  11   3    0.05    0.26
  10  11   3    0.21    0.19
 -10 -11   3    0.59    0.24
  10  11   3    0.05    0.26
 -10 -11   3    0.08    0.29
  10  11   3    0.21    0.19
 -10 -11   3   -0.10    0.25
 -11 -11   0    5.01    0.71
 -11 -11   0    5.01    0.71
  11 -11   0    3.71    0.49
  11  11   0    4.23    0.46
  11  11   0    4.23    0.46
  11 -11   0    3.71    0.49
 -11 -11  -1    1.04    0.36
 -11 -11  -1    0.92    0.20
 -11  11   1    1.06    0.35
  11  11  -1    1.10    0.21
  11 -11   1    0.70    0.21
  11  11  -1    1.10    0.21
  11 -11   1    0.70    0.21
 -11 -11  -1    1.04    0.36
 -11  11   1    1.06    0.35
 -11 -11  -1    0.92    0.20
  11  11   1    0.64    0.20
  11  11   1    0.64    0.20
 -11  11  -1    1.89    0.39
  11 -11  -1    0.80    0.21
 -11  11  -1    1.89    0.39
 -11 -11   1    1.48    0.43
 -11 -11   1    1.48    0.43
  11 -11  -1    0.80    0.21
  11 -11   2    2.82    0.44
 -11  11   2    3.85    0.54
 -11  11   2    3.85    0.54
  11 -11   2    2.82    0.44
  11 -11  -2    3.03    0.40
  11  11   2    3.71    0.49
  11  11   2    3.71    0.49
  11  11   2    3.38    0.44
  11  11   2    3.38    0.44
  11 -11  -2    3.03    0.40
 -11  11   3    0.79    0.37
  11 -11   3    1.14    0.36
 -11  11   3    0.79    0.37
  11 -11   3    1.14    0.36
  11  11   3    0.45    0.20
  11  11   3    0.45    0.20
 -11 -11   3    0.83    0.35
 -11 -11   3    0.72    0.32
 -11 -11   3    0.89    0.28
 -11 -11   3    0.72    0.32
 -11 -11   3    0.83    0.35
 -11 -11   3    0.89    0.28
 -12  11   0    1.45    0.36
 -12 -11   0    0.98    0.38
 -12 -11   0    0.79    0.28
  12  11   0    1.10    0.23
 -12 -11   0    0.79    0.28
  12 -11   0    0.92    0.23
  12  11   0    1.10    0.23
 -12 -11   0    0.98    0.38
 -12  11   0    1.45    0.36
  12 -11   0    0.92    0.23
 -12 -11  -1    2.20    0.31
 -12 -11  -1    2.32    0.46
 -12  11   1    3.33    0.48
 -12  11   1    3.33    0.48
 -12 -11  -1    2.20    0.31
 -12 -11  -1    2.32    0.46
 -12 -11   1    2.32    0.50
  12  11   1    2.02    0.33
 -12 -11   1    2.32    0.50
  12  11   1    2.02    0.33
 -12  11   2    0.92    0.41
 -12  11   2    0.92    0.41
 -12 -11   2    1.28    0.48
  12  11   2    0.88    0.28
  12  11   2    0.87    0.25
 -12 -11   2    0.81    0.37
 -12 -11   2    0.90    0.31
 -12 -11   2    0.81    0.37
 -12 -11   2    1.28    0.48
  12  11   2    0.88    0.28
  12  11   2    0.87    0.25
 -12 -11   2    0.90    0.31
 -13 -11   0  125.88   11.92
 -13 -11   0  125.88   11.92
 -13 -11   0  156.07   12.01
  13  11   0  146.43   11.89
  13  11   0  146.43   11.89
 -13 -11   0  156.07   12.01
 -13 -11  -1   60.26    5.35
 -13 -11  -1   60.26    5.35
 -13 -11   1   59.23    5.33
 -13 -11   1   59.23    5.33
  13  11   1   68.45    5.27
  13  11   1   68.45    5.27
 -13 -11   1   60.69    5.37
 -13 -11   1   60.69    5.37
 -13 -11  -2  122.49   11.18
 -13 -11  -2  122.49   11.18
 -13 -11   2  141.83   11.16
 -13 -11   2  141.83   11.16
  13  11   2  134.88   11.13
  13  11   2  129.86   11.15
 -13 -11   2  135.79   11.20
  13  11   2  134.88   11.13
 -13 -11   2  135.79   11.20
  13  11   2  129.86   11.15
 -14  11   0   -0.29    0.41
 -14 -11   0    0.24    0.32
 -14 -11   0    0.24    0.32
 -14 -11   0   -0.03    0.44
 -14 -11   0   -0.03    0.44
 -14  11   0   -0.29    0.41
 -14 -11  -1   -0.08    0.40
 -14  11   1    0.17    0.41
 -14 -11  -1   -0.08    0.40
 -14  11   1    0.17    0.41
  14  11   1   -0.23    0.16
 -14  11  -1   -0.45    0.67
 -14  11  -1   -0.45    0.67
 -14 -11   1    0.48    0.30
 -14 -11   1   -0.02    0.43
 -14 -11   1   -0.02    0.43
 -14 -11   1    0.48    0.30
  14  11   1   -0.23    0.16
   0 -12   0  111.34    9.50
   0 -12   0  117.24    9.53
   0  12   0  107.38    9.52
   0 -12   0  117.24    9.53
   0  12   0  107.38    9.52
   0 -12   0  111.34    9.50
   0 -12   0  121.69    9.52
   0 -12   0  121.69    9.52
   0 -12   1   56.79    5.11
   0  12   1   65.21    5.09
   0  12  -1   51.75    5.08
   0  12   1   65.21    5.09
   0  12   1   64.98    5.12
   0  12   1   64.98    5.12
   0 -12  -1   65.98    5.10
   0  12  -1   51.75    5.08
   0 -12   1   56.79    5.11
   0 -12  -1   65.98    5.10
   0 -12  -2   84.73    7.23
   0  12  -2   77.04    7.14
   0  12   2   96.69    7.22
   0 -12   2   73.47    7.23
   0 -12  -2   84.73    7.23
   0 -12   2   90.68    7.22
   0 -12   2   90.68    7.22
   0  12   2   96.69    7.22
   0 -12   2   73.47    7.23
   0  12  -2   77.04    7.14
   0 -12   2   92.84    7.19
   0 -12   2   92.84    7.19
   0 -12   3   38.33    3.57
   0  12   3   45.93    3.58
   0  12   3   45.93    3.58
   0  12   3   40.27    3.49
   0  12   3   40.27    3.49
   0 -12   3   38.33    3.57
   0  12   4   47.62    4.25
   0  12   4   47.62    4.25
   0  12   4   53.19    4.35
   0 -12   4   49.12    4.39
   0  12   4   53.19    4.35
   0 -12   4   53.18    4.25
   0 -12   4   49.36    4.42
   0 -12   4   53.17    4.25
   0 -12   4   49.36    4.42
   0 -12   4   49.12    4.39
  -1  12   0   26.22    2.05
  -1 -12   0   22.72    2.07
   1 -12   0   25.31    2.06
   1 -12   0   24.78    2.04
   1 -12   0   25.31    2.06
  -1 -12   0   25.86    2.07
  -1 -12   0   25.86    2.07
   1 -12   0   25.62    2.08
   1  12   0   22.90    2.07
   1  12   0   22.90    2.07
  -1 -12   0   22.72    2.07
  -1  12   0   21.03    2.06
   1 -12   0   25.62    2.08
  -1  12   0   21.03    2.06
   1 -12   0   24.78    2.04
  -1 -12   0   24.54    2.07
  -1  12   0   26.22    2.05
  -1 -12   0   24.54    2.07
  -1 -12  -1   18.23    1.53
  -1  12   1   16.02    1.55
  -1  12   1   16.02    1.55
   1 -12   1   17.84    1.56
   1  12  -1   16.86    1.52
   1 -12   1   16.36    1.58
  -1  12   1   17.90    1.52
  -1 -12  -1   18.23    1.53
   1 -12   1   17.84    1.56
   1  12  -1   16.86    1.52
   1 -12   1   17.86    1.55
   1 -12   1   16.36    1.58
  -1  12   1   17.90    1.52
   1 -12   1   17.86    1.55
  -1  12  -1   18.92    1.52
  -1  12  -1   18.92    1.52
  -1 -12   1   18.82    1.55
   1  12   1   19.49    1.53
  -1 -12   1   18.82    1.55
   1  12   1   19.49    1.53
  -1  12   2   20.84    1.67
  -1 -12  -2   16.02    1.74
   1 -12   2   18.17    1.72
   1 -12   2   22.35    1.70
   1 -12   2   19.59    1.73
   1 -12   2   22.35    1.70
   1  12  -2   16.44    1.66
  -1  12   2   20.84    1.67
  -1 -12  -2   16.02    1.74
   1  12  -2   16.44    1.66
  -1  12   2   22.43    1.74
   1 -12   2   19.59    1.73
  -1  12   2   22.43    1.74
   1 -12   2   18.17    1.72
  -1 -12   2   18.41    1.72
   1  12   2   20.98    1.74
  -1 -12   2   21.78    1.72
  -1 -12   2   17.44    1.72
   1  12   2   22.39    1.69
  -1 -12   2   21.78    1.72
   1 -12  -2   18.68    1.73
   1  12   2   20.98    1.74
   1  12   2   22.39    1.69
   1 -12  -2   18.68    1.73
  -1 -12   2   18.41    1.72
  -1 -12   2   17.44    1.72
   1 -12   3   13.07    1.21
  -1  12   3   12.31    1.17
   1 -12   3   13.07    1.21
  -1  12   3   12.31    1.17
   1 -12  -3   10.54    1.09
  -1 -12   3   13.30    1.23
   1  12   3   12.97    1.08
   1  12   3   12.32    1.18
   1 -12  -3   10.54    1.09
   1  12   3   12.97    1.08
   1  12   3   12.32    1.18
  -1 -12   3   13.30    1.23
   1 -12   4   11.35    1.07
  -1  12   4   10.61    1.21
   1 -12   4   11.35    1.07
  -1  12   4   11.25    1.07
   1 -12   4   12.17    1.19
   1 -12   4   12.17    1.19
  -1  12   4   11.25    1.07
  -1  12   4   10.61    1.21
   1 -12   4   11.51    1.30
   1 -12   4   11.51    1.30
   1 -12  -4   10.22    1.06
  -1 -12   4   10.73    1.29
   1  12   4   13.71    1.09
   1  12   4   12.23    1.23
  -1 -12   4   10.73    1.29
   1  12   4   13.70    1.09
   1 -12  -4   10.22    1.06
  -1 -12   4   13.51    1.07
  -1 -12   4   13.51    1.07
  -1 -12   4   14.22    1.23
  -1 -12   4   14.22    1.23
   1  12   4   12.23    1.23
  -2 -12   0    0.87    0.16
   2  12   0    0.58    0.14
  -2  12   0    0.57    0.10
  -2 -12   0    0.22    0.16
   2 -12   0    0.66    0.11
   2  12   0    0.58    0.14
  -2  12   0    0.52    0.14
   2 -12   0    0.48    0.13
   2 -12   0    0.82    0.18
   2 -12   0    0.48    0.13
  -2 -12   0    0.75    0.25
  -2 -12   0    0.67    0.13
  -2 -12   0    0.22    0.16
  -2  12   0    0.57    0.10
  -2 -12   0    0.67    0.13
   2 -12   0    0.82    0.18
   2 -12   0    0.66    0.11
  -2 -12   0    0.75    0.25
  -2  12   0    0.52    0.14
  -2 -12   0    0.87    0.16
  -2  12   1    8.63    0.77
   2 -12   1    8.98    0.77
  -2  12   1    8.63    0.77
   2 -12   1    9.37    0.76
   2  12  -1    7.17    0.73
   2 -12   1    8.98    0.77
   2 -12   1    9.37    0.76
  -2 -12  -1    8.04    0.73
  -2 -12  -1    8.04    0.73
   2  12  -1    7.17    0.73
  -2 -12   1    7.59    0.71
  -2  12  -1    8.04    0.72
  -2 -12   1    7.58    0.76
   2 -12  -1    7.67    0.81
  -2 -12   1    7.59    0.71
   2  12   1    9.41    0.75
  -2 -12   1    7.58    0.76
   2  12   1    9.41    0.75
  -2  12  -1    8.04    0.72
   2 -12  -1    7.67    0.81
   2 -12   2    0.27    0.20
  -2 -12  -2    0.27    0.19
   2  12  -2    0.36    0.11
  -2  12   2    0.27    0.20
  -2 -12  -2    0.27    0.19
   2 -12   2    0.32    0.15
   2 -12   2    0.48    0.12
   2  12  -2    0.36    0.11
  -2  12   2    0.32    0.10
  -2  12   2    0.27    0.20
  -2  12   2    0.32    0.10
   2 -12   2    0.32    0.15
   2 -12   2    0.27    0.20
   2 -12   2    0.48    0.12
  -2 -12   2    0.25    0.14
   2 -12  -2    0.44    0.15
   2  12   2    0.43    0.12
  -2  12  -2    0.40    0.11
   2  12   2    0.43    0.12
  -2 -12   2    0.41    0.16
  -2 -12   2    0.37    0.18
  -2 -12   2    0.41    0.16
   2  12   2    0.50    0.20
  -2  12  -2    0.40    0.11
   2 -12  -2    0.44    0.15
  -2 -12   2    0.25    0.14
  -2 -12   2    0.37    0.18
   2  12   2    0.50    0.20
  -2  12   3    4.11    0.57
  -2  12   3    4.11    0.57
   2 -12   3    4.31    0.56
   2 -12   3    4.31    0.56
  -2  12   3    4.63    0.49
  -2  12   3    4.63    0.49
   2 -12  -3    3.80    0.43
  -2 -12   3    4.92    0.60
  -2 -12   3    4.92    0.60
   2  12   3    3.73    0.58
   2  12   3    3.73    0.58
   2 -12  -3    3.80    0.43
   2 -12   4    0.21    0.13
  -2  12   4    0.07    0.11
   2 -12   4   -0.18    0.38
  -2  12   4    0.09    0.29
   2 -12   4    0.21    0.13
  -2 -12  -4   -0.10    0.17
  -2 -12  -4   -0.10    0.17
   2 -12   4   -0.18    0.38
   2 -12   4    0.00    0.22
  -2  12   4    0.07    0.11
   2 -12   4    0.00    0.22
  -2  12   4    0.09    0.29
  -2 -12   4    0.06    0.21
   2  12   4    0.26    0.13
  -2 -12   4    0.06    0.21
   2  12   4   -0.01    0.27
  -2 -12   4    0.28    0.44
   2  12   4    0.26    0.13
   2 -12  -4    0.00    0.10
   2 -12  -4    0.00    0.10
   2  12   4   -0.01    0.27
  -2 -12   4    0.28    0.44
  -3  12   0    2.72    0.23
  -3  12   0    2.72    0.23
   3 -12   0    2.37    0.29
   3 -12   0    2.19    0.30
   3  12   0    2.57    0.30
   3 -12   0    2.37    0.29
  -3  12   0    2.13    0.30
  -3 -12   0    2.24    0.33
  -3  12   0    2.13    0.30
  -3 -12   0    2.52    0.28
  -3 -12   0    2.24    0.33
   3  12   0    2.57    0.30
  -3 -12   0    2.52    0.28
  -3 -12   0    2.19    0.36
   3 -12   0    2.19    0.30
  -3 -12   0    2.19    0.36
  -3 -12  -1    2.30    0.23
  -3  12   1    1.89    0.29
  -3  12   1    1.89    0.29
   3  12  -1    1.85    0.25
  -3 -12  -1    1.28    0.31
   3 -12   1    2.45    0.26
   3 -12   1    1.54    0.25
  -3 -12  -1    1.28    0.31
   3  12  -1    1.85    0.25
   3 -12   1    1.54    0.25
   3 -12   1    1.73    0.28
  -3 -12  -1    2.30    0.23
   3 -12   1    1.73    0.28
   3 -12   1    2.45    0.26
   3  12   1    2.57    0.31
  -3 -12   1    2.23    0.29
  -3 -12   1    1.73    0.25
  -3  12  -1    2.04    0.19
   3 -12  -1    2.11    0.27
  -3 -12   1    2.23    0.29
  -3  12  -1    2.04    0.19
  -3  12  -1    1.58    0.19
  -3 -12   1    2.12    0.26
   3  12   1    2.24    0.26
  -3 -12   1    1.73    0.25
  -3 -12   1    2.12    0.26
   3  12   1    2.24    0.26
  -3 -12   1    1.74    0.30
  -3  12  -1    1.58    0.19
   3 -12  -1    2.11    0.27
  -3 -12   1    1.74    0.30
  -3  12  -1    1.85    0.24
  -3  12  -1    1.85    0.24
   3  12   1    2.57    0.31
  -3  12   2    1.91    0.32
  -3  12   2    1.91    0.32
  -3  12   2    2.21    0.22
   3 -12   2    2.16    0.31
   3  12  -2    1.44    0.23
   3 -12   2    2.14    0.24
   3 -12   2    2.14    0.24
  -3  12   2    2.21    0.22
   3  12  -2    1.44    0.23
   3 -12   2    2.16    0.31
  -3 -12   2    1.95    0.31
  -3 -12   2    1.35    0.28
   3 -12  -2    2.06    0.26
  -3  12  -2    1.70    0.22
  -3 -12   2    1.35    0.28
   3  12   2    1.93    0.25
   3  12   2    1.41    0.27
  -3 -12   2    1.84    0.27
   3  12   2    1.41    0.27
  -3 -12   2    1.95    0.31
  -3  12  -2    1.70    0.22
   3  12   2    1.93    0.25
   3 -12  -2    2.06    0.26
  -3 -12   2    1.84    0.27
  -3  12   3    1.68    0.34
  -3  12   3    1.68    0.34
  -3 -12  -3    0.87    0.26
  -3 -12  -3    0.87    0.26
   3 -12   3    1.38    0.25
   3 -12   3    1.47    0.34
   3 -12   3    1.38    0.25
   3 -12   3    1.47    0.34
  -3 -12   3    1.75    0.42
   3  12   3    1.32    0.30
   3  12   3    1.32    0.30
   3 -12  -3    1.18    0.20
  -3 -12   3    1.75    0.42
   3 -12  -3    1.18    0.20
  -3 -12  -4    0.86    0.25
  -3  12   4    0.80    0.33
   3 -12   4    1.02    0.22
   3 -12   4    1.42    0.32
  -3  12   4    1.68    0.25
   3 -12   4    1.02    0.22
   3 -12   4    1.42    0.32
  -3 -12  -4    0.86    0.25
  -3  12   4    1.68    0.25
   3 -12   4    1.26    0.47
  -3  12   4    0.80    0.33
   3 -12   4    1.26    0.47
  -3 -12   4    1.51    0.52
   3  12   4    0.94    0.35
   3  12   4    1.31    0.22
   3  12   4    0.94    0.35
   3  12   4    1.31    0.22
   3 -12  -4    1.24    0.20
  -3 -12   4    1.07    0.31
  -3 -12   4    1.07    0.31
   3 -12  -4    1.24    0.20
  -3 -12   4    1.51    0.52
  -4  12   0    0.08    0.14
   4 -12   0    0.08    0.09
  -4 -12   0    0.09    0.09
   4  12   0    0.13    0.12
   4 -12   0    0.08    0.09
   4  12   0    0.05    0.11
   4  12   0    0.13    0.12
  -4 -12   0    0.06    0.15
   4  12   0    0.05    0.11
  -4 -12   0    0.09    0.09
  -4  12   0    0.08    0.14
   4 -12   0    0.15    0.09
  -4 -12   0    0.06    0.15
   4 -12   0    0.15    0.09
   4 -12   1    9.51    0.91
   4 -12   1   11.24    0.92
  -4  12   1   10.01    0.87
  -4  12   1    9.55    0.95
   4 -12   1    9.51    0.91
   4 -12   1   10.61    0.94
  -4  12   1    9.55    0.95
   4  12  -1   10.25    0.90
   4 -12   1   11.24    0.92
  -4  12   1   10.01    0.87
   4  12  -1   10.25    0.90
   4 -12   1   10.61    0.94
  -4 -12   1    9.67    0.92
   4  12   1    8.72    0.94
  -4  12  -1    9.99    0.89
   4  12   1   11.88    0.95
   4  12   1    8.72    0.94
   4  12   1   11.88    0.95
  -4 -12   1    9.67    0.92
  -4 -12   1    9.89    0.94
  -4  12  -1    9.99    0.89
  -4 -12   1    9.89    0.94
   4  12  -2    0.15    0.11
  -4  12   2    0.36    0.22
  -4  12   2    0.20    0.09
   4 -12   2    0.38    0.20
  -4 -12  -2    0.16    0.17
  -4  12   2    0.20    0.09
   4 -12   2    0.38    0.20
   4 -12   2    0.29    0.10
   4  12  -2    0.15    0.11
  -4  12   2    0.36    0.22
   4 -12   2    0.29    0.10
  -4 -12  -2    0.16    0.17
   4  12   2    0.31    0.18
   4  12   2    0.07    0.10
  -4 -12   2    0.18    0.14
  -4 -12   2    0.07    0.14
  -4  12  -2    0.02    0.09
  -4 -12   2    0.07    0.14
  -4 -12   2    0.04    0.17
  -4 -12   2    0.04    0.17
  -4  12  -2    0.02    0.09
   4  12   2    0.31    0.18
   4 -12  -2    0.41    0.12
  -4 -12   2    0.18    0.14
   4 -12  -2    0.41    0.12
   4  12   2    0.07    0.10
   4 -12   3    7.38    0.66
  -4  12   3    7.01    0.78
  -4  12   3    7.01    0.78
   4 -12   3    7.38    0.66
   4 -12   3    6.91    0.78
   4 -12   3    6.91    0.78
  -4 -12   3    6.42    0.87
   4  12   3    6.24    0.74
   4  12   3    6.24    0.74
   4 -12  -3    6.63    0.64
  -4 -12   3    7.30    0.85
  -4 -12   3    6.42    0.87
   4  12   3    6.86    0.67
  -4 -12   3    7.30    0.85
   4  12   3    6.86    0.67
   4 -12  -3    6.63    0.64
  -4  12   4    0.54    0.32
   4 -12   4   -0.15    0.38
  -4 -12  -4    0.05    0.23
  -4  12   4    0.20    0.14
   4 -12   4    0.48    0.16
  -4  12   4    0.54    0.32
   4 -12   4    0.47    0.24
  -4  12   4    0.20    0.14
   4 -12   4    0.47    0.24
   4 -12   4    0.48    0.16
  -4 -12  -4    0.05    0.23
   4 -12   4   -0.15    0.38
  -4 -12   4   -0.06    0.47
   4 -12  -4    0.13    0.13
  -4 -12   4    0.35    0.16
  -4 -12   4   -0.06    0.47
  -4 -12   4    0.24    0.24
   4  12   4    0.23    0.31
   4  12   4    0.57    0.17
  -4 -12   4    0.35    0.16
   4 -12  -4    0.13    0.13
   4  12   4    0.23    0.31
  -4 -12   4    0.24    0.24
   4  12   4    0.57    0.17
   5  12   0   23.25    2.02
  -5 -12   0   23.17    2.04
   5 -12   0   25.95    2.03
  -5  12   0   20.20    2.01
  -5  12   0   20.20    2.01
   5  12   0   23.25    2.02
  -5 -12   0   24.32    2.01
   5 -12   0   25.95    2.03
  -5 -12   0   23.17    2.04
  -5 -12   0   24.32    2.01
  -5 -12  -1    0.04    0.16
   5 -12   1    0.34    0.09
   5 -12   1    0.07    0.11
  -5  12   1    1.19    0.25
   5 -12   1    0.34    0.09
   5  12  -1    0.15    0.11
  -5 -12  -1    0.20    0.09
  -5  12   1    1.19    0.25
   5  12  -1    0.15    0.11
   5 -12   1    0.07    0.11
  -5 -12  -1    0.20    0.09
  -5 -12  -1    0.04    0.16
   5  12   1    0.21    0.13
  -5 -12   1    0.49    0.15
  -5 -12   1    0.16    0.17
   5  12   1    0.21    0.13
  -5 -12   1    0.49    0.21
   5  12   1   -0.05    0.16
  -5 -12   1    0.16    0.17
   5  12   1   -0.05    0.16
  -5 -12   1    0.49    0.15
  -5 -12   1    0.49    0.21
   5 -12   2   18.96    1.84
   5 -12   2   18.96    1.84
  -5  12   2   20.70    1.72
   5 -12   2   18.92    1.77
   5 -12   2   21.08    1.76
   5  12  -2   18.25    1.72
  -5  12   2   23.75    1.83
   5 -12   2   18.92    1.77
   5  12  -2   18.25    1.72
   5 -12   2   21.08    1.76
  -5  12   2   20.70    1.72
  -5  12   2   23.75    1.83
   5  12   2   22.20    1.79
  -5 -12   2   19.43    1.70
  -5 -12   2   19.43    1.70
  -5 -12   2   17.00    1.78
  -5 -12   2   17.00    1.78
   5 -12  -2   22.98    1.75
  -5 -12   2   20.27    1.82
   5  12   2   22.20    1.79
   5 -12  -2   22.98    1.75
   5  12   2   18.60    1.78
   5  12   2   18.60    1.78
  -5 -12   2   20.27    1.82
   5 -12   3    0.00    0.27
  -5 -12  -3    0.08    0.19
  -5  12   3   -0.22    0.24
  -5 -12  -3    0.08    0.19
  -5  12   3   -0.22    0.24
  -5  12   3    0.07    0.11
   5 -12   3    0.00    0.27
   5 -12   3    0.14    0.13
   5 -12   3    0.14    0.13
  -5  12   3    0.07    0.11
   5 -12  -3    0.12    0.09
  -5 -12   3    0.06    0.18
   5  12   3   -0.03    0.24
   5  12   3    0.11    0.11
  -5 -12   3    0.77    0.36
   5 -12  -3    0.12    0.09
   5  12   3   -0.03    0.24
   5  12   3    0.11    0.11
  -5 -12   3    0.77    0.36
  -5 -12   3    0.06    0.18
  -5  12   4   13.03    1.08
  -5  12   4   13.16    1.23
   5 -12   4   11.86    1.18
  -5  12   4   13.03    1.08
   5 -12   4   11.86    1.18
   5 -12   4   11.14    1.26
  -5  12   4   13.16    1.23
   5 -12   4   11.14    1.26
   5  12   4   11.39    1.09
  -5 -12   4   13.04    1.25
  -5 -12   4   13.04    1.25
  -5 -12   4   10.01    1.35
   5  12   4   11.39    1.09
   5  12   4   10.44    1.22
  -5 -12   4   10.01    1.35
   5  12   4   10.44    1.22
   6 -12   0    3.59    0.42
  -6 -12   0    4.42    0.44
  -6 -12   0    4.42    0.44
  -6 -12   0    3.59    0.52
   6 -12   0    3.59    0.42
   6  12   0    5.12    0.46
  -6  12   0    4.38    0.52
  -6 -12   0    3.59    0.52
  -6  12   0    4.38    0.52
   6  12   0    5.12    0.46
   6  12  -1   22.92    2.07
   6 -12   1   26.83    2.11
   6  12  -1   22.92    2.07
  -6  12   1   23.50    2.04
   6 -12   1   23.90    2.09
   6 -12   1   23.90    2.09
   6 -12   1   26.83    2.11
  -6 -12  -1   22.66    2.05
  -6 -12  -1   22.66    2.05
  -6  12   1   23.50    2.04
  -6 -12   1   24.26    2.12
   6  12   1   25.70    2.11
   6 -12  -1   24.90    2.09
  -6 -12   1   21.54    2.13
  -6  12  -1   26.84    2.09
   6  12   1   25.70    2.11
  -6 -12   1   21.54    2.13
  -6  12  -1   26.84    2.09
   6 -12  -1   24.90    2.09
  -6 -12   1   24.26    2.12
   6  12  -2    4.26    0.46
   6  12  -2    4.26    0.46
   6 -12   2    4.57    0.48
   6 -12   2    4.57    0.48
  -6  12   2    4.81    0.64
  -6  12   2    4.49    0.44
  -6  12   2    4.49    0.44
   6 -12   2    4.65    0.55
  -6  12   2    4.81    0.64
   6 -12   2    4.65    0.55
   6 -12  -2    4.78    0.46
   6 -12  -2    4.78    0.46
   6  12   2    3.92    0.55
   6  12   2    3.92    0.55
   6 -12   3   14.76    1.45
   6 -12   3   16.81    1.50
   6 -12   3   14.76    1.45
   6 -12   3   16.81    1.50
   6  12   3   18.90    1.54
   6 -12  -3   15.81    1.42
  -6 -12   3   18.37    1.56
   6  12   3   18.90    1.54
  -6 -12   3   14.56    1.58
  -6 -12   3   18.37    1.56
   6 -12  -3   15.81    1.42
  -6 -12   3   14.56    1.58
   6 -12   4    3.85    0.57
   6 -12   4    3.85    0.57
  -6  12   4    4.56    0.46
  -6  12   4    3.91    0.59
  -6  12   4    3.91    0.59
   6 -12   4    3.37    0.59
   6 -12   4    3.37    0.59
  -6  12   4    4.56    0.46
  -6 -12   4    5.55    0.70
   6  12   4    3.54    0.59
  -6 -12   4    2.71    0.68
   6  12   4    3.38    0.45
  -6 -12   4    2.71    0.68
   6  12   4    4.41    0.63
   6  12   4    3.38    0.45
   6  12   4    3.54    0.59
  -6 -12   4    5.55    0.70
   6  12   4    4.41    0.63
  -7  12   0   42.64    4.27
  -7  12   0   42.64    4.27
   7 -12   0   52.55    4.28
   7  12   0   58.22    4.27
  -7 -12   0   49.27    4.26
  -7 -12   0   49.84    4.30
  -7 -12   0   49.84    4.30
  -7 -12   0   49.27    4.26
   7  12   0   58.22    4.27
   7 -12   0   52.55    4.28
   7 -12   1   21.57    1.84
  -7 -12  -1   21.42    1.79
   7  12  -1   18.89    1.81
  -7 -12  -1   21.42    1.79
   7  12  -1   18.89    1.81
   7 -12   1   21.57    1.84
  -7  12  -1   22.69    1.84
  -7 -12   1   19.90    1.89
  -7  12  -1   22.69    1.84
  -7 -12   1   19.90    1.89
   7  12   1   21.92    1.85
   7  12   1   21.92    1.85
   7  12  -2   43.79    3.31
  -7  12   2   39.86    3.30
   7 -12   2   40.34    3.35
   7  12  -2   43.79    3.31
  -7  12   2   39.86    3.30
   7 -12   2   40.34    3.35
   7  12   2   36.81    3.35
   7  12   2   36.81    3.35
  -7 -12   2   35.18    3.40
   7 -12  -2   42.80    3.32
   7 -12  -2   42.80    3.32
   7  12   2   37.07    3.27
   7  12   2   37.07    3.27
   7  12   2   36.52    3.33
   7  12   2   36.52    3.33
  -7 -12   2   35.18    3.40
   7 -12   3   12.58    1.34
   7 -12   3   16.29    1.43
  -7  12   3   16.53    1.45
   7 -12   3   12.58    1.34
   7 -12   3   16.29    1.43
  -7  12   3   16.53    1.45
  -7 -12   3   12.70    1.48
   7 -12  -3   14.31    1.31
   7  12   3   13.25    1.36
   7  12   3   17.29    1.36
  -7 -12   3   12.70    1.48
   7  12   3   16.25    1.43
  -7 -12   3   15.86    1.37
  -7 -12   3   15.86    1.37
   7 -12  -3   14.31    1.31
   7  12   3   13.25    1.36
   7  12   3   16.25    1.43
   7  12   3   17.29    1.36
  -7  12   4   26.43    2.24
   7 -12   4   24.20    2.20
  -7  12   4   26.43    2.24
   7 -12   4   24.64    2.27
   7 -12   4   24.20    2.20
   7 -12   4   24.64    2.27
  -7  12   4   27.73    2.15
  -7  12   4   27.73    2.15
   7  12   4   19.40    2.21
   7  12   4   26.33    2.15
   7  12   4   23.09    2.22
   7  12   4   23.09    2.22
   7  12   4   19.40    2.21
  -7 -12   4   21.38    2.31
   7  12   4   26.33    2.15
  -7 -12   4   21.38    2.31
  -8  12   0    0.31    0.27
  -8 -12   0    0.08    0.29
  -8  12   0    0.31    0.27
   8 -12   0    0.42    0.14
  -8 -12   0    0.61    0.19
   8  12   0    0.71    0.17
   8 -12   0    0.42    0.14
  -8 -12   0    0.08    0.29
  -8 -12   0    0.61    0.19
   8  12   0    0.71    0.17
  -8 -12   0    0.38    0.26
  -8 -12   0    0.38    0.26
   8 -12   1    0.06    0.12
  -8 -12  -1    0.09    0.11
  -8  12   1    0.37    0.31
  -8  12   1    0.37    0.31
  -8 -12  -1   -0.08    0.23
  -8 -12  -1   -0.08    0.23
   8  12  -1    0.02    0.10
   8 -12   1    0.06    0.12
   8  12  -1    0.02    0.10
  -8 -12  -1    0.09    0.11
   8 -12  -1    0.09    0.10
  -8 -12   1   -0.06    0.30
  -8 -12   1   -0.06    0.30
   8  12   1   -0.07    0.14
  -8  12  -1   -0.27    0.22
  -8  12  -1   -0.27    0.22
  -8 -12   1   -0.12    0.23
   8  12   1   -0.07    0.14
  -8 -12   1   -0.12    0.23
   8 -12  -1    0.09    0.10
   8 -12   2    0.31    0.19
  -8 -12  -2    0.34    0.28
  -8  12   2    0.48    0.30
  -8 -12  -2    0.34    0.28
  -8  12   2    0.48    0.30
   8 -12   2    0.31    0.19
  -8  12   2    0.48    0.17
   8 -12   2    0.34    0.23
   8 -12   2    0.34    0.23
  -8  12   2    0.48    0.17
  -8 -12   2    0.43    0.27
   8  12   2    0.34    0.22
   8  12   2    0.34    0.22
   8 -12  -2    0.39    0.13
  -8 -12   2    0.24    0.22
   8  12   2    0.26    0.15
   8 -12  -2    0.39    0.13
  -8 -12   2    0.24    0.22
  -8 -12   2    0.43    0.27
  -8 -12   2    0.32    0.23
   8  12   2    0.26    0.15
  -8 -12   2    0.32    0.23
   8 -12   3    0.18    0.14
  -8  12   3   -0.37    0.29
  -8  12   3   -0.08    0.17
   8 -12   3    0.00    0.16
  -8 -12  -3   -0.32    0.27
  -8  12   3   -0.08    0.17
  -8  12   3   -0.37    0.29
   8 -12   3    0.51    0.31
   8 -12   3    0.51    0.31
   8 -12   3    0.00    0.16
  -8 -12  -3   -0.32    0.27
   8 -12   3    0.18    0.14
  -8 -12   3    0.00    0.19
   8  12   3   -0.03    0.13
   8 -12  -3   -0.18    0.12
   8  12   3   -0.03    0.13
   8  12   3    0.18    0.26
   8 -12  -3   -0.18    0.12
  -8 -12   3    0.09    0.21
  -8 -12   3    0.00    0.19
  -8 -12   3    0.09    0.21
  -8 -12   3   -0.10    0.24
   8  12   3    0.40    0.25
   8  12   3    0.18    0.26
   8  12   3    0.40    0.25
  -8 -12   3   -0.10    0.24
  -9 -12   0    7.57    0.86
   9 -12   0    7.51    0.75
  -9  12   0    8.15    0.83
   9  12   0    8.38    0.74
   9  12   0    8.38    0.74
  -9 -12   0    7.57    0.86
  -9 -12   0    6.96    0.76
  -9  12   0    8.15    0.83
  -9 -12   0    6.96    0.76
   9 -12   0    7.51    0.75
   9  12  -1   10.47    0.92
   9 -12   1    8.60    0.94
  -9 -12  -1    9.00    0.89
  -9  12   1    9.41    1.06
   9 -12   1    8.60    0.94
  -9 -12  -1    9.00    0.89
  -9  12   1    9.41    1.06
   9  12  -1   10.47    0.92
   9 -12  -1   10.72    0.94
   9  12   1   11.25    0.97
  -9 -12   1   13.14    1.10
  -9 -12   1   13.14    1.10
   9  12   1   11.25    0.97
   9 -12  -1   10.72    0.94
   9 -12   2    6.04    0.69
   9 -12   2    5.66    0.61
  -9  12   2    5.03    0.59
   9 -12   2    6.04    0.69
   9 -12   2    5.66    0.61
  -9  12   2    7.26    0.81
  -9  12   2    5.03    0.59
  -9  12   2    7.26    0.81
   9  12   2    5.19    0.61
   9 -12  -2    5.64    0.58
  -9 -12   2    7.02    0.68
   9  12   2    5.58    0.66
  -9 -12   2    7.02    0.68
   9  12   2    5.19    0.61
  -9 -12   2    5.73    0.80
   9  12   2    5.58    0.66
   9 -12  -2    5.64    0.58
  -9 -12   2    5.73    0.80
  -9  12   3    7.05    0.88
  -9  12   3    5.32    0.70
   9 -12   3    5.97    0.72
  -9  12   3    7.05    0.88
  -9  12   3    5.32    0.70
   9 -12   3    7.51    0.82
   9 -12   3    5.97    0.72
   9 -12   3    7.51    0.82
   9  12   3    7.76    0.71
  -9 -12   3    7.04    0.77
   9  12   3    7.35    0.81
  -9 -12   3    7.04    0.77
   9  12   3    7.35    0.81
   9  12   3    7.76    0.71
  10  12   0    5.35    0.61
 -10  12   0    6.50    0.75
 -10 -12   0    5.89    0.79
  10  12   0    5.35    0.61
  10 -12   0    6.72    0.65
 -10 -12   0    5.89    0.79
  10 -12   0    6.72    0.65
 -10  12   0    6.50    0.75
 -10  12   1    4.44    0.60
 -10 -12  -1    4.09    0.43
 -10 -12  -1    3.99    0.58
 -10 -12  -1    4.09    0.43
 -10 -12  -1    3.99    0.58
  10 -12   1    3.40    0.48
 -10  12   1    4.44    0.60
  10 -12   1    3.40    0.48
  10 -12  -1    3.88    0.46
  10  12   1    4.98    0.50
  10 -12  -1    3.88    0.46
  10  12   1    4.98    0.50
  10 -12   2    6.11    0.65
  10 -12   2    4.97    0.59
 -10  12   2    6.20    0.82
  10 -12   2    6.11    0.65
 -10  12   2    6.20    0.82
  10 -12   2    4.97    0.59
  10  12   2    5.19    0.64
  10  12   2    5.19    0.64
 -10 -12   2    6.27    0.69
 -10 -12   2    4.92    0.68
  10 -12  -2    4.83    0.56
  10 -12  -2    4.83    0.56
  10  12   2    5.96    0.61
 -10 -12   2    4.93    0.80
 -10 -12   2    4.92    0.68
 -10 -12   2    4.93    0.80
 -10 -12   2    6.27    0.69
  10  12   2    5.96    0.61
  10 -12   3    4.01    0.55
 -10  12   3    3.19    0.48
  10 -12   3    4.01    0.55
 -10  12   3    4.85    0.63
 -10  12   3    4.85    0.63
 -10 -12  -3    2.35    0.61
 -10 -12  -3    2.35    0.61
 -10  12   3    3.19    0.48
 -10 -12   3    3.43    0.54
  10  12   3    3.69    0.48
  10 -12  -3    3.56    0.44
  10 -12  -3    3.56    0.44
  10  12   3    3.69    0.48
 -10 -12   3    3.18    0.60
 -10 -12   3    3.18    0.60
 -10 -12   3    4.57    0.54
  10  12   3    3.73    0.53
 -10 -12   3    3.43    0.54
 -10 -12   3    4.57    0.54
  10  12   3    3.73    0.53
 -11  12   0    9.58    0.99
  11  12   0    6.50    0.69
 -11 -12   0    6.65    0.74
 -11 -12   0    6.65    0.74
 -11  12   0    9.58    0.99
  11  12   0    6.50    0.69
 -11 -12   0    8.16    0.92
  11 -12   0    6.95    0.73
 -11 -12   0    8.16    0.92
  11 -12   0    6.95    0.73
 -11 -12  -1    7.18    0.86
  11  12  -1    8.02    0.70
 -11 -12  -1    7.18    0.86
  11 -12   1    5.87    0.73
 -11  12   1    8.80    0.92
 -11 -12  -1    7.40    0.68
 -11  12   1    8.80    0.92
  11 -12   1    5.87    0.73
  11  12  -1    8.02    0.70
 -11 -12  -1    7.40    0.68
 -11 -12   1    5.49    0.90
 -11 -12   1    5.49    0.90
  11 -12  -1    7.09    0.71
 -11 -12   1    7.94    0.95
  11  12   1    6.86    0.72
 -11 -12   1    7.94    0.95
  11  12   1    6.86    0.72
  11 -12  -1    7.09    0.71
 -11  12   2    6.58    0.93
 -11  12   2    6.58    0.93
 -11 -12   2    6.67    0.93
  11  12   2    6.71    0.72
  11 -12  -2    5.21    0.66
  11  12   2    6.71    0.72
 -11 -12   2    8.67    0.83
  11 -12  -2    5.21    0.66
  11  12   2    6.44    0.70
 -11 -12   2    7.58    0.81
  11  12   2    6.44    0.70
 -11 -12   2    7.58    0.81
 -11 -12   2    6.67    0.93
 -11 -12   2    8.67    0.83
  12 -12   0    5.42    0.59
 -12 -12   0    3.86    0.62
  12  12   0    4.98    0.55
 -12 -12   0    4.91    0.72
 -12  12   0    6.52    0.82
 -12 -12   0    4.91    0.72
  12  12   0    4.98    0.55
  12 -12   0    5.42    0.59
 -12  12   0    6.52    0.82
 -12 -12   0    3.86    0.62
 -12 -12  -1    0.63    0.40
 -12  12   1    1.27    0.44
 -12  12   1    1.27    0.44
 -12 -12  -1    0.63    0.40
  12 -12  -1    1.33    0.26
 -12 -12   1    0.86    0.44
 -12  12  -1    3.09    0.49
  12  12   1    1.12    0.26
 -12 -12   1    0.94    0.35
 -12  12  -1    3.09    0.49
 -12 -12   1    1.36    0.41
 -12 -12   1    0.94    0.35
 -12 -12   1    0.86    0.44
 -12 -12   1    1.36    0.41
  12 -12  -1    1.33    0.26
  12  12   1    1.12    0.26
 -12  12   2    7.16    0.92
 -12  12   2    7.16    0.92
 -12 -12   2    5.59    0.73
  12  12   2    4.24    0.61
 -12 -12   2    4.36    0.86
 -12 -12   2    4.36    0.86
  12  12   2    4.76    0.59
  12  12   2    4.76    0.59
 -12 -12   2    5.33    0.72
 -12 -12   2    5.59    0.73
 -12 -12   2    5.33    0.72
  12  12   2    4.24    0.61
 -13 -12   0   14.33    1.49
  13  12   0   14.36    1.28
 -13 -12   0   13.46    1.35
 -13 -12   0   13.46    1.35
 -13 -12   0   14.33    1.49
  13  12   0   14.36    1.28
 -13  12   1    2.79    0.51
 -13 -12  -1    1.89    0.48
 -13  12   1    2.79    0.51
 -13 -12  -1    1.89    0.48
 -13 -12   1    1.01    0.44
 -13 -12   1    1.06    0.40
 -13 -12   1    1.34    0.50
  13  12   1    1.26    0.28
 -13 -12   1    1.34    0.50
 -13 -12   1    1.06    0.40
  13  12   1    1.26    0.28
 -13 -12   1    1.01    0.44
 -14 -12   0    0.24    0.49
 -14  12   0    1.46    0.51
 -14  12   0    1.46    0.51
 -14 -12   0    0.24    0.49
 -14 -12   0   -0.09    0.34
 -14 -12   0   -0.09    0.34
 -14  12   1   -0.31    0.46
 -14 -12  -1    0.25    0.44
 -14 -12  -1    0.25    0.44
 -14  12   1   -0.31    0.46
 -14 -12   1   -0.33    0.45
  14  12   1    0.25    0.21
 -14 -12   1    0.17    0.36
 -14 -12   1   -0.16    0.37
 -14 -12   1   -0.33    0.45
  14  12   1    0.25    0.21
 -14 -12   1    0.17    0.36
 -14 -12   1   -0.16    0.37
   0  13   0    0.14    0.12
   0 -13   0    0.08    0.08
   0 -13   0    0.08    0.08
   0 -13   0    0.36    0.12
   0 -13   0    0.36    0.12
   0 -13   0    0.02    0.12
   0  13   0    0.13    0.08
   0 -13   0    0.09    0.10
   0 -13   0    0.09    0.10
   0  13   0    0.14    0.12
   0 -13   0    0.02    0.12
   0  13   0    0.13    0.08
   0 -13   1    0.04    0.08
   0 -13  -1    0.00    0.11
   0 -13  -1    0.15    0.08
   0  13  -1    0.08    0.11
   0 -13   1    0.04    0.08
   0  13   1    0.11    0.08
   0  13   1    0.11    0.08
   0 -13   1    0.31    0.13
   0  13  -1    0.08    0.11
   0 -13  -1    0.00    0.11
   0 -13   1    0.31    0.13
   0 -13  -1    0.15    0.08
   0 -13   2    0.05    0.09
   0  13  -2   -0.03    0.11
   0 -13   2    0.21    0.19
   0  13   2    0.03    0.07
   0  13   2    0.05    0.18
   0  13   2    0.03    0.07
   0 -13  -2    0.15    0.13
   0 -13  -2    0.15    0.13
   0  13  -2   -0.03    0.11
   0 -13   2    0.05    0.09
   0 -13   2    0.21    0.19
   0  13   2    0.05    0.18
   0  13   3   -0.19    0.23
   0 -13   3   -0.01    0.11
   0 -13   3   -0.19    0.29
   0 -13  -3    0.02    0.13
   0  13   3    0.11    0.10
   0  13   3    0.11    0.10
   0 -13   3   -0.19    0.29
   0 -13  -3    0.02    0.13
   0 -13   3   -0.01    0.11
   0  13   3   -0.19    0.23
   0  13   4    0.17    0.12
   0 -13   4   -0.14    0.43
   0  13   4    0.17    0.12
   0 -13  -4    0.16    0.14
   0 -13  -4    0.16    0.14
   0 -13   4   -0.33    0.22
   0 -13   4   -0.04    0.12
   0 -13   4   -0.04    0.12
   0 -13   4   -0.14    0.43
   0  13   4    0.07    0.32
   0  13   4    0.07    0.32
   0 -13   4   -0.33    0.22
  -1 -13   0    1.78    0.30
   1 -13   0    1.80    0.26
  -1 -13   0    1.69    0.26
  -1 -13   0    1.84    0.24
  -1 -13   0    1.84    0.24
   1 -13   0    1.58    0.26
   1  13   0    1.73    0.26
  -1 -13   0    1.78    0.30
  -1  13   0    1.46    0.23
   1 -13   0    1.66    0.24
   1  13   0    1.73    0.26
   1 -13   0    1.58    0.26
   1 -13   0    1.80    0.23
  -1 -13   0    1.69    0.26
   1 -13   0    1.66    0.24
  -1  13   0    1.76    0.21
  -1  13   0    1.76    0.21
  -1 -13   0    1.52    0.22
   1 -13   0    1.80    0.26
   1 -13   0    1.80    0.23
  -1 -13   0    1.52    0.22
  -1  13   0    1.46    0.23
   1 -13   1    8.98    0.86
   1 -13   1    9.37    0.85
   1 -13   1    9.97    0.87
   1 -13   1    9.98    0.87
  -1 -13  -1    9.18    0.82
  -1  13   1   10.39    0.91
   1  13  -1    8.72    0.83
  -1 -13  -1    7.44    0.89
  -1  13   1   10.39    0.91
   1  13  -1    8.72    0.83
  -1 -13  -1    7.44    0.89
   1 -13   1    8.98    0.86
  -1 -13  -1    9.18    0.82
  -1  13   1    8.73    0.81
  -1  13   1    8.73    0.81
   1 -13   1    9.37    0.85
   1  13   1   10.76    0.89
  -1 -13   1    9.66    0.89
  -1  13  -1    8.81    0.82
  -1  13  -1    8.81    0.82
  -1 -13   1   10.42    0.87
   1 -13  -1    8.84    0.89
  -1 -13   1    9.66    0.89
   1  13   1    9.50    0.83
   1  13   1   10.76    0.89
   1 -13  -1    8.84    0.89
   1  13   1    9.50    0.83
  -1 -13   1   10.42    0.87
   1  13  -2    1.34    0.20
   1 -13   2    1.70    0.23
   1 -13   2    1.70    0.23
  -1 -13  -2    1.59    0.31
   1 -13   2    1.70    0.31
   1 -13   2    1.70    0.31
  -1 -13  -2    1.59    0.31
  -1  13   2    1.50    0.28
  -1  13   2    1.50    0.28
   1  13  -2    1.34    0.20
   1 -13  -2    1.41    0.28
   1  13   2    1.48    0.22
   1 -13  -2    1.41    0.28
  -1 -13   2    1.62    0.24
  -1 -13   2    1.57    0.31
  -1 -13   2    1.62    0.24
   1  13   2    1.83    0.32
  -1  13  -2    1.54    0.22
   1  13   2    1.83    0.32
  -1 -13   2    1.57    0.31
   1  13   2    1.48    0.22
  -1  13  -2    1.54    0.22
  -1  13   3    6.73    0.65
  -1 -13  -3    5.25    0.69
  -1 -13  -3    5.25    0.69
  -1  13   3    5.51    0.77
   1 -13   3    7.15    0.65
  -1  13   3    6.72    0.65
   1 -13   3    7.15    0.65
   1 -13   3    7.75    0.82
  -1  13   3    5.51    0.77
   1 -13   3    7.75    0.82
   1  13   3    6.64    0.63
   1 -13  -3    6.70    0.67
  -1 -13   3    6.56    0.74
   1  13   3    7.18    0.79
   1  13   3    6.64    0.63
  -1 -13   3    5.85    0.85
  -1 -13   3    5.85    0.85
  -1 -13   3    6.56    0.74
   1  13   3    7.18    0.79
  -1 -13   3    8.00    0.65
  -1 -13   3    8.00    0.65
   1 -13  -3    6.70    0.67
   1 -13   4    1.91    0.51
  -1 -13  -4    1.70    0.31
   1 -13   4    1.56    0.36
  -1  13   4    1.32    0.22
   1 -13   4    1.42    0.25
  -1  13   4    1.53    0.42
  -1 -13  -4    1.70    0.31
   1 -13   4    1.91    0.51
   1 -13   4    1.42    0.25
  -1  13   4    1.32    0.22
   1 -13   4    1.56    0.36
  -1  13   4    1.53    0.42
   1 -13  -4    1.25    0.25
  -1 -13   4    1.15    0.32
  -1 -13   4    1.20    0.53
  -1 -13   4    1.20    0.53
   1  13   4    1.32    0.44
  -1 -13   4    1.76    0.25
   1  13   4    1.54    0.26
   1  13   4    1.54    0.26
  -1 -13   4    1.15    0.32
  -1 -13   4    1.76    0.25
   1 -13  -4    1.25    0.25
   1  13   4    1.32    0.44
  -2  13   0    2.05    0.30
  -2 -13   0    2.54    0.28
   2 -13   0    1.98    0.30
  -2 -13   0    2.28    0.32
  -2 -13   0    2.54    0.28
   2  13   0    2.37    0.30
   2 -13   0    2.75    0.32
  -2 -13   0    1.93    0.35
  -2 -13   0    2.28    0.32
   2 -13   0    2.75    0.32
   2  13   0    2.37    0.30
  -2  13   0    2.78    0.25
  -2  13   0    2.78    0.25
  -2 -13   0    1.93    0.35
   2 -13   0    1.98    0.30
  -2  13   0    2.06    0.30
   2 -13   1   10.14    0.93
  -2  13   1   10.33    0.95
   2 -13   1   10.49    0.94
   2  13  -1    9.27    0.90
  -2  13   1   10.33    0.95
   2  13  -1    9.27    0.90
   2 -13   1   10.14    0.93
   2 -13   1   10.49    0.94
  -2 -13  -1   11.43    0.91
  -2 -13  -1   11.43    0.91
   2  13   1   10.70    0.91
  -2 -13   1   10.82    0.94
   2  13   1   12.28    0.96
   2 -13  -1   11.20    0.97
   2  13   1   12.28    0.96
  -2 -13   1    8.82    0.96
  -2 -13   1   10.82    0.94
  -2  13  -1    8.96    0.90
  -2  13  -1    9.10    0.88
   2 -13  -1   11.20    0.97
  -2  13  -1    8.96    0.90
  -2 -13   1    8.82    0.96
   2  13   1   10.70    0.91
  -2  13  -1    9.10    0.88
   2  13  -2    1.54    0.26
  -2  13   2    2.13    0.25
   2 -13   2    2.53    0.27
  -2  13   2    2.13    0.25
  -2  13   2    1.91    0.35
   2 -13   2    2.25    0.34
  -2  13   2    1.91    0.35
   2 -13   2    2.25    0.34
   2 -13   2    2.53    0.27
   2  13  -2    1.54    0.26
  -2  13  -2    1.96    0.26
   2  13   2    2.13    0.27
  -2 -13   2    2.03    0.29
   2 -13  -2    2.66    0.32
  -2 -13   2    2.23    0.34
   2  13   2    1.75    0.34
  -2  13  -2    1.96    0.26
  -2 -13   2    2.03    0.29
   2  13   2    2.13    0.27
   2  13   2    1.75    0.34
  -2 -13   2    2.23    0.34
   2 -13  -2    2.66    0.32
   2 -13   3    5.09    0.67
  -2  13   3    4.50    0.64
   2 -13   3    5.09    0.67
   2 -13   3    5.04    0.48
  -2  13   3    4.50    0.64
   2 -13   3    5.04    0.48
  -2 -13   3    4.80    0.66
   2 -13  -3    4.25    0.49
  -2 -13   3    4.89    0.59
  -2 -13   3    4.80    0.66
   2  13   3    4.74    0.48
   2  13   3    4.49    0.63
  -2 -13   3    4.89    0.59
   2  13   3    4.74    0.48
   2 -13  -3    4.25    0.49
   2  13   3    4.49    0.63
  -2  13   4    1.65    0.26
   2 -13   4    1.63    0.27
   2 -13   4    2.28    0.45
  -2  13   4    1.65    0.26
   2 -13   4    1.63    0.27
   2 -13   4    2.28    0.45
  -2 -13  -4    1.24    0.28
   2 -13   4    1.25    0.47
  -2  13   4    1.66    0.42
  -2 -13  -4    1.24    0.28
  -2  13   4    1.66    0.42
   2 -13   4    1.25    0.47
  -2 -13   4    1.34    0.55
  -2 -13   4    1.35    0.25
  -2 -13   4    1.35    0.25
   2 -13  -4    1.41    0.24
  -2 -13   4    1.34    0.55
   2  13   4    2.00    0.28
   2  13   4    1.38    0.37
  -2 -13   4    1.87    0.39
   2  13   4    2.00    0.28
  -2 -13   4    1.87    0.39
   2  13   4    1.38    0.37
   2 -13  -4    1.41    0.24
  -3 -13   0    1.92    0.25
  -3  13   0    1.88    0.26
   3 -13   0    1.81    0.24
  -3 -13   0    1.92    0.25
   3  13   0    1.47    0.25
  -3 -13   0    2.31    0.30
  -3 -13   0    1.38    0.31
   3 -13   0    2.01    0.27
  -3  13   0    2.24    0.20
  -3  13   0    2.24    0.20
   3 -13   0    1.81    0.24
   3 -13   0    2.01    0.27
  -3  13   0    1.88    0.26
  -3 -13   0    2.31    0.30
   3  13   0    1.47    0.25
  -3 -13   0    1.38    0.31
   3  13  -1   44.66    3.91
  -3  13   1   49.34    3.89
  -3  13   1   49.34    3.89
  -3 -13  -1   55.15    3.92
   3 -13   1   47.64    3.94
  -3 -13  -1   55.15    3.92
  -3  13   1   40.41    3.94
   3  13  -1   44.66    3.91
   3 -13   1   47.64    3.94
  -3  13   1   40.41    3.94
  -3  13  -1   40.25    3.87
  -3 -13   1   48.98    3.90
  -3 -13   1   54.44    3.97
  -3 -13   1   41.93    3.90
  -3  13  -1   40.25    3.87
  -3  13  -1   44.01    3.90
  -3 -13   1   41.93    3.90
  -3 -13   1   48.98    3.90
  -3  13  -1   44.01    3.90
  -3 -13   1   54.44    3.97
  -3  13   2    1.96    0.33
   3 -13   2    2.10    0.34
   3 -13   2    2.10    0.34
  -3 -13  -2    1.59    0.34
   3  13  -2    2.08    0.26
  -3  13   2    2.02    0.26
   3 -13   2    2.43    0.26
  -3  13   2    1.96    0.33
   3 -13   2    2.43    0.26
  -3 -13  -2    1.59    0.34
  -3  13   2    2.02    0.26
   3  13  -2    2.08    0.26
   3  13   2    1.49    0.30
  -3 -13   2    2.09    0.30
  -3 -13   2    2.09    0.30
   3  13   2    1.49    0.30
  -3  13  -2    1.73    0.24
   3 -13  -2    1.91    0.27
   3 -13  -2    1.91    0.27
  -3 -13   2    1.43    0.30
  -3 -13   2    1.65    0.31
  -3  13  -2    1.73    0.24
  -3 -13   2    1.43    0.30
   3  13   2    1.90    0.26
   3  13   2    1.90    0.26
  -3 -13   2    1.65    0.31
  -3  13   3   34.17    2.67
   3 -13   3   30.01    2.66
   3 -13   3   30.01    2.66
   3 -13   3   33.37    2.58
  -3  13   3   34.17    2.67
  -3  13   3   27.30    2.60
   3 -13   3   32.63    2.65
   3 -13   3   32.63    2.65
  -3  13   3   27.29    2.60
   3 -13   3   33.37    2.58
   3  13   3   26.31    2.62
  -3 -13   3   30.27    2.67
  -3 -13   3   28.09    2.65
   3  13   3   30.40    2.57
   3 -13  -3   28.71    2.57
   3 -13  -3   28.71    2.57
  -3 -13   3   28.09    2.65
  -3 -13   3   30.27    2.67
   3  13   3   30.40    2.57
   3  13   3   26.31    2.62
  -3  13   4    2.04    0.43
   3 -13   4    1.87    0.39
   3 -13   4    2.40    0.54
   3 -13   4    1.71    0.32
  -3  13   4    2.56    0.31
   3 -13   4    2.40    0.54
  -3 -13  -4    1.49    0.34
  -3  13   4    2.04    0.43
   3 -13   4    1.87    0.39
  -3  13   4    2.56    0.31
   3 -13   4    1.71    0.32
  -3 -13  -4    1.49    0.34
   3  13   4    2.13    0.43
  -3 -13   4    1.80    0.57
   3  13   4    2.70    0.33
  -3 -13   4    2.76    0.30
  -3 -13   4    1.75    0.37
   3  13   4    2.70    0.33
   3  13   4    2.13    0.43
  -3 -13   4    2.76    0.30
  -3 -13   4    1.80    0.57
   3 -13  -4    2.07    0.28
  -3 -13   4    1.75    0.37
   3 -13  -4    2.07    0.28
  -4  13   0   16.91    1.65
  -4 -13   0   18.69    1.68
  -4 -13   0   18.04    1.64
   4 -13   0   22.18    1.69
   4 -13   0   22.18    1.69
  -4  13   0   16.91    1.65
  -4 -13   0   18.04    1.64
  -4 -13   0   18.69    1.68
   4 -13   0   21.09    1.66
   4  13   0   17.12    1.68
   4  13   0   17.12    1.68
   4 -13   0   21.09    1.66
   4  13  -1   34.00    3.01
  -4 -13  -1   40.86    3.00
  -4 -13  -1   40.86    3.00
   4 -13   1   32.59    3.03
  -4  13   1   40.97    2.99
   4 -13   1   32.59    3.03
   4  13  -1   34.00    3.01
  -4  13   1   40.97    2.99
  -4 -13   1   32.78    3.02
  -4 -13   1   29.58    3.08
  -4  13  -1   37.10    3.00
   4  13   1   34.66    3.02
  -4 -13   1   29.58    3.08
  -4  13  -1   37.10    3.00
   4  13   1   34.66    3.02
  -4 -13   1   37.49    3.05
  -4 -13   1   32.78    3.02
  -4 -13   1   37.49    3.05
  -4  13   2   16.70    1.44
   4 -13   2   14.44    1.40
   4  13  -2   12.81    1.33
   4 -13   2   14.44    1.40
   4  13  -2   12.81    1.33
  -4  13   2   15.97    1.33
  -4  13   2   15.97    1.33
  -4  13   2   16.70    1.44
  -4 -13   2   14.62    1.40
   4 -13  -2   17.69    1.38
   4  13   2   15.20    1.36
   4  13   2   17.50    1.42
   4 -13  -2   17.69    1.38
  -4 -13   2   14.62    1.40
  -4  13  -2   14.91    1.32
   4  13   2   15.20    1.36
   4  13   2   17.50    1.42
  -4  13  -2   14.91    1.32
  -4  13   3   30.38    2.36
   4 -13   3   26.27    2.31
   4 -13   3   28.38    2.26
  -4  13   3   27.18    2.24
   4 -13   3   28.38    2.26
  -4  13   3   30.38    2.36
   4 -13   3   26.27    2.31
  -4  13   3   27.18    2.24
   4  13   3   24.51    2.25
   4 -13  -3   24.90    2.24
  -4 -13   3   23.09    2.35
   4  13   3   24.34    2.32
  -4 -13   3   26.86    2.35
   4  13   3   24.34    2.32
   4  13   3   24.51    2.25
  -4 -13   3   26.86    2.35
  -4 -13   3   23.09    2.35
   4 -13  -3   24.90    2.24
   4 -13   4    9.65    1.17
  -4  13   4   11.49    1.15
   4 -13   4   10.82    1.06
   4 -13   4    8.66    0.96
  -4  13   4   10.69    0.95
  -4  13   4   10.69    0.95
   4 -13   4    9.65    1.17
   4 -13   4    8.66    0.96
  -4  13   4   11.49    1.15
   4 -13   4   10.82    1.06
  -4 -13   4   12.35    1.13
   4  13   4   10.64    0.97
   4  13   4   10.71    1.13
  -4 -13   4   12.12    0.97
  -4 -13   4   12.35    1.13
  -4 -13   4    8.53    1.18
  -4 -13   4    8.53    1.18
   4 -13  -4    9.21    0.93
   4 -13  -4    9.21    0.93
  -4 -13   4   12.12    0.97
   4  13   4   10.64    0.97
   4  13   4   10.71    1.13
  -5 -13   0   -0.12    0.18
  -5 -13   0   -0.12    0.18
  -5 -13   0   -0.04    0.19
  -5 -13   0    0.01    0.10
  -5 -13   0    0.01    0.10
   5 -13   0    0.03    0.08
   5 -13   0    0.03    0.08
  -5  13   0   -0.09    0.17
  -5 -13   0   -0.04    0.19
   5  13   0    0.11    0.13
   5  13   0    0.11    0.13
  -5  13   0   -0.09    0.17
  -5  13   1    0.16    0.08
  -5  13   1    0.16    0.08
  -5 -13  -1    0.11    0.09
   5 -13   1   -0.03    0.11
   5 -13   1   -0.03    0.11
   5  13  -1    0.26    0.14
   5 -13   1    0.04    0.07
  -5 -13  -1    0.11    0.09
  -5 -13  -1    0.07    0.17
  -5 -13  -1    0.07    0.17
   5 -13   1    0.04    0.07
   5  13  -1    0.26    0.14
   5  13   1   -0.08    0.11
   5 -13  -1    0.11    0.09
  -5 -13   1    0.04    0.15
   5  13   1    0.12    0.17
   5  13   1    0.12    0.17
   5  13   1   -0.08    0.11
  -5 -13   1    0.04    0.15
  -5  13  -1    0.02    0.14
   5 -13  -1    0.11    0.09
  -5  13  -1    0.02    0.14
  -5  13   2    0.07    0.09
   5 -13   2    0.18    0.21
  -5 -13  -2   -0.01    0.17
   5  13  -2    0.15    0.16
  -5 -13  -2   -0.01    0.17
   5 -13   2    0.07    0.10
   5  13  -2    0.15    0.16
   5 -13   2    0.18    0.21
  -5  13   2    0.12    0.24
   5 -13   2    0.07    0.10
  -5  13   2    0.12    0.24
  -5  13   2    0.07    0.09
  -5 -13   2   -0.01    0.20
   5 -13  -2    0.06    0.09
   5  13   2    0.16    0.21
  -5 -13   2   -0.07    0.10
  -5 -13   2   -0.07    0.10
  -5 -13   2    0.26    0.17
   5  13   2    0.16    0.21
  -5 -13   2   -0.01    0.20
  -5 -13   2    0.26    0.17
   5 -13  -2    0.06    0.09
   5 -13   3   -0.20    0.29
   5 -13   3    0.09    0.11
  -5 -13  -3    0.07    0.24
   5 -13   3   -0.20    0.29
  -5  13   3   -0.15    0.26
   5 -13   3    0.09    0.11
  -5  13   3   -0.15    0.26
  -5 -13  -3    0.07    0.24
  -5 -13   3    0.13    0.22
   5 -13  -3    0.13    0.09
   5  13   3    0.08    0.12
   5  13   3    0.08    0.12
  -5 -13   3    0.13    0.22
   5  13   3   -0.09    0.26
   5 -13  -3    0.13    0.09
  -5 -13   3   -0.09    0.16
  -5 -13   3    0.05    0.39
  -5 -13   3    0.05    0.39
  -5 -13   3   -0.09    0.16
   5  13   3   -0.09    0.26
   5 -13   4   -0.28    0.37
   5 -13   4   -0.28    0.37
  -5  13   4   -0.22    0.33
  -5  13   4   -0.22    0.33
   5 -13   4    0.11    0.16
  -5  13   4    0.46    0.15
   5 -13   4   -0.12    0.25
  -5 -13  -4   -0.08    0.26
   5 -13   4   -0.12    0.25
  -5  13   4    0.46    0.15
   5 -13   4    0.11    0.16
  -5 -13  -4   -0.08    0.26
   5  13   4    0.13    0.15
  -5 -13   4    0.18    0.24
  -5 -13   4    0.32    0.54
   5  13   4    0.43    0.36
  -5 -13   4    0.18    0.24
   5 -13  -4   -0.02    0.14
   5  13   4    0.43    0.36
  -5 -13   4    0.32    0.54
   5  13   4    0.13    0.15
   5 -13  -4   -0.02    0.14
  -6 -13   0    0.21    0.11
   6  13   0    0.27    0.14
   6 -13   0    0.12    0.08
   6 -13   0    0.12    0.08
  -6  13   0    0.37    0.22
  -6  13   0    0.37    0.22
  -6 -13   0    0.15    0.21
  -6 -13   0    0.21    0.11
  -6 -13   0    0.12    0.22
   6  13   0    0.27    0.14
  -6 -13   0    0.15    0.21
  -6 -13   0    0.12    0.22
   6  13  -1    7.77    0.82
   6 -13   1    9.78    0.85
  -6  13   1    8.35    0.94
   6  13  -1    7.77    0.82
  -6  13   1    9.85    0.79
  -6  13   1    8.35    0.94
   6 -13   1    9.78    0.85
  -6 -13  -1    9.22    0.80
  -6  13   1    9.85    0.79
  -6 -13  -1    9.22    0.80
   6 -13  -1    9.58    0.84
  -6  13  -1    8.30    0.84
  -6 -13   1    9.77    0.94
  -6  13  -1    8.30    0.84
   6 -13  -1    9.58    0.84
  -6 -13   1    7.99    0.96
  -6 -13   1    9.77    0.94
  -6 -13   1    7.99    0.96
   6  13  -2    0.24    0.14
  -6 -13  -2    0.22    0.22
  -6  13   2    0.23    0.12
   6 -13   2    0.53    0.16
   6 -13   2    0.39    0.24
   6  13  -2    0.24    0.14
   6 -13   2    0.53    0.16
  -6  13   2    0.23    0.12
  -6  13   2    0.50    0.29
  -6 -13  -2    0.22    0.22
   6 -13   2    0.39    0.24
  -6  13   2    0.50    0.29
   6 -13  -2    0.22    0.11
   6  13   2    0.34    0.24
  -6 -13   2    0.34    0.22
  -6 -13   2    0.29    0.17
  -6 -13   2    0.34    0.22
  -6 -13   2    0.15    0.21
  -6 -13   2    0.15    0.21
  -6 -13   2    0.29    0.17
   6 -13  -2    0.22    0.11
   6  13   2    0.34    0.24
   6 -13   3    5.92    0.67
  -6  13   3    6.13    0.83
  -6  13   3    6.13    0.83
  -6  13   3    7.07    0.65
  -6  13   3    7.07    0.65
   6 -13   3    5.92    0.67
   6 -13   3    6.67    0.80
   6 -13   3    6.67    0.80
   6  13   3    8.14    0.69
  -6 -13   3    7.74    0.70
   6  13   3    6.30    0.79
  -6 -13   3    5.39    0.79
  -6 -13   3    6.94    0.80
  -6 -13   3    7.74    0.70
   6  13   3    8.14    0.69
   6 -13  -3    6.13    0.63
   6 -13  -3    6.13    0.63
  -6 -13   3    6.94    0.80
   6  13   3    6.30    0.79
  -6 -13   3    5.39    0.79
   7 -13   0    3.31    0.38
  -7 -13   0    2.98    0.46
  -7 -13   0    2.98    0.46
  -7  13   0    3.83    0.50
   7  13   0    3.07    0.40
  -7  13   0    3.83    0.50
   7  13   0    3.07    0.40
   7 -13   0    3.31    0.38
  -7  13   1    3.11    0.37
   7 -13   1    4.37    0.57
   7  13  -1    3.82    0.42
  -7 -13  -1    3.87    0.39
   7  13  -1    3.82    0.42
  -7 -13  -1    3.87    0.39
  -7  13   1    3.11    0.37
   7 -13   1    4.37    0.57
   7  13   1    4.09    0.48
  -7 -13   1    3.22    0.59
  -7 -13   1    3.31    0.52
   7 -13  -1    4.43    0.42
  -7  13  -1    3.90    0.56
   7 -13  -1    4.43    0.42
  -7 -13   1    3.31    0.52
  -7  13  -1    3.90    0.56
   7  13   1    4.09    0.48
  -7 -13   1    3.22    0.59
   7 -13   2    3.40    0.46
  -7  13   2    3.67    0.55
   7 -13   2    3.40    0.46
  -7  13   2    2.85    0.37
  -7  13   2    3.67    0.55
   7 -13   2    3.73    0.41
   7 -13   2    3.73    0.41
  -7  13   2    2.85    0.37
   7  13   2    2.91    0.43
   7  13   2    3.25    0.40
   7  13   2    3.25    0.40
   7 -13  -2    3.34    0.36
  -7 -13   2    2.20    0.46
  -7 -13   2    4.00    0.42
   7  13   2    2.87    0.39
   7  13   2    2.87    0.39
  -7 -13   2    4.00    0.42
   7  13   2    2.91    0.43
  -7 -13   2    2.20    0.46
   7 -13  -2    3.34    0.36
  -7  13   3    3.11    0.42
  -7  13   3    3.11    0.42
   7 -13   3    4.00    0.55
   7 -13   3    3.94    0.50
   7 -13   3    2.97    0.43
   7 -13   3    2.97    0.43
   7 -13   3    4.00    0.55
  -7  13   3    4.60    0.65
  -7  13   3    4.60    0.65
   7 -13   3    3.94    0.50
   7  13   3    2.92    0.52
   7 -13  -3    3.16    0.40
  -7 -13   3    4.98    0.59
   7  13   3    3.60    0.53
  -7 -13   3    3.05    0.59
  -7 -13   3    4.39    0.49
   7 -13  -3    3.16    0.40
  -7 -13   3    3.05    0.59
   7  13   3    3.60    0.53
  -7 -13   3    4.39    0.49
  -7 -13   3    4.98    0.59
   7  13   3    2.92    0.52
   7  13   3    4.47    0.46
   7  13   3    4.47    0.46
  -8 -13   0   16.90    1.56
  -8  13   0   16.31    1.65
  -8 -13   0   16.90    1.56
   8  13   0   20.04    1.58
  -8 -13   0   17.71    1.64
  -8 -13   0   17.71    1.64
  -8  13   0   16.31    1.65
   8  13   0   20.04    1.58
  -8 -13  -1    8.77    0.85
   8 -13   1    9.74    0.91
  -8  13   1    8.64    1.05
  -8 -13  -1    8.77    0.85
   8 -13   1    9.74    0.91
   8  13  -1    9.07    0.87
   8  13  -1    9.07    0.87
  -8  13   1    8.64    1.05
   8  13   1   10.23    0.92
  -8 -13   1    8.88    1.02
   8 -13  -1   10.70    0.90
  -8  13  -1    9.23    0.97
  -8 -13   1    8.88    1.02
   8 -13  -1   10.70    0.90
  -8  13  -1    9.23    0.97
   8  13   1   10.23    0.92
  -8  13   2   12.73    1.24
   8 -13   2   15.52    1.32
  -8  13   2   12.73    1.24
   8 -13   2   13.47    1.28
   8 -13   2   13.47    1.28
   8 -13   2   13.70    1.28
  -8  13   2   14.78    1.39
  -8  13   2   14.78    1.39
   8 -13   2   15.52    1.32
   8 -13   2   13.70    1.28
   8  13   2   14.37    1.33
  -8 -13   2   13.60    1.39
   8  13   2   14.03    1.31
  -8 -13   2   13.60    1.39
   8 -13  -2   14.45    1.25
   8 -13  -2   14.45    1.25
   8  13   2   14.03    1.31
   8  13   2   14.37    1.33
  -8  13   3    6.48    0.79
   8 -13   3    6.71    0.77
   8 -13   3    4.64    0.58
   8 -13   3    4.99    0.63
  -8  13   3    5.07    0.59
  -8  13   3    5.06    0.59
   8 -13   3    4.99    0.63
   8 -13   3    4.64    0.58
   8 -13   3    6.71    0.77
  -8  13   3    6.48    0.79
  -8 -13   3    5.67    0.66
  -8 -13   3    5.67    0.66
   8  13   3    6.33    0.61
   8 -13  -3    4.92    0.55
   8 -13  -3    4.92    0.55
  -8 -13   3    6.63    0.63
   8  13   3    5.43    0.71
  -8 -13   3    6.63    0.63
   8  13   3    6.33    0.61
   8  13   3    5.43    0.71
   9  13   0    0.31    0.17
  -9  13   0    0.28    0.33
  -9 -13   0    0.21    0.34
   9  13   0    0.31    0.17
  -9 -13   0    0.21    0.34
   9 -13   0    0.35    0.15
  -9 -13   0    0.24    0.31
  -9 -13   0    0.24    0.31
  -9  13   0    0.28    0.33
   9 -13   0    0.35    0.15
  -9 -13  -1   35.65    2.99
   9  13  -1   32.39    3.01
  -9  13   1   36.59    3.14
  -9  13   1   36.59    3.14
   9 -13   1   34.98    3.06
  -9 -13  -1   35.65    2.99
   9  13  -1   32.39    3.01
   9 -13   1   34.98    3.06
   9  13   1   33.55    3.04
  -9  13  -1   40.76    3.07
   9 -13  -1   36.80    3.04
  -9 -13   1   33.44    3.11
  -9  13  -1   40.76    3.07
  -9 -13   1   33.44    3.11
   9 -13  -1   36.80    3.04
   9  13   1   33.55    3.04
  -9  13   2    0.92    0.37
   9 -13   2    0.42    0.26
  -9  13   2    0.52    0.21
  -9 -13  -2   -0.17    0.28
   9 -13   2    0.68    0.19
   9 -13   2    0.42    0.26
  -9 -13  -2   -0.17    0.28
  -9  13   2    0.92    0.37
  -9  13   2    0.52    0.21
   9 -13   2    0.68    0.19
   9  13   2    0.37    0.18
  -9 -13   2    0.31    0.26
  -9 -13   2    0.31    0.26
  -9 -13   2    0.35    0.32
   9  13   2    0.43    0.26
  -9 -13   2    0.35    0.32
  -9 -13   2    0.27    0.26
   9  13   2    0.37    0.18
   9 -13  -2    0.38    0.16
   9 -13  -2    0.38    0.16
   9  13   2    0.43    0.26
  -9 -13   2    0.27    0.26
  -9  13   3   28.97    2.55
   9 -13   3   29.20    2.51
   9 -13   3   29.20    2.51
   9 -13   3   26.02    2.46
  -9  13   3   28.97    2.55
   9 -13   3   26.02    2.46
   9  13   3   25.19    2.49
  -9 -13   3   29.62    2.56
  -9 -13   3   29.62    2.56
  -9 -13   3   28.70    2.50
   9  13   3   28.82    2.45
  -9 -13   3   28.70    2.50
   9  13   3   28.82    2.45
   9  13   3   25.19    2.49
  10  13   0   18.96    1.66
 -10  13   0   19.05    1.85
  10  13   0   18.96    1.66
 -10 -13   0   20.38    1.79
 -10 -13   0   18.93    1.68
 -10  13   0   19.05    1.85
 -10 -13   0   18.93    1.68
 -10 -13   0   20.38    1.79
  10 -13   0   17.58    1.68
  10 -13   0   17.58    1.68
  10 -13   1   10.73    0.98
  10  13  -1    8.88    0.92
 -10 -13  -1   12.18    1.10
  10  13  -1    8.88    0.92
 -10 -13  -1    9.69    0.91
  10 -13   1   10.73    0.98
 -10  13   1    9.85    1.18
 -10 -13  -1   12.18    1.10
 -10 -13  -1    9.69    0.91
 -10  13   1    9.85    1.18
  10  13   1   10.01    0.96
  10  13   1   10.01    0.96
 -10 -13   1    7.57    1.11
  10 -13  -1   11.78    0.97
  10 -13  -1   11.78    0.97
 -10 -13   1    7.57    1.11
 -10 -13   1    9.28    1.11
 -10 -13   1    9.28    1.11
  10 -13   2   13.94    1.48
  10 -13   2   13.94    1.48
 -10 -13   2   18.58    1.51
  10  13   2   16.44    1.51
  10  13   2   17.28    1.50
 -10 -13   2   18.58    1.51
  10  13   2   16.44    1.51
 -10 -13   2   14.92    1.66
  10 -13  -2   17.37    1.46
  10  13   2   17.28    1.50
 -10 -13   2   15.70    1.56
 -10 -13   2   15.70    1.56
  10 -13  -2   17.37    1.46
 -10 -13   2   14.92    1.66
  10 -13   3    7.38    0.97
 -10  13   3   10.75    1.07
 -10  13   3   10.75    1.07
  10 -13   3    7.38    0.97
  10  13   3    9.40    0.95
  10 -13  -3    6.34    0.79
 -10 -13   3    9.46    0.96
  10  13   3    8.79    0.94
  10 -13  -3    6.34    0.79
  10  13   3    8.79    0.94
 -10 -13   3    8.06    0.97
 -10 -13   3    9.46    0.96
 -10 -13   3    8.06    0.97
  10  13   3    9.40    0.95
 -11 -13   0    0.36    0.32
  11  13   0    0.05    0.17
 -11 -13   0    0.48    0.36
 -11  13   0    0.87    0.42
  11  13   0    0.05    0.17
 -11  13   0    0.87    0.42
 -11 -13   0    0.36    0.32
  11 -13   0    0.42    0.19
 -11 -13   0    0.48    0.36
  11 -13   0    0.42    0.19
 -11 -13  -1    1.16    0.41
 -11  13   1    1.44    0.49
  11  13  -1    1.06    0.22
  11  13  -1    1.06    0.22
 -11  13   1    1.44    0.49
 -11 -13  -1    1.16    0.41
 -11 -13   1    1.35    0.43
  11 -13  -1    1.39    0.27
  11  13   1    1.05    0.27
  11 -13  -1    1.39    0.27
  11  13   1    1.05    0.27
 -11 -13   1    1.27    0.42
 -11 -13   1    1.35    0.43
 -11 -13   1    1.27    0.42
 -11 -13   1    1.59    0.45
 -11 -13   1    1.59    0.45
 -11  13   2    0.57    0.44
 -11  13   2    0.57    0.44
 -11 -13  -2   -0.02    0.38
 -11 -13  -2   -0.02    0.38
  11  13   2    0.36    0.23
  11  13   2    0.36    0.23
 -11 -13   2    0.54    0.30
 -11 -13   2    0.54    0.30
  11 -13  -2    0.47    0.20
  11  13   2    0.31    0.19
 -11 -13   2    0.15    0.31
 -11 -13   2    0.01    0.40
 -11 -13   2    0.15    0.31
  11 -13  -2    0.47    0.20
  11  13   2    0.31    0.19
 -11 -13   2    0.01    0.40
 -12 -13   0    0.07    0.33
  12 -13   0    0.36    0.19
  12  13   0    0.15    0.15
 -12  13   0    0.19    0.48
 -12  13   0    0.19    0.48
 -12 -13   0    0.11    0.27
  12 -13   0    0.36    0.19
 -12 -13   0    0.66    0.41
 -12 -13   0    0.66    0.41
 -12 -13   0    0.11    0.27
 -12 -13   0    0.07    0.33
  12  13   0    0.15    0.15
  12 -13   1    6.24    0.70
 -12 -13  -1    7.49    0.92
  12 -13   1    6.24    0.70
 -12  13   1    8.62    1.02
 -12  13   1    8.62    1.02
 -12 -13  -1    7.49    0.92
  12 -13  -1    5.28    0.65
  12 -13  -1    5.28    0.65
 -12 -13   1    5.93    0.93
 -12 -13   1    5.93    0.83
 -12 -13   1    5.93    0.83
  12  13   1    6.61    0.68
 -12 -13   1    5.93    0.93
 -12 -13   1    6.28    0.82
  12  13   1    6.61    0.68
 -12 -13   1    6.28    0.82
 -12  13   2    0.27    0.58
 -12  13   2    0.27    0.58
 -12 -13   2    0.04    0.29
 -12 -13   2   -0.22    0.32
 -12 -13   2    0.46    0.44
  12  13   2    0.00    0.23
  12  13   2    0.27    0.23
  12  13   2    0.00    0.23
 -12 -13   2    0.46    0.44
  12  13   2    0.27    0.23
 -12 -13   2    0.04    0.29
 -12 -13   2   -0.22    0.32
  13  13   0    2.24    0.34
 -13 -13   0    2.11    0.44
 -13  13   0    4.61    0.69
  13  13   0    2.24    0.34
 -13 -13   0    2.11    0.44
 -13 -13   0    2.46    0.59
 -13  13   0    4.61    0.69
 -13 -13   0    2.46    0.59
 -13 -13  -1    3.64    0.61
 -13  13   1    4.17    0.70
 -13 -13  -1    3.64    0.61
 -13  13   1    4.17    0.70
  13  13   1    2.33    0.37
 -13 -13   1    2.45    0.51
 -13 -13   1    1.54    0.53
 -13 -13   1    1.54    0.53
 -13 -13   1    2.64    0.62
 -13 -13   1    2.45    0.51
 -13 -13   1    2.64    0.62
  13  13   1    2.33    0.37
   0 -14   0  152.88   13.27
   0  14   0  155.23   13.30
   0 -14   0  164.31   13.31
   0  14   0  155.79   13.31
   0 -14   0  152.88   13.27
   0  14   0  155.79   13.31
   0 -14   0  171.94   13.29
   0  14   0  155.23   13.30
   0 -14   0  164.31   13.31
   0 -14   0  171.94   13.29
   0  14   1  137.59   10.40
   0 -14  -1  108.86   10.44
   0  14  -1  114.37   10.36
   0  14   1  140.41   10.37
   0 -14   1  121.28   10.39
   0  14   1  137.59   10.40
   0 -14   1  125.06   10.42
   0 -14  -1  108.86   10.44
   0 -14   1  125.06   10.42
   0  14   1  140.41   10.37
   0 -14   1  121.28   10.39
   0  14  -1  114.37   10.36
   0 -14  -2  107.18   10.18
   0  14   2  130.28   10.11
   0  14  -2  108.08   10.09
   0  14  -2  108.08   10.09
   0  14   2  139.60   10.18
   0 -14   2  123.34   10.16
   0  14   2  139.60   10.18
   0  14   2  130.28   10.11
   0 -14   2  123.34   10.16
   0 -14  -2  107.18   10.18
   0  14   3   76.18    6.91
   0 -14   3   90.06    6.93
   0 -14   3   79.55    6.92
   0 -14   3   79.55    6.92
   0  14   3   76.18    6.91
   0 -14   3   90.06    6.93
   0 -14   4   80.49    6.71
   0  14   4   78.58    6.59
   0 -14   4   69.77    6.71
   0 -14   4   80.49    6.71
   0  14   4   79.68    6.70
   0 -14   4   83.47    6.59
   0  14   4   78.57    6.59
   0 -14   4   83.47    6.59
   0  14   4   79.68    6.70
   0 -14   4   69.77    6.71
   1 -14   0    7.24    0.69
  -1 -14   0    5.43    0.69
   1 -14   0    7.32    0.62
  -1 -14   0    7.32    0.65
  -1  14   0    6.07    0.60
  -1 -14   0    7.32    0.65
  -1  14   0    6.07    0.60
   1 -14   0    7.24    0.69
   1 -14   0    7.32    0.62
   1  14   0    6.83    0.65
  -1 -14   0    7.78    0.66
  -1 -14   0    7.78    0.66
  -1 -14   0    5.43    0.69
   1 -14   0    6.58    0.63
   1  14   0    6.83    0.65
  -1  14   0    6.15    0.64
  -1  14   0    6.15    0.64
   1 -14   0    6.58    0.63
   1  14  -1    2.14    0.28
   1  14  -1    2.14    0.28
   1 -14   1    1.89    0.27
   1 -14   1    2.16    0.31
  -1 -14  -1    1.74    0.35
   1 -14   1    1.89    0.27
  -1  14   1    1.77    0.30
   1 -14   1    2.16    0.31
  -1  14   1    1.77    0.30
  -1 -14  -1    1.74    0.35
  -1 -14  -1    2.09    0.26
  -1 -14  -1    2.09    0.26
   1  14   1    2.34    0.26
  -1  14  -1    1.88    0.29
   1  14   1    2.34    0.26
  -1 -14   1    2.05    0.30
  -1 -14   1    2.05    0.30
   1 -14  -1    2.23    0.32
   1  14   1    2.72    0.35
   1  14   1    2.72    0.35
  -1  14  -1    1.88    0.29
  -1 -14   1    1.91    0.31
  -1 -14   1    1.91    0.31
   1 -14  -1    2.23    0.32
   1 -14   2    4.85    0.61
   1  14  -2    5.03    0.50
  -1 -14  -2    4.85    0.59
  -1 -14  -2    4.85    0.59
   1 -14   2    4.85    0.61
  -1  14   2    4.87    0.62
   1  14  -2    5.03    0.50
  -1  14   2    4.87    0.62
   1 -14  -2    5.20    0.56
   1  14   2    5.13    0.50
   1 -14  -2    5.20    0.56
   1  14   2    5.77    0.63
  -1  14  -2    4.37    0.48
  -1 -14   2    6.38    0.64
   1  14   2    5.77    0.63
   1  14   2    5.13    0.50
  -1  14  -2    4.37    0.48
  -1 -14   2    6.38    0.64
   1 -14   3    1.61    0.44
  -1  14   3    1.85    0.25
  -1  14   3    1.88    0.39
   1 -14   3    1.02    0.30
   1 -14   3    1.02    0.30
   1 -14   3    2.01    0.25
  -1 -14  -3    1.32    0.29
  -1 -14  -3    1.32    0.29
   1 -14   3    1.61    0.44
  -1  14   3    1.88    0.39
  -1  14   3    1.85    0.25
   1 -14   3    2.01    0.25
  -1 -14   3    1.32    0.30
  -1 -14   3    2.02    0.25
   1  14   3    1.61    0.26
   1  14   3    1.61    0.26
  -1 -14   3    1.23    0.42
   1 -14  -3    1.90    0.30
   1  14   3    1.94    0.43
  -1 -14   3    1.32    0.30
  -1 -14   3    2.02    0.25
  -1 -14   3    1.23    0.42
   1 -14  -3    1.90    0.30
   1  14   3    1.94    0.43
   1 -14   4    4.49    0.70
   1 -14   4    3.58    0.42
  -1  14   4    3.81    0.42
  -1  14   4    3.81    0.42
   1 -14   4    3.70    0.61
   1 -14   4    3.58    0.42
  -1  14   4    4.05    0.64
   1 -14   4    3.70    0.61
  -1  14   4    4.05    0.64
   1 -14   4    4.49    0.70
   1 -14  -4    3.38    0.42
  -1 -14   4    3.97    0.42
   1 -14  -4    3.38    0.42
  -1 -14   4    3.41    0.57
  -1 -14   4    3.41    0.57
  -1 -14   4    3.97    0.42
  -1 -14   4    2.66    0.67
  -1 -14   4    2.66    0.67
   2 -14   0   17.24    1.53
  -2  14   0   17.30    1.45
  -2  14   0   17.30    1.45
   2 -14   0   17.39    1.49
  -2  14   0   16.93    1.49
  -2 -14   0   16.19    1.57
   2 -14   0   17.39    1.49
   2  14   0   17.50    1.50
  -2 -14   0   16.19    1.57
   2  14   0   17.50    1.50
  -2  14   0   16.93    1.49
   2 -14   0   17.24    1.53
   2  14  -1    2.83    0.36
  -2  14   1    3.16    0.32
  -2  14   1    3.16    0.32
   2 -14   1    2.86    0.38
  -2 -14  -1    2.77    0.45
   2 -14   1    2.86    0.38
   2  14  -1    2.83    0.36
   2 -14   1    4.30    0.49
   2 -14   1    4.30    0.49
  -2  14   1    3.75    0.45
  -2  14   1    3.75    0.45
  -2 -14  -1    2.77    0.45
   2 -14  -1    3.86    0.42
  -2 -14   1    3.20    0.39
  -2 -14   1    3.20    0.39
   2 -14  -1    3.86    0.42
   2  14   1    4.12    0.44
  -2  14  -1    3.00    0.38
   2  14   1    4.12    0.44
  -2  14  -1    3.00    0.38
   2 -14   2   16.06    1.45
  -2  14   2   15.75    1.37
   2 -14   2   16.06    1.45
  -2  14   2   15.74    1.37
  -2  14   2   14.94    1.45
  -2  14   2   14.94    1.45
   2  14   2   14.76    1.45
   2  14   2   14.76    1.45
  -2 -14   2   17.23    1.49
  -2 -14   2   13.61    1.43
  -2 -14   2   17.23    1.49
   2 -14  -2   16.97    1.43
  -2 -14   2   13.61    1.43
   2 -14  -2   16.97    1.43
   2 -14   3    2.86    0.48
  -2 -14  -3    1.80    0.38
  -2  14   3    2.83    0.34
  -2 -14  -3    1.80    0.38
   2 -14   3    2.42    0.31
   2 -14   3    2.42    0.31
   2 -14   3    2.86    0.48
   2 -14   3    2.19    0.37
   2 -14   3    2.19    0.37
  -2  14   3    2.83    0.34
  -2 -14   3    2.01    0.38
   2  14   3    2.80    0.32
   2 -14  -3    3.02    0.35
   2 -14  -3    3.02    0.35
  -2 -14   3    3.26    0.38
   2  14   3    2.80    0.32
  -2 -14   3    2.01    0.38
   2  14   3    2.69    0.45
  -2 -14   3    2.81    0.49
  -2 -14   3    3.26    0.38
  -2 -14   3    2.81    0.49
   2  14   3    2.69    0.45
   2 -14   4    9.05    0.97
   2 -14   4    7.97    0.82
   2 -14   4    7.97    0.82
  -2  14   4    8.42    0.81
   2 -14   4    8.58    1.09
  -2  14   4    8.30    1.03
   2 -14   4    8.58    1.09
   2 -14   4    9.05    0.97
  -2  14   4    8.30    1.03
  -2  14   4    8.42    0.81
   2 -14  -4    7.90    0.80
  -2 -14   4    8.25    1.17
   2  14   4   10.28    0.84
   2  14   4    8.48    1.00
  -2 -14   4    9.28    0.81
   2 -14  -4    7.90    0.80
   2  14   4    8.48    1.00
  -2 -14   4    8.25    1.17
   2  14   4   10.28    0.84
  -2 -14   4    9.28    0.81
  -3 -14   0    3.42    0.54
  -3 -14   0    3.32    0.51
  -3 -14   0    3.32    0.51
  -3  14   0    4.59    0.38
   3 -14   0    3.57    0.42
  -3  14   0    4.20    0.46
   3 -14   0    3.57    0.42
  -3 -14   0    3.42    0.54
  -3  14   0    4.20    0.46
  -3 -14   0    4.49    0.45
   3  14   0    4.97    0.51
  -3 -14   0    4.49    0.45
  -3  14   0    4.59    0.38
   3  14   0    4.97    0.51
  -3  14   1    0.09    0.07
  -3 -14  -1    0.08    0.10
   3  14  -1    0.01    0.12
  -3 -14  -1   -0.09    0.17
   3 -14   1    0.09    0.12
  -3  14   1    0.35    0.20
  -3  14   1    0.09    0.07
  -3 -14  -1   -0.09    0.17
  -3 -14  -1    0.08    0.10
   3 -14   1    0.09    0.12
  -3  14   1    0.35    0.20
   3  14  -1    0.01    0.12
   3 -14   1    0.05    0.11
   3 -14   1    0.05    0.11
  -3  14  -1    0.13    0.13
  -3 -14   1   -0.17    0.15
  -3 -14   1   -0.14    0.13
  -3 -14   1   -0.17    0.15
   3 -14  -1   -0.05    0.09
   3  14   1   -0.01    0.09
  -3 -14   1   -0.14    0.13
   3  14   1   -0.01    0.09
  -3  14  -1    0.13    0.13
  -3 -14   1   -0.09    0.12
  -3 -14   1   -0.09    0.12
   3  14   1   -0.03    0.16
   3 -14  -1   -0.05    0.09
   3  14   1   -0.03    0.16
   3 -14   2    3.40    0.46
  -3  14   2    3.26    0.47
   3  14  -2    2.82    0.36
  -3  14   2    3.26    0.47
  -3 -14  -2    2.34    0.47
   3  14  -2    2.82    0.36
  -3 -14  -2    2.34    0.47
   3 -14   2    3.40    0.46
   3  14   2    3.67    0.48
   3 -14  -2    3.80    0.40
  -3 -14   2    2.97    0.43
  -3  14  -2    2.87    0.36
   3  14   2    3.67    0.48
   3 -14  -2    3.80    0.40
  -3  14  -2    2.87    0.36
  -3 -14   2    4.05    0.43
  -3 -14   2    2.97    0.43
   3  14   2    3.75    0.39
  -3 -14   2    4.05    0.43
   3  14   2    3.75    0.39
   3 -14   3    0.11    0.17
   3 -14   3    0.08    0.32
   3 -14   3    0.08    0.32
  -3  14   3   -0.10    0.29
  -3 -14  -3    0.15    0.19
   3 -14   3    0.11    0.17
  -3 -14  -3    0.15    0.19
   3 -14   3   -0.03    0.10
   3 -14   3   -0.03    0.10
  -3  14   3   -0.10    0.29
   3 -14  -3   -0.08    0.10
  -3 -14   3   -0.05    0.18
  -3 -14   3    0.17    0.37
  -3 -14   3    0.17    0.37
   3  14   3   -0.02    0.24
   3  14   3    0.00    0.12
   3 -14  -3   -0.08    0.10
  -3 -14   3   -0.05    0.18
   3  14   3   -0.02    0.24
   3  14   3    0.00    0.12
  -3  14   4    2.54    0.32
  -3  14   4    2.20    0.50
  -3  14   4    2.20    0.50
  -3  14   4    2.54    0.32
   3 -14   4    1.87    0.53
   3 -14   4    1.81    0.40
   3 -14   4    1.86    0.32
   3 -14   4    1.86    0.32
   3 -14   4    1.81    0.40
   3 -14   4    1.87    0.53
   3  14   4    1.76    0.43
   3  14   4    1.76    0.43
  -3 -14   4    1.60    0.37
  -3 -14   4    1.83    0.63
   3  14   4    1.94    0.32
  -3 -14   4    1.95    0.29
  -3 -14   4    1.83    0.63
   3 -14  -4    1.78    0.27
   3  14   4    1.94    0.32
   3 -14  -4    1.78    0.27
  -3 -14   4    1.60    0.37
  -3 -14   4    1.95    0.29
   4 -14   0   52.31    3.94
  -4 -14   0   41.14    3.92
  -4 -14   0   52.92    3.96
   4 -14   0   52.31    3.94
  -4 -14   0   41.14    3.92
   4  14   0   42.41    3.93
  -4  14   0   44.67    3.93
  -4 -14   0   52.92    3.96
  -4  14   0   44.67    3.93
   4  14   0   42.41    3.93
  -4 -14  -1   51.78    4.50
  -4  14   1   54.60    4.48
  -4 -14  -1   51.78    4.50
  -4  14   1   54.60    4.48
  -4  14   1   57.49    4.56
  -4  14   1   57.49    4.56
   4  14   1   52.79    4.53
  -4  14  -1   55.25    4.50
  -4 -14   1   52.46    4.51
   4  14   1   52.79    4.53
  -4 -14   1   52.46    4.51
  -4  14  -1   55.25    4.50
   4  14   1   51.98    4.54
   4  14   1   51.98    4.54
  -4  14   2   36.43    3.40
   4 -14   2   40.47    3.39
   4 -14   2   40.47    3.39
  -4  14   2   36.43    3.40
  -4  14   2   39.92    3.31
  -4  14   2   39.92    3.31
  -4 -14   2   37.20    3.39
   4 -14  -2   40.85    3.36
  -4 -14   2   37.20    3.39
   4  14   2   40.15    3.39
   4  14   2   40.85    3.35
   4 -14  -2   40.85    3.36
   4  14   2   40.85    3.35
   4  14   2   40.15    3.39
  -4  14   3   36.70    3.12
  -4  14   3   36.70    3.12
  -4  14   3   35.31    3.23
   4 -14   3   36.37    3.21
   4 -14   3   38.14    3.15
   4 -14   3   38.14    3.15
   4 -14   3   42.33    3.25
   4 -14   3   42.33    3.25
   4 -14   3   36.37    3.21
  -4  14   3   35.31    3.23
  -4 -14   3   41.64    3.25
   4  14   3   38.12    3.15
   4 -14  -3   35.96    3.13
   4  14   3   31.86    3.20
  -4 -14   3   41.64    3.25
   4  14   3   38.13    3.15
  -4 -14   3   32.85    3.22
  -4 -14   3   32.85    3.22
   4 -14  -3   35.96    3.13
   4  14   3   31.86    3.20
   5  14   0   43.37    3.48
  -5 -14   0   45.48    3.51
  -5 -14   0   45.48    3.51
  -5 -14   0   34.82    3.48
   5 -14   0   44.23    3.49
   5 -14   0   44.23    3.49
  -5  14   0   37.19    3.47
  -5 -14   0   34.82    3.48
   5  14   0   43.37    3.48
  -5  14   0   37.19    3.47
  -5 -14  -1   20.68    1.77
  -5 -14  -1   20.68    1.77
   5  14  -1   22.67    1.80
  -5  14   1   22.21    1.75
   5  14  -1   22.67    1.80
  -5  14   1   20.55    1.86
  -5  14   1   22.21    1.75
  -5  14   1   20.55    1.86
  -5  14  -1   21.52    1.78
  -5 -14   1   17.07    1.87
  -5  14  -1   21.52    1.78
   5  14   1   19.49    1.80
   5  14   1   19.49    1.80
  -5 -14   1   17.07    1.87
  -5  14   2   35.82    2.90
  -5  14   2   35.82    2.90
   5 -14   2   30.98    2.97
   5 -14   2   30.98    2.97
  -5 -14   2   34.22    3.01
  -5 -14   2   34.22    3.01
   5  14   2   32.93    2.98
   5 -14  -2   37.26    2.95
   5 -14  -2   37.26    2.95
   5  14   2   32.93    2.98
  -5  14   3   17.51    1.52
   5 -14   3   16.05    1.64
  -5  14   3   17.51    1.52
   5 -14   3   18.32    1.61
  -5  14   3   20.49    1.69
  -5  14   3   20.49    1.69
   5 -14   3   16.92    1.55
   5 -14   3   18.32    1.61
   5 -14   3   16.05    1.64
   5 -14   3   16.92    1.55
   5  14   3   16.99    1.54
  -5 -14   3   18.60    1.65
  -5 -14   3   19.88    1.57
  -5 -14   3   14.17    1.67
   5  14   3   14.00    1.61
   5 -14  -3   17.85    1.53
  -5 -14   3   18.60    1.65
   5  14   3   16.99    1.54
  -5 -14   3   19.88    1.57
   5  14   3   14.00    1.61
   5 -14  -3   17.85    1.53
  -5 -14   3   14.17    1.67
  -6 -14   0   19.39    1.78
   6 -14   0   21.35    1.75
   6  14   0   20.61    1.74
  -6  14   0   17.72    1.76
   6 -14   0   21.35    1.75
  -6 -14   0   19.39    1.78
   6  14   0   20.61    1.74
  -6  14   0   17.72    1.76
   6  14  -1   81.97    7.00
   6  14  -1   81.97    7.00
  -6  14   1   81.32    7.06
  -6 -14  -1   88.97    6.99
  -6  14   1   81.32    7.06
  -6 -14  -1   88.97    6.99
  -6  14   1   89.17    6.97
  -6  14   1   89.17    6.97
  -6 -14   1   85.91    7.05
  -6  14  -1   85.89    7.00
  -6 -14   1   72.49    7.15
  -6 -14   1   85.91    7.05
  -6 -14   1   72.49    7.15
  -6  14  -1   85.89    7.00
   6 -14   2   19.71    1.63
   6  14  -2   16.39    1.59
   6 -14   2   16.63    1.66
  -6  14   2   21.82    1.74
   6 -14   2   16.63    1.66
   6 -14   2   17.85    1.67
   6  14  -2   16.39    1.59
   6 -14   2   19.71    1.63
   6 -14   2   17.85    1.67
  -6  14   2   21.82    1.74
  -6  14   2   18.65    1.58
  -6  14   2   18.65    1.58
   6  14   2   15.95    1.66
  -6 -14   2   21.01    1.57
   6 -14  -2   18.28    1.61
  -6 -14   2   21.01    1.57
  -6 -14   2   17.76    1.71
  -6 -14   2   17.76    1.71
   6  14   2   15.95    1.66
   6 -14  -2   18.28    1.61
  -6  14   3   73.20    5.72
   6 -14   3   65.87    5.80
  -6  14   3   66.97    5.82
  -6  14   3   66.97    5.82
   6 -14   3   63.01    5.74
  -6  14   3   73.20    5.72
   6 -14   3   63.01    5.74
   6 -14   3   69.65    5.80
   6 -14   3   69.65    5.80
   6 -14   3   65.87    5.80
  -6 -14   3   76.74    5.86
   6  14   3   74.72    5.75
   6 -14  -3   61.60    5.71
  -6 -14   3   76.74    5.86
   6  14   3   62.35    5.79
   6  14   3   74.73    5.75
   6  14   3   62.35    5.79
   6 -14  -3   61.60    5.71
  -7 -14   0    5.15    0.66
  -7  14   0    4.59    0.65
   7  14   0    5.44    0.55
  -7  14   0    4.59    0.65
   7 -14   0    4.79    0.52
  -7 -14   0    5.15    0.66
   7  14   0    5.44    0.55
   7 -14   0    4.79    0.52
  -7 -14  -1    0.21    0.23
  -7 -14  -1    0.37    0.14
  -7 -14  -1    0.37    0.14
   7  14  -1    0.32    0.15
  -7  14   1    0.06    0.30
  -7 -14  -1    0.21    0.23
   7  14  -1    0.32    0.15
  -7  14   1    0.06    0.30
   7  14   1    0.20    0.20
   7  14   1    0.20    0.20
  -7 -14   1    0.55    0.33
   7 -14  -1    0.46    0.15
  -7 -14   1    0.55    0.33
  -7  14  -1    0.08    0.26
  -7  14  -1    0.08    0.26
   7 -14  -1    0.46    0.15
  -7  14   2    3.81    0.42
   7 -14   2    4.42    0.57
   7  14  -2    3.62    0.43
   7  14  -2    3.62    0.43
  -7  14   2    3.81    0.42
   7 -14   2    4.42    0.57
   7 -14   2    3.57    0.45
  -7 -14  -2    2.61    0.56
   7 -14   2    3.57    0.45
  -7 -14  -2    2.61    0.56
   7 -14   2    3.93    0.44
   7 -14   2    3.93    0.44
   7 -14  -2    3.74    0.41
  -7 -14   2    3.77    0.58
   7  14   2    3.05    0.48
   7  14   2    3.05    0.48
   7  14   2    3.17    0.43
  -7 -14   2    4.17    0.46
  -7 -14   2    4.17    0.46
  -7 -14   2    3.77    0.58
   7 -14  -2    3.74    0.41
  -7 -14   2    3.93    0.56
  -7 -14   2    3.93    0.56
   7  14   2    3.17    0.43
   7 -14   3    0.38    0.35
   7 -14   3    0.15    0.16
  -7 -14  -3    0.26    0.30
   7 -14   3    0.19    0.19
  -7  14   3    0.21    0.17
  -7  14   3    0.21    0.17
  -7  14   3    0.19    0.37
  -7  14   3    0.19    0.37
  -7 -14  -3    0.26    0.30
   7 -14   3    0.38    0.35
   7 -14   3    0.19    0.19
   7 -14   3    0.15    0.16
   7 -14  -3    0.27    0.13
   7  14   3    0.12    0.16
  -7 -14   3    0.16    0.21
  -7 -14   3   -0.09    0.27
   7  14   3    0.17    0.29
  -7 -14   3    0.16    0.21
   7  14   3    0.12    0.16
  -7 -14   3   -0.09    0.27
  -7 -14   3   -0.25    0.45
  -7 -14   3   -0.25    0.45
   7 -14  -3    0.27    0.13
   7  14   3    0.17    0.29
   8 -14   0    2.78    0.37
  -8 -14   0    3.46    0.49
  -8  14   0    3.37    0.55
   8  14   0    3.19    0.41
  -8 -14   0    1.91    0.52
  -8  14   0    3.37    0.55
  -8 -14   0    1.91    0.52
   8 -14   0    2.78    0.37
  -8 -14   0    3.46    0.49
   8  14   0    3.19    0.41
  -8 -14  -1    0.20    0.28
   8 -14   1    0.86    0.21
   8  14  -1    0.73    0.18
   8  14  -1    0.73    0.18
  -8 -14  -1    0.20    0.28
  -8 -14  -1    0.76    0.34
  -8 -14  -1    0.65    0.17
  -8 -14  -1    0.76    0.34
  -8  14   1    0.50    0.35
  -8 -14  -1    0.65    0.17
   8 -14   1    0.86    0.21
  -8  14   1    0.50    0.35
  -8 -14   1    0.47    0.36
   8 -14  -1    0.79    0.18
   8  14   1    0.83    0.27
   8 -14  -1    0.79    0.18
  -8  14  -1    0.98    0.38
   8  14   1    0.83    0.27
  -8 -14   1    0.47    0.36
  -8  14  -1    0.98    0.38
  -8 -14   1    0.51    0.49
  -8 -14   1    0.51    0.49
   8 -14   2    2.58    0.42
   8  14  -2    3.20    0.37
  -8  14   2    3.46    0.57
   8 -14   2    2.58    0.42
   8  14  -2    3.20    0.37
   8 -14   2    2.13    0.38
  -8  14   2    3.46    0.57
  -8  14   2    2.33    0.38
  -8  14   2    2.33    0.38
   8 -14   2    2.13    0.38
   8 -14   2    2.30    0.36
   8 -14   2    2.30    0.36
   8  14   2    3.25    0.40
   8 -14  -2    2.65    0.34
   8  14   2    2.40    0.42
   8  14   2    2.40    0.42
  -8 -14   2    2.59    0.52
   8 -14  -2    2.65    0.34
   8  14   2    3.25    0.40
  -8 -14   2    2.43    0.44
  -8 -14   2    2.59    0.52
  -8 -14   2    3.34    0.46
  -8 -14   2    2.43    0.44
  -8 -14   2    3.34    0.46
  -8 -14  -3    0.76    0.34
   8 -14   3    0.38    0.21
   8 -14   3    0.80    0.27
  -8 -14  -3    0.76    0.34
  -8  14   3    1.36    0.44
  -8  14   3    1.36    0.44
   8 -14   3    0.80    0.27
   8 -14   3    0.38    0.21
   8 -14   3    0.98    0.39
  -8  14   3    0.66    0.25
   8 -14   3    0.98    0.39
  -8  14   3    0.66    0.25
   8  14   3    0.57    0.20
   8  14   3    0.66    0.32
   8 -14  -3    0.56    0.17
   8 -14  -3    0.56    0.17
  -8 -14   3    0.56    0.32
  -8 -14   3    0.82    0.27
  -8 -14   3    0.82    0.27
   8  14   3    0.57    0.20
   8  14   3    0.66    0.32
  -8 -14   3    0.56    0.32
  -9  14   0   -0.11    0.44
  -9 -14   0   -0.08    0.22
  -9 -14   0   -0.14    0.29
  -9 -14   0    0.19    0.35
   9  14   0    0.28    0.17
   9  14   0    0.28    0.17
   9 -14   0    0.00    0.13
  -9 -14   0   -0.14    0.29
  -9 -14   0    0.19    0.35
  -9  14   0   -0.11    0.44
  -9 -14   0   -0.08    0.22
   9 -14   0    0.00    0.13
  -9 -14  -1    0.05    0.31
   9  14  -1    0.03    0.15
   9  14  -1    0.03    0.15
  -9 -14  -1    0.05    0.31
  -9 -14  -1    0.24    0.16
   9 -14   1    0.18    0.14
  -9 -14  -1    0.40    0.29
  -9 -14  -1    0.24    0.16
   9 -14   1    0.18    0.14
  -9 -14  -1    0.40    0.29
  -9 -14   1    0.21    0.30
   9 -14  -1    0.34    0.15
  -9 -14   1    0.62    0.37
   9 -14  -1    0.34    0.15
   9  14   1    0.23    0.21
  -9 -14   1    0.21    0.30
  -9 -14   1    0.62    0.37
   9  14   1    0.23    0.21
  -9  14   2   -0.21    0.40
   9 -14   2   -0.03    0.14
  -9  14   2   -0.21    0.40
   9 -14   2   -0.03    0.14
  -9 -14  -2    0.32    0.33
  -9  14   2    0.01    0.30
  -9  14   2    0.01    0.30
  -9 -14  -2    0.32    0.33
   9 -14  -2    0.03    0.12
   9  14   2   -0.10    0.15
   9  14   2   -0.11    0.21
  -9 -14   2    0.05    0.24
   9  14   2   -0.11    0.21
  -9 -14   2   -0.08    0.26
  -9 -14   2   -0.08    0.26
   9 -14  -2    0.03    0.12
  -9 -14   2    0.02    0.30
   9  14   2   -0.10    0.15
  -9 -14   2    0.05    0.24
  -9 -14   2    0.02    0.30
 -10 -14   0   67.32    5.70
 -10 -14   0   66.78    5.77
 -10 -14   0   67.32    5.70
 -10 -14   0   66.78    5.77
  10  14   0   58.26    5.68
  10 -14   0   77.75    5.74
  10  14   0   58.26    5.68
  10 -14   0   77.75    5.74
  10 -14   1   19.59    1.73
 -10 -14  -1   22.37    1.82
  10  14  -1   17.54    1.68
 -10 -14  -1   22.37    1.82
  10 -14   1   19.59    1.73
  10  14  -1   17.54    1.68
 -10 -14   1   18.98    1.83
 -10 -14   1   17.01    1.97
  10  14   1   18.04    1.71
  10 -14  -1   21.03    1.72
 -10 -14   1   17.01    1.97
 -10 -14   1   18.39    1.90
  10  14   1   18.04    1.71
 -10 -14   1   18.98    1.83
 -10 -14   1   18.39    1.90
  10 -14  -1   21.03    1.72
  10 -14   2   54.35    5.29
  10 -14   2   54.35    5.29
  10  14   2   57.51    5.30
  10  14   2   57.51    5.30
  10  14   2   69.23    5.31
 -10 -14   2   67.28    5.38
 -10 -14   2   67.28    5.38
 -10 -14   2   72.59    5.29
 -10 -14   2   59.40    5.44
 -10 -14   2   72.59    5.29
  10 -14  -2   57.42    5.26
  10  14   2   69.23    5.31
 -10 -14   2   59.40    5.44
  10 -14  -2   57.42    5.26
  11 -14   0   26.39    2.25
  11  14   0   23.48    2.20
  11  14   0   23.48    2.20
 -11  14   0   28.67    2.42
 -11  14   0   28.67    2.42
  11 -14   0   26.39    2.25
 -11 -14   0   24.56    2.22
 -11 -14   0   24.89    2.34
 -11 -14   0   24.89    2.34
 -11 -14   0   24.56    2.22
  11  14  -1    4.91    0.59
 -11 -14  -1    6.07    0.85
  11 -14   1    6.48    0.66
 -11 -14  -1    6.07    0.85
 -11  14   1    7.45    0.93
  11 -14   1    6.48    0.66
  11  14  -1    4.91    0.59
 -11  14   1    7.45    0.93
 -11 -14   1    4.68    0.86
  11 -14  -1    5.51    0.62
  11 -14  -1    5.51    0.62
  11  14   1    5.76    0.64
 -11 -14   1    5.36    0.78
 -11 -14   1    5.80    0.76
 -11 -14   1    4.68    0.86
  11  14   1    5.76    0.64
 -11 -14   1    5.80    0.76
 -11 -14   1    5.36    0.78
  11 -14   2   17.95    1.88
  11 -14   2   17.95    1.88
 -11 -14   2   23.26    1.91
 -11 -14   2   21.80    1.99
  11 -14  -2   19.77    1.85
  11  14   2   23.07    1.90
  11  14   2   20.86    1.90
  11  14   2   20.86    1.90
 -11 -14   2   21.40    2.11
 -11 -14   2   23.26    1.91
  11 -14  -2   19.77    1.85
 -11 -14   2   21.80    1.99
 -11 -14   2   21.40    2.11
  11  14   2   23.07    1.90
 -12  14   0   17.09    1.59
 -12 -14   0   12.28    1.40
 -12 -14   0   13.20    1.26
  12 -14   0   12.91    1.25
  12 -14   0   12.91    1.25
  12  14   0   12.35    1.20
 -12 -14   0   12.28    1.40
 -12 -14   0   13.20    1.26
 -12  14   0   17.09    1.59
  12  14   0   12.35    1.20
  12 -14   1   27.56    2.43
  12 -14   1   27.56    2.43
  12 -14  -1   27.03    2.41
 -12 -14   1   27.67    2.53
  12  14   1   27.61    2.39
 -12 -14   1   26.99    2.49
 -12 -14   1   27.67    2.53
  12 -14  -1   27.03    2.41
 -12 -14   1   26.99    2.49
  12  14   1   27.61    2.39
   0 -15   0    0.09    0.17
   0 -15   0    0.08    0.13
   0  15   0    0.16    0.10
   0 -15   0    0.09    0.17
   0  15   0    0.50    0.20
   0 -15   0    0.08    0.13
   0  15   0    0.16    0.10
   0  15   0    0.50    0.20
   0  15  -1   -0.08    0.15
   0  15   1   -0.05    0.19
   0 -15   1    0.11    0.10
   0  15  -1   -0.08    0.15
   0  15   1    0.07    0.11
   0 -15  -1    0.13    0.16
   0  15   1   -0.05    0.19
   0 -15  -1    0.13    0.16
   0  15   1    0.07    0.11
   0 -15   1    0.11    0.10
   0 -15   2   -0.02    0.15
   0 -15   2    0.24    0.27
   0 -15  -2   -0.02    0.15
   0  15  -2    0.09    0.15
   0  15   2    0.21    0.23
   0 -15   2   -0.02    0.15
   0  15  -2    0.09    0.15
   0 -15  -2   -0.02    0.15
   0 -15   2    0.24    0.27
   0  15   2    0.21    0.23
   0 -15   3    0.00    0.09
   0  15   3   -0.02    0.30
   0  15   3   -0.02    0.30
   0 -15   3    0.50    0.38
   0 -15   3    0.00    0.19
   0 -15  -3   -0.17    0.15
   0 -15   3    0.00    0.09
   0 -15   3    0.50    0.38
   0  15   3    0.01    0.11
   0 -15   3    0.00    0.19
   0  15   3    0.01    0.11
   0 -15  -3   -0.17    0.15
   1 -15   0    5.74    0.62
  -1  15   0    5.39    0.57
  -1 -15   0    5.68    0.57
   1  15   0    4.63    0.52
   1  15   0    6.16    0.64
  -1 -15   0    5.30    0.61
  -1 -15   0    5.30    0.61
   1  15   0    6.16    0.64
  -1  15   0    5.39    0.57
   1  15   0    4.63    0.52
  -1 -15   0    5.68    0.57
  -1  15   0    5.37    0.50
  -1  15   0    5.37    0.50
   1 -15   0    5.74    0.62
  -1  15   1    0.08    0.19
   1  15  -1    0.15    0.15
  -1  15   1    0.14    0.09
  -1 -15  -1    0.55    0.20
  -1  15   1    0.14    0.09
  -1  15   1    0.08    0.19
   1  15  -1    0.15    0.15
  -1 -15  -1    0.55    0.20
   1  15   1    0.16    0.21
   1 -15  -1    0.46    0.17
  -1 -15   1    0.01    0.12
   1 -15  -1    0.46    0.17
  -1  15  -1    0.18    0.17
   1  15   1    0.16    0.21
  -1  15  -1    0.18    0.17
  -1 -15   1    0.01    0.12
  -1  15   2    4.79    0.59
   1  15  -2    3.87    0.43
  -1 -15  -2    3.62    0.52
   1 -15   2    3.63    0.48
  -1 -15  -2    3.62    0.52
   1 -15   2    3.63    0.48
  -1  15   2    4.79    0.59
   1 -15   2    4.74    0.55
   1 -15   2    4.74    0.55
   1  15  -2    3.87    0.43
   1 -15  -2    4.35    0.50
  -1 -15   2    4.52    0.50
   1  15   2    3.76    0.58
  -1 -15   2    4.52    0.50
   1  15   2    3.76    0.58
  -1  15  -2    3.20    0.43
  -1 -15   2    4.70    0.62
  -1 -15   2    4.70    0.62
  -1  15  -2    3.20    0.43
   1 -15  -2    4.35    0.50
   1 -15   3    0.21    0.20
   1 -15   3    0.21    0.20
  -1  15   3   -0.13    0.26
  -1 -15  -3    0.07    0.18
   1 -15   3    0.49    0.37
  -1 -15  -3    0.07    0.18
   1 -15   3    0.11    0.11
  -1  15   3   -0.13    0.26
   1 -15   3    0.49    0.37
   1 -15   3    0.11    0.11
  -1 -15   3    0.02    0.11
  -1 -15   3    0.42    0.39
  -1 -15   3    0.06    0.19
   1  15   3    0.22    0.36
  -1 -15   3    0.42    0.39
   1  15   3    0.12    0.12
   1  15   3    0.12    0.12
  -1 -15   3    0.06    0.19
   1 -15  -3    0.19    0.18
   1  15   3    0.22    0.36
  -1 -15   3    0.02    0.11
   1 -15  -3    0.19    0.18
  -2  15   0   33.12    3.09
   2 -15   0   34.65    3.08
  -2  15   0   36.02    3.05
  -2  15   0   33.12    3.09
  -2 -15   0   36.93    3.18
   2 -15   0   34.65    3.08
   2  15   0   36.78    3.10
  -2 -15   0   41.43    3.12
  -2  15   0   36.02    3.05
  -2 -15   0   36.93    3.18
   2  15   0   36.78    3.10
  -2 -15   0   41.43    3.12
  -2  15   1   78.47    5.85
  -2 -15  -1   63.25    5.90
  -2 -15  -1   64.63    5.80
  -2 -15  -1   64.63    5.80
   2  15  -1   62.73    5.80
  -2  15   1   72.83    5.79
  -2  15   1   78.47    5.85
   2  15  -1   62.73    5.80
  -2 -15  -1   63.25    5.90
  -2  15   1   72.83    5.79
   2  15   1   74.21    5.85
  -2  15  -1   73.36    5.80
   2  15   1   74.21    5.85
   2 -15  -1   71.77    5.88
   2 -15  -1   71.77    5.88
   2  15   1   65.12    5.81
  -2 -15   1   75.31    5.85
  -2  15  -1   73.36    5.80
  -2 -15   1   75.31    5.85
  -2  15  -1   62.81    5.77
   2  15   1   65.12    5.81
  -2  15  -1   62.80    5.77
   2 -15   2   31.14    2.50
  -2 -15  -2   28.41    2.54
   2 -15   2   31.70    2.51
   2 -15   2   31.70    2.51
  -2  15   2   28.43    2.51
  -2  15   2   28.43    2.51
  -2 -15  -2   28.41    2.54
   2  15  -2   25.67    2.42
   2  15  -2   25.67    2.42
   2 -15   2   31.14    2.50
  -2  15  -2   26.67    2.41
  -2 -15   2   33.61    2.53
  -2 -15   2   25.88    2.49
  -2  15  -2   26.67    2.41
   2  15   2   26.57    2.49
   2  15   2   26.57    2.49
  -2 -15   2   25.88    2.49
  -2 -15   2   33.61    2.53
   2 -15   3   57.63    4.62
   2 -15   3   54.87    4.71
   2 -15   3   56.60    4.70
  -2  15   3   52.94    4.70
   2 -15   3   56.60    4.70
  -2  15   3   52.94    4.70
   2 -15   3   57.63    4.62
   2 -15   3   54.87    4.71
   2  15   3   58.43    4.62
  -2 -15   3   48.68    4.70
  -2 -15   3   48.68    4.70
  -2 -15   3   62.86    4.63
  -2 -15   3   52.75    4.70
   2 -15  -3   55.39    4.64
   2  15   3   58.43    4.62
   2  15   3   44.68    4.67
  -2 -15   3   62.86    4.63
   2 -15  -3   55.39    4.64
   2  15   3   44.68    4.67
  -2 -15   3   52.75    4.70
   3 -15   0   36.17    3.28
   3  15   0   39.55    3.30
  -3  15   0   40.31    3.24
   3 -15   0   36.17    3.28
  -3  15   0   39.03    3.29
   3  15   0   39.55    3.30
  -3  15   0   40.31    3.24
  -3  15   0   39.03    3.29
   3  15  -1   20.16    2.19
  -3  15   1   28.28    2.17
   3 -15   1   28.89    2.15
  -3  15   1   25.90    2.08
  -3 -15  -1   21.34    2.09
   3  15  -1   20.16    2.19
  -3  15   1   25.90    2.08
  -3 -15  -1   21.34    2.09
   3 -15   1   28.89    2.15
  -3  15   1   28.28    2.17
   3  15   1   26.23    2.16
   3  15   1   22.35    2.12
   3  15   1   26.23    2.16
  -3  15  -1   24.17    2.11
  -3 -15   1   24.74    2.15
  -3 -15   1   24.74    2.15
  -3  15  -1   24.17    2.11
   3  15   1   22.35    2.12
  -3  15   2   36.01    2.79
  -3  15   2   32.90    2.67
   3 -15   2   30.59    2.74
   3 -15   2   31.42    2.75
   3 -15   2   30.59    2.74
   3  15  -2   27.20    2.67
   3  15  -2   27.20    2.67
  -3  15   2   32.90    2.67
   3 -15   2   31.42    2.75
  -3  15   2   36.01    2.79
   3  15   2   31.45    2.70
   3  15   2   29.98    2.74
   3  15   2   31.45    2.70
  -3 -15   2   34.03    2.75
  -3 -15   2   34.03    2.75
   3  15   2   29.98    2.74
   3 -15   3   21.95    1.73
   3 -15   3   20.30    1.78
   3 -15   3   18.93    1.63
  -3  15   3   18.50    1.76
   3 -15   3   18.93    1.63
   3 -15   3   21.95    1.73
  -3  15   3   18.50    1.76
  -3  15   3   16.47    1.61
  -3  15   3   16.47    1.61
   3 -15   3   20.30    1.78
   3 -15  -3   17.41    1.63
  -3 -15   3   17.57    1.79
   3  15   3   19.54    1.63
   3  15   3   16.32    1.72
  -3 -15   3   20.09    1.75
  -3 -15   3   20.09    1.75
   3  15   3   16.32    1.72
   3 -15  -3   17.41    1.63
   3  15   3   19.54    1.63
  -3 -15   3   17.57    1.79
  -4  15   0    8.32    0.83
  -4 -15   0    7.87    0.90
   4  15   0    8.51    0.83
  -4  15   0    8.32    0.83
   4  15   0    8.51    0.83
  -4 -15   0    9.76    0.88
  -4 -15   0    7.87    0.90
  -4 -15   0    9.76    0.88
   4 -15   1   78.22    6.40
  -4 -15  -1   70.85    6.36
  -4 -15  -1   70.85    6.36
   4  15  -1   65.23    6.37
   4 -15   1   78.22    6.40
  -4  15   1   77.19    6.34
  -4  15   1   77.18    6.34
   4  15  -1   65.23    6.37
   4 -15  -1   83.18    6.43
  -4 -15   1   73.31    6.36
   4  15   1   86.82    6.42
  -4 -15   1   73.31    6.36
   4  15   1   86.82    6.42
  -4  15  -1   75.35    6.36
   4 -15  -1   83.18    6.43
  -4  15  -1   75.35    6.36
   4 -15   2    8.07    0.86
   4  15  -2    6.50    0.72
  -4  15   2    8.60    0.90
   4 -15   2    8.03    0.79
   4 -15   2    8.03    0.79
   4  15  -2    6.50    0.72
   4 -15   2    8.07    0.86
  -4  15   2    8.60    0.90
   4  15   2    7.17    0.74
  -4 -15   2    9.03    0.82
  -4 -15   2    9.03    0.82
   4  15   2    7.17    0.74
   4  15   2    7.57    0.83
   4  15   2    7.57    0.83
   4 -15   3   50.69    4.52
  -4  15   3   52.34    4.44
   4 -15   3   51.94    4.46
  -4  15   3   54.39    4.56
  -4  15   3   54.39    4.56
   4 -15   3   52.00    4.54
   4 -15   3   51.94    4.46
   4 -15   3   50.69    4.52
  -4  15   3   52.34    4.44
   4 -15   3   52.00    4.54
   4  15   3   55.34    4.46
   4  15   3   44.55    4.51
  -4 -15   3   59.96    4.58
  -4 -15   3   59.96    4.58
   4 -15  -3   53.58    4.45
   4  15   3   44.55    4.51
   4 -15  -3   53.58    4.45
   4  15   3   55.30    4.46
   5  15   0    1.07    0.24
  -5 -15   0    1.32    0.33
  -5  15   0    1.12    0.28
   5  15   0    1.07    0.24
  -5  15   0    1.12    0.28
  -5 -15   0    1.32    0.33
   5 -15   0    1.25    0.22
   5 -15   0    1.25    0.22
   5  15  -1    0.58    0.19
  -5  15   1    0.66    0.12
  -5 -15  -1    0.39    0.14
  -5 -15  -1    0.32    0.22
   5 -15   1    0.32    0.14
   5  15  -1    0.58    0.19
  -5 -15  -1    0.32    0.22
  -5  15   1    0.52    0.28
  -5  15   1    0.66    0.12
   5 -15   1    0.32    0.14
  -5 -15  -1    0.39    0.14
  -5  15   1    0.52    0.28
  -5 -15   1    0.55    0.36
   5  15   1    0.30    0.21
   5  15   1    0.30    0.21
  -5 -15   1    0.66    0.29
  -5 -15   1    0.55    0.36
  -5 -15   1    0.66    0.29
  -5  15  -1    0.35    0.21
   5 -15  -1    0.38    0.14
   5 -15  -1    0.38    0.14
   5  15   1    0.20    0.15
  -5  15  -1    0.35    0.21
   5  15   1    0.20    0.15
   5 -15   2    0.61    0.30
  -5  15   2    1.05    0.18
  -5 -15  -2    0.68    0.28
   5  15  -2    0.72    0.20
   5  15  -2    0.72    0.20
   5 -15   2    0.95    0.20
   5 -15   2    0.65    0.19
   5 -15   2    0.65    0.19
  -5  15   2    0.47    0.33
  -5  15   2    1.05    0.18
  -5  15   2    0.47    0.33
   5 -15   2    0.61    0.30
   5 -15   2    0.95    0.20
  -5 -15  -2    0.68    0.28
   5  15   2    0.85    0.20
   5  15   2    0.73    0.29
   5 -15  -2    0.84    0.18
   5  15   2    0.73    0.29
   5  15   2    0.85    0.20
  -5 -15   2    0.83    0.26
  -5 -15   2    0.83    0.26
  -5 -15   2    0.61    0.30
   5 -15  -2    0.84    0.18
  -5 -15   2    0.61    0.30
   5 -15   3    0.55    0.39
   5 -15   3    0.42    0.16
  -5 -15  -3    0.06    0.26
  -5  15   3    0.51    0.38
   5 -15   3    0.42    0.16
  -5 -15  -3    0.06    0.26
   5 -15   3    0.32    0.23
   5 -15   3    0.55    0.39
   5 -15   3    0.32    0.23
  -5  15   3    0.51    0.38
   5  15   3    0.18    0.30
   5  15   3    0.31    0.16
  -5 -15   3    0.95    0.47
  -5 -15   3    0.52    0.20
  -5 -15   3    0.44    0.25
  -5 -15   3    0.52    0.20
   5 -15  -3    0.19    0.12
   5  15   3    0.18    0.30
  -5 -15   3    0.95    0.47
   5 -15  -3    0.19    0.12
   5  15   3    0.31    0.16
  -5 -15   3    0.44    0.25
  -6  15   0   -0.25    0.24
   6 -15   0    0.01    0.09
   6  15   0   -0.18    0.16
   6 -15   0    0.01    0.09
   6  15   0   -0.18    0.16
  -6 -15   0    0.38    0.29
  -6 -15   0    0.38    0.29
  -6  15   0   -0.25    0.24
   6 -15   1    1.85    0.28
   6  15  -1    2.06    0.29
  -6  15   1    1.93    0.40
  -6  15   1    1.68    0.23
  -6 -15  -1    1.20    0.38
   6 -15   1    1.85    0.28
   6  15  -1    2.06    0.29
  -6 -15  -1    1.20    0.38
   6 -15   1    1.87    0.30
  -6 -15  -1    1.69    0.28
  -6 -15  -1    1.69    0.28
   6 -15   1    1.87    0.30
  -6  15   1    1.93    0.40
  -6  15   1    1.68    0.23
  -6 -15   1    1.61    0.39
   6 -15  -1    2.43    0.28
  -6 -15   1    1.56    0.39
  -6 -15   1    1.56    0.39
  -6  15  -1    1.80    0.30
   6  15   1    1.66    0.28
   6  15   1    1.52    0.31
  -6  15  -1    1.80    0.30
   6  15   1    1.66    0.28
  -6 -15   1    1.61    0.39
   6  15   1    1.52    0.31
   6 -15  -1    2.43    0.28
  -6 -15  -2    0.15    0.27
  -6 -15  -2    0.15    0.27
   6 -15   2    0.24    0.12
   6 -15   2   -0.04    0.27
   6 -15   2    0.24    0.12
  -6  15   2   -0.22    0.32
   6 -15   2   -0.04    0.27
   6  15  -2    0.17    0.17
   6  15  -2    0.17    0.17
   6 -15   2   -0.22    0.15
  -6  15   2    0.15    0.14
  -6  15   2   -0.22    0.32
   6 -15   2   -0.22    0.15
  -6  15   2    0.16    0.14
  -6 -15   2    0.07    0.23
  -6 -15   2   -0.15    0.17
  -6 -15   2    0.07    0.23
   6  15   2   -0.06    0.14
   6  15   2   -0.06    0.14
   6  15   2    0.10    0.26
  -6 -15   2   -0.15    0.17
   6  15   2    0.10    0.26
   6 -15  -2    0.34    0.13
   6 -15  -2    0.34    0.13
   6 -15   3    1.37    0.43
  -6  15   3    1.44    0.45
   6 -15   3    1.71    0.33
  -6  15   3    1.65    0.25
  -6 -15  -3    0.79    0.35
  -6  15   3    1.44    0.45
   6 -15   3    1.71    0.33
   6 -15   3    1.19    0.24
  -6  15   3    1.65    0.25
   6 -15   3    1.37    0.43
   6 -15   3    1.19    0.24
  -6 -15  -3    0.79    0.35
  -6 -15   3    1.32    0.36
  -6 -15   3    1.98    0.35
  -6 -15   3    1.00    0.52
   6  15   3    1.44    0.26
  -6 -15   3    1.00    0.52
   6 -15  -3    1.10    0.22
  -6 -15   3    1.32    0.36
   6  15   3    1.41    0.41
   6  15   3    1.45    0.26
  -6 -15   3    1.98    0.35
   6  15   3    1.41    0.41
   6 -15  -3    1.10    0.22
  -7 -15   0    3.33    0.51
  -7  15   0    3.16    0.51
   7  15   0    3.32    0.46
   7 -15   0    3.91    0.43
  -7  15   0    3.16    0.51
  -7 -15   0    3.33    0.51
   7 -15   0    3.91    0.43
   7  15   0    3.32    0.46
   7  15  -1    5.37    0.54
  -7  15   1    4.29    0.64
   7  15  -1    5.37    0.54
  -7 -15  -1    4.91    0.51
  -7  15   1    4.29    0.64
   7 -15   1    5.08    0.54
  -7 -15  -1    4.91    0.51
   7 -15   1    5.08    0.54
  -7 -15   1    4.98    0.76
  -7 -15   1    4.98    0.76
  -7 -15   1    4.74    0.65
   7  15   1    4.88    0.60
   7 -15  -1    5.84    0.54
   7  15   1    4.59    0.55
   7  15   1    4.88    0.60
  -7 -15   1    4.74    0.72
  -7 -15   1    4.74    0.72
  -7 -15   1    4.74    0.65
   7 -15  -1    5.84    0.54
   7  15   1    4.59    0.55
  -7  15  -1    4.23    0.62
  -7  15  -1    4.23    0.62
  -7  15   2    2.71    0.40
  -7  15   2    3.80    0.58
  -7  15   2    3.80    0.58
   7 -15   2    3.48    0.48
   7 -15   2    3.01    0.42
   7 -15   2    3.01    0.42
  -7  15   2    2.70    0.40
   7 -15   2    3.08    0.40
   7 -15   2    3.48    0.48
   7  15  -2    3.04    0.41
   7 -15   2    3.08    0.40
   7  15  -2    3.04    0.41
   7  15   2    2.73    0.41
  -7 -15   2    3.70    0.58
   7  15   2    2.46    0.42
   7  15   2    2.73    0.41
  -7 -15   2    3.57    0.42
  -7 -15   2    2.87    0.49
  -7 -15   2    2.87    0.49
  -7 -15   2    3.70    0.58
   7 -15  -2    3.19    0.38
   7 -15  -2    3.19    0.38
  -7 -15   2    3.57    0.42
   7  15   2    2.46    0.42
   7 -15   3    3.61    0.48
   7 -15   3    2.78    0.51
  -7  15   3    4.87    0.69
   7 -15   3    4.04    0.62
   7 -15   3    4.04    0.62
   7 -15   3    2.78    0.51
  -7  15   3    4.14    0.49
  -7  15   3    4.14    0.49
   7 -15   3    3.61    0.48
  -7  15   3    4.87    0.69
   7 -15  -3    3.45    0.44
   7  15   3    5.19    0.51
   7 -15  -3    3.45    0.44
   7  15   3    3.93    0.59
   7  15   3    5.19    0.51
   7  15   3    3.93    0.59
  -7 -15   3    4.48    0.63
  -7 -15   3    5.11    0.57
  -7 -15   3    5.11    0.57
  -7 -15   3    4.48    0.63
  -8 -15   0   85.29    6.52
  -8 -15   0   66.48    6.47
   8 -15   0   86.55    6.49
   8  15   0   73.33    6.45
  -8 -15   0   85.29    6.52
  -8 -15   0   66.48    6.47
  -8  15   0   72.74    6.49
  -8  15   0   72.74    6.49
   8  15   0   73.33    6.45
   8 -15   0   86.55    6.49
  -8  15   1   92.24    8.01
  -8 -15  -1   95.93    7.99
   8  15  -1   98.35    7.93
  -8 -15  -1   91.66    7.90
  -8  15   1   92.24    8.01
   8  15  -1   98.35    7.93
   8 -15   1   97.48    7.97
   8 -15   1   97.48    7.97
  -8 -15  -1   91.66    7.90
  -8 -15  -1   95.93    7.99
  -8 -15   1   92.03    7.99
   8  15   1   95.57    7.96
  -8 -15   1   92.03    7.99
   8  15   1   95.57    7.96
   8  15  -2   66.92    5.69
   8 -15   2   64.09    5.74
   8  15  -2   66.92    5.69
   8 -15   2   64.09    5.74
   8  15   2   72.62    5.74
  -8 -15   2   69.75    5.86
  -8 -15   2   69.75    5.86
   8 -15  -2   63.63    5.70
  -8 -15   2   77.66    5.83
  -8 -15   2   77.66    5.83
   8  15   2   60.52    5.74
   8  15   2   72.62    5.74
   8 -15  -2   63.63    5.70
   8  15   2   60.52    5.74
  -9 -15   0    0.80    0.22
  -9 -15   0    0.94    0.38
  -9 -15   0    0.94    0.38
  -9 -15   0    0.80    0.22
  -9 -15   0    0.51    0.38
  -9 -15   0    0.51    0.38
   9  15   0    0.96    0.24
   9  15   0    0.96    0.24
   9 -15   0    0.78    0.21
   9 -15   0    0.78    0.21
  -9  15   1   10.37    1.26
  -9  15   1   10.37    1.26
  -9 -15  -1   11.62    1.19
  -9 -15  -1   11.81    1.02
   9 -15   1   12.09    1.08
   9  15  -1   10.74    1.03
   9 -15   1   12.09    1.08
   9  15  -1   10.74    1.03
  -9 -15  -1   11.62    1.19
  -9 -15  -1   11.81    1.02
   9  15   1   10.38    1.07
  -9 -15   1   11.58    1.30
  -9 -15   1    9.15    1.24
   9 -15  -1   11.85    1.05
  -9 -15   1    9.86    1.20
   9  15   1   10.38    1.07
  -9 -15   1    9.15    1.24
   9 -15  -1   11.85    1.05
  -9 -15   1   11.58    1.30
  -9 -15   1    9.86    1.20
   9 -15   2    0.65    0.20
  -9  15   2    1.71    0.58
  -9 -15  -2    0.14    0.35
  -9 -15  -2    0.14    0.35
   9 -15   2    0.65    0.20
  -9  15   2    1.71    0.58
  -9 -15   2    0.39    0.37
   9  15   2    0.39    0.19
  -9 -15   2    0.68    0.31
   9  15   2    0.38    0.29
   9  15   2    0.39    0.19
   9  15   2    0.38    0.29
   9 -15  -2    0.55    0.17
   9 -15  -2    0.55    0.17
  -9 -15   2    1.43    0.31
  -9 -15   2    1.43    0.31
  -9 -15   2    0.39    0.37
  -9 -15   2    0.68    0.31
  10  15   0    2.24    0.36
  10 -15   0    3.00    0.40
 -10 -15   0    2.83    0.42
  10  15   0    2.24    0.36
 -10 -15   0    1.65    0.47
 -10 -15   0    2.52    0.53
 -10  15   0    3.84    0.74
 -10 -15   0    2.52    0.53
  10 -15   0    3.00    0.40
 -10  15   0    3.84    0.74
 -10 -15   0    2.83    0.42
 -10 -15   0    1.65    0.47
  10 -15   1    8.69    0.87
 -10  15   1    8.82    1.14
  10 -15   1    8.69    0.87
 -10  15   1    8.82    1.14
  10  15  -1    7.84    0.82
 -10 -15  -1    9.99    1.04
  10  15  -1    7.84    0.82
 -10 -15  -1    9.99    1.04
 -10 -15   1    7.22    1.07
 -10 -15   1    8.05    1.06
  10 -15  -1    9.21    0.85
 -10 -15   1    7.72    0.92
 -10 -15   1    7.22    1.07
 -10 -15   1    7.72    0.92
  10  15   1    8.60    0.88
  10 -15  -1    9.21    0.85
 -10 -15   1    8.05    1.06
  10  15   1    8.60    0.88
  10 -15   2    1.88    0.38
  10 -15   2    1.88    0.38
 -10 -15   2    2.40    0.49
  10  15   2    1.99    0.37
 -10 -15   2    2.40    0.49
  10 -15  -2    2.33    0.36
  10  15   2    1.99    0.37
  10  15   2    2.09    0.41
  10 -15  -2    2.33    0.36
  10  15   2    2.09    0.41
 -11 -15   0   -0.44    0.33
 -11 -15   0   -0.44    0.33
  11  15   0   -0.19    0.16
  11  15   0   -0.19    0.16
 -11 -15   0   -0.14    0.22
 -11  15   0    0.60    0.69
 -11 -15   0    0.49    0.47
  11 -15   0    0.10    0.17
  11 -15   0    0.10    0.17
 -11  15   0    0.60    0.69
 -11 -15   0    0.49    0.47
 -11 -15   0   -0.14    0.22
 -11 -15  -1   -0.57    0.37
  11  15  -1   -0.07    0.18
  11 -15   1    0.01    0.18
 -11 -15  -1   -0.57    0.37
 -11  15   1   -0.63    0.58
 -11  15   1   -0.63    0.58
 -11 -15  -1    0.12    0.33
  11  15  -1   -0.07    0.18
  11 -15   1    0.01    0.18
 -11 -15  -1    0.12    0.33
 -11 -15   1    0.40    0.39
  11 -15  -1   -0.03    0.16
 -11 -15   1   -0.13    0.29
  11  15   1   -0.20    0.20
  11 -15  -1   -0.03    0.16
  11  15   1   -0.20    0.20
 -11 -15   1   -0.13    0.29
 -11 -15   1    0.40    0.39
 -11 -15   1   -0.03    0.45
 -11 -15   1   -0.03    0.45
  12 -15   0   11.45    1.07
 -12 -15   0   10.12    1.07
  12  15   0   10.46    1.02
 -12 -15   0   10.31    1.29
 -12 -15   0   10.12    1.07
  12 -15   0   11.45    1.07
  12  15   0   10.46    1.02
 -12 -15   0   10.31    1.29
   0 -16   0   35.73    2.68
   0  16   0   30.09    2.68
   0  16   0   30.09    2.68
   0  16   0   28.72    2.77
   0 -16   0   35.73    2.68
   0  16   0   28.72    2.77
   0  16   1    8.60    0.83
   0  16   1    8.60    0.83
   0 -16  -1    7.13    0.79
   0  16  -1    7.40    0.73
   0  16  -1    7.40    0.73
   0 -16  -1    7.13    0.79
   0 -16   2   25.41    2.50
   0 -16  -2   25.81    2.51
   0 -16   2   32.02    2.48
   0 -16   2   25.41    2.50
   0  16   2   30.84    2.43
   0 -16  -2   25.81    2.51
   0 -16   2   32.02    2.48
   0  16   2   26.98    2.51
   0  16   2   30.84    2.43
   0  16   2   26.98    2.51
   0 -16   3    5.13    0.72
   0 -16   3    4.92    0.64
   0 -16   3    4.92    0.64
   0  16   3    5.07    0.51
   0  16   3    5.07    0.51
   0  16   3    3.94    0.67
   0 -16   3    5.13    0.72
   0 -16  -3    4.20    0.56
   0 -16   3    5.33    0.51
   0  16   3    3.94    0.67
   0 -16  -3    4.20    0.56
   0 -16   3    5.33    0.51
  -1 -16   0    0.24    0.17
  -1  16   0    0.41    0.24
  -1  16   0    0.15    0.11
   1  16   0    0.34    0.14
  -1  16   0    0.15    0.11
   1  16   0    0.24    0.21
  -1 -16   0   -0.02    0.22
   1 -16   0    0.15    0.15
  -1 -16   0   -0.02    0.22
   1 -16   0    0.15    0.15
  -1 -16   0    0.24    0.17
   1  16   0    0.24    0.21
  -1  16   0    0.41    0.24
   1  16   0    0.34    0.14
  -1  16   1   13.66    1.19
  -1  16   1   13.66    1.19
  -1 -16  -1   10.46    1.19
  -1  16   1   12.50    1.08
  -1 -16  -1   10.46    1.19
  -1  16   1   12.50    1.08
   1  16  -1   10.90    1.11
   1  16  -1   10.90    1.11
  -1  16  -1   11.81    1.12
   1 -16  -1   15.09    1.21
   1  16   1   12.91    1.18
   1 -16  -1   15.09    1.21
  -1  16  -1   11.81    1.12
   1  16   1   12.91    1.18
  -1 -16  -2    0.26    0.20
   1 -16   2    0.38    0.14
   1 -16   2    0.38    0.14
  -1 -16  -2    0.26    0.20
   1  16  -2   -0.04    0.17
  -1  16   2    0.09    0.26
  -1  16   2    0.09    0.26
   1 -16   2    0.05    0.30
   1  16  -2   -0.04    0.17
   1 -16   2    0.05    0.30
  -1 -16   2    0.29    0.14
   1  16   2   -0.18    0.28
   1 -16  -2    0.34    0.19
   1 -16  -2    0.34    0.19
   1  16   2    0.20    0.12
  -1  16  -2    0.05    0.18
  -1 -16   2    0.20    0.18
   1  16   2    0.20    0.12
  -1  16  -2    0.05    0.18
  -1 -16   2   -0.28    0.29
   1  16   2   -0.18    0.28
  -1 -16   2    0.20    0.18
  -1 -16   2    0.29    0.14
  -1 -16   2   -0.28    0.29
  -1 -16  -3    8.52    0.96
  -1 -16  -3    8.52    0.96
  -1  16   3    9.98    0.89
  -1  16   3    8.08    1.08
   1 -16   3    8.19    0.98
   1 -16   3   10.14    0.90
  -1  16   3    9.98    0.89
   1 -16   3   10.65    1.14
   1 -16   3   10.65    1.14
   1 -16   3   10.14    0.90
   1 -16   3    8.19    0.98
  -1  16   3    8.08    1.08
   1  16   3    8.18    1.09
   1  16   3   10.33    0.90
  -1 -16   3    9.93    1.17
  -1 -16   3   11.49    0.91
   1 -16  -3    9.00    0.93
  -1 -16   3    9.52    1.01
  -1 -16   3    9.52    1.01
  -1 -16   3    9.93    1.17
   1  16   3   10.33    0.90
  -1 -16   3   11.49    0.91
   1  16   3    8.18    1.09
   1 -16  -3    9.00    0.93
   2  16   0    2.05    0.36
  -2  16   0    1.71    0.24
  -2  16   0    2.22    0.33
   2 -16   0    1.80    0.27
  -2 -16   0    1.98    0.37
   2  16   0    2.05    0.36
  -2  16   0    1.71    0.23
   2 -16   0    1.80    0.27
  -2 -16   0    1.98    0.37
  -2  16   0    2.22    0.33
  -2  16   1   13.58    1.26
   2  16  -1   11.14    1.23
  -2  16   1   13.58    1.26
  -2  16   1   14.21    1.15
  -2 -16  -1   12.70    1.29
  -2  16   1   14.21    1.15
   2  16  -1   11.14    1.23
  -2 -16  -1   12.70    1.29
   2  16   1   14.82    1.25
  -2  16  -1   12.19    1.14
   2 -16  -1   15.85    1.27
  -2 -16   1   11.95    1.21
  -2  16  -1   13.15    1.19
   2  16   1   14.82    1.25
  -2  16  -1   13.15    1.19
  -2  16  -1   12.19    1.14
   2 -16  -1   15.85    1.27
  -2 -16   1   11.95    1.21
   2 -16   2    2.54    0.37
   2 -16   2    2.28    0.29
   2 -16   2    2.54    0.37
   2 -16   2    2.28    0.29
  -2  16   2    1.89    0.40
   2 -16   2    1.86    0.40
  -2 -16  -2    1.65    0.37
  -2 -16  -2    1.65    0.37
  -2  16   2    1.89    0.40
   2  16  -2    1.51    0.26
   2  16  -2    1.51    0.26
  -2  16   2    1.76    0.26
  -2  16   2    1.76    0.26
   2 -16   2    1.86    0.40
   2  16   2    2.03    0.39
  -2 -16   2    1.31    0.40
   2 -16  -2    2.30    0.34
  -2 -16   2    1.85    0.35
  -2 -16   2    2.22    0.33
  -2 -16   2    1.31    0.40
  -2 -16   2    1.85    0.35
   2 -16  -2    2.30    0.34
   2  16   2    2.03    0.39
   2  16   2    1.65    0.28
   2  16   2    1.65    0.28
  -2 -16   2    2.22    0.33
   2 -16   3    9.70    0.99
  -2  16   3   10.29    0.88
  -2 -16  -3    7.93    0.97
  -2  16   3    8.91    1.09
   2 -16   3   10.26    1.14
  -2 -16  -3    7.93    0.97
   2 -16   3   11.07    0.91
   2 -16   3    9.70    0.99
  -2  16   3   10.28    0.88
  -2  16   3    8.91    1.09
   2 -16   3   11.07    0.91
   2 -16   3   10.26    1.14
   2 -16  -3   10.09    0.93
  -2 -16   3    8.47    1.00
  -2 -16   3    8.44    1.15
   2  16   3    8.97    1.06
  -2 -16   3    8.44    1.15
   2 -16  -3   10.09    0.93
   2  16   3    8.97    1.06
  -2 -16   3    8.47    1.00
   2  16   3    9.76    0.90
   2  16   3    9.76    0.90
  -3  16   0    1.65    0.22
  -3 -16   0    2.06    0.36
   3 -16   0    2.06    0.31
  -3  16   0    1.94    0.32
  -3 -16   0    1.22    0.31
   3  16   0    2.17    0.32
   3 -16   0    1.74    0.38
  -3  16   0    1.94    0.32
   3  16   0    2.17    0.32
  -3 -16   0    2.06    0.36
  -3 -16   0    1.22    0.31
   3 -16   0    1.74    0.38
  -3  16   0    1.65    0.22
   3 -16   0    2.06    0.31
   3 -16   1    0.27    0.13
   3  16  -1   -0.02    0.16
  -3 -16  -1    0.19    0.20
   3 -16   1    0.25    0.14
  -3 -16  -1    0.08    0.14
  -3  16   1    0.27    0.11
   3 -16   1    0.25    0.14
  -3  16   1   -0.14    0.24
  -3  16   1    0.27    0.11
   3 -16   1    0.27    0.13
   3  16  -1   -0.02    0.16
  -3  16   1   -0.14    0.24
  -3 -16  -1    0.19    0.20
  -3 -16  -1    0.08    0.14
  -3  16  -1    0.23    0.22
   3  16   1    0.21    0.23
   3  16   1    0.21    0.23
   3 -16  -1    0.30    0.16
  -3 -16   1    0.25    0.26
  -3  16  -1    0.23    0.22
  -3 -16   1   -0.15    0.14
   3 -16  -1    0.30    0.16
  -3 -16   1   -0.15    0.14
  -3 -16   1    0.25    0.26
  -3  16   2    1.48    0.39
  -3 -16  -2    1.17    0.33
  -3  16   2    1.70    0.23
   3 -16   2    1.34    0.28
   3 -16   2    1.62    0.38
   3 -16   2    1.76    0.25
  -3  16   2    1.48    0.39
  -3  16   2    1.70    0.23
  -3 -16  -2    1.17    0.33
   3  16  -2    0.80    0.34
   3 -16   2    1.34    0.28
   3 -16   2    1.76    0.25
   3 -16   2    1.62    0.38
   3  16  -2    0.80    0.34
   3 -16  -2    1.61    0.30
   3  16   2    1.72    0.28
  -3 -16   2    1.90    0.33
   3  16   2    1.17    0.33
  -3 -16   2    1.10    0.38
   3 -16  -2    1.61    0.30
   3  16   2    1.17    0.33
   3  16   2    1.72    0.28
  -3 -16   2    1.10    0.38
  -3 -16   2    1.90    0.33
  -3 -16  -3    0.12    0.25
  -3  16   3    0.34    0.40
  -3  16   3   -0.04    0.14
   3 -16   3    0.18    0.13
   3 -16   3    0.78    0.41
   3 -16   3    0.19    0.22
   3 -16   3    0.19    0.22
  -3  16   3    0.34    0.40
   3 -16   3    0.78    0.41
   3 -16   3    0.18    0.13
  -3  16   3   -0.04    0.14
  -3 -16  -3    0.12    0.25
   3  16   3    0.29    0.31
   3 -16  -3    0.14    0.14
  -3 -16   3    0.13    0.47
  -3 -16   3   -0.20    0.24
  -3 -16   3    0.13    0.47
  -3 -16   3   -0.09    0.14
   3  16   3    0.21    0.13
   3  16   3    0.21    0.13
   3  16   3    0.29    0.31
  -3 -16   3   -0.20    0.24
   3 -16  -3    0.14    0.14
  -3 -16   3   -0.09    0.14
   4 -16   0    5.92    0.58
  -4 -16   0    6.19    0.69
   4  16   0    5.97    0.61
  -4 -16   0    6.19    0.69
  -4 -16   0    4.25    0.65
  -4  16   0    4.83    0.62
   4 -16   0    5.92    0.58
   4  16   0    5.97    0.61
  -4 -16   0    4.25    0.65
  -4  16   0    4.83    0.62
  -4  16   1   15.21    1.26
  -4 -16  -1   13.13    1.28
  -4  16   1   14.71    1.38
  -4  16   1   15.21    1.26
  -4 -16  -1   13.13    1.28
   4  16  -1   12.93    1.30
  -4  16   1   14.71    1.38
   4 -16   1   12.33    1.31
   4  16  -1   12.93    1.30
   4 -16   1   12.33    1.31
  -4  16  -1   14.33    1.31
   4  16   1   14.62    1.36
  -4 -16   1   17.01    1.28
  -4 -16   1   14.25    1.41
   4 -16  -1   15.68    1.34
   4 -16  -1   15.68    1.34
  -4 -16   1   17.01    1.28
  -4 -16   1   16.86    1.35
   4  16   1   14.62    1.36
  -4  16  -1   14.33    1.31
  -4 -16   1   14.25    1.41
  -4 -16   1   16.86    1.35
   4  16  -2    4.55    0.53
   4 -16   2    4.96    0.64
   4 -16   2    5.34    0.53
  -4  16   2    5.43    0.74
  -4  16   2    4.98    0.50
   4 -16   2    4.96    0.64
  -4  16   2    5.43    0.74
   4  16  -2    4.55    0.53
  -4  16   2    4.98    0.50
   4 -16   2    5.34    0.53
   4 -16   2    4.75    0.58
   4 -16   2    4.75    0.58
   4  16   2    4.85    0.54
   4  16   2    4.00    0.65
  -4 -16   2    5.76    0.62
   4 -16  -2    5.36    0.55
   4  16   2    4.86    0.54
   4  16   2    4.00    0.65
   4 -16  -2    5.36    0.55
  -4 -16   2    5.76    0.62
   4 -16   3   12.82    1.25
   4 -16   3   11.37    1.03
  -4  16   3   10.50    1.23
   4 -16   3   12.82    1.25
  -4  16   3   10.50    1.23
  -4  16   3   10.79    1.05
   4 -16   3   10.67    1.12
   4 -16   3   11.37    1.03
  -4  16   3   10.79    1.05
   4 -16   3   10.67    1.12
   4 -16  -3   11.68    1.03
   4 -16  -3   11.68    1.03
  -4 -16   3    9.04    1.28
  -4 -16   3   11.04    1.15
  -4 -16   3   11.04    1.15
  -4 -16   3    9.04    1.28
   4  16   3    8.81    1.15
   4  16   3   12.19    1.03
   4  16   3    8.81    1.15
   4  16   3   12.19    1.03
  -5 -16   0    4.16    0.68
  -5 -16   0    5.70    0.72
   5  16   0    6.03    0.61
  -5  16   0    4.80    0.64
   5 -16   0    6.03    0.58
  -5 -16   0    4.16    0.68
  -5 -16   0    5.70    0.72
  -5  16   0    4.80    0.64
   5  16   0    6.03    0.61
   5 -16   0    6.03    0.58
  -5  16   1    0.85    0.16
   5  16  -1    0.88    0.23
   5 -16   1    1.46    0.38
  -5  16   1    1.28    0.36
  -5 -16  -1    0.82    0.20
  -5  16   1    1.28    0.36
   5  16  -1    0.88    0.23
  -5 -16  -1    0.82    0.20
   5 -16   1    1.46    0.38
  -5 -16  -1    0.71    0.30
  -5  16   1    0.85    0.16
  -5 -16  -1    0.71    0.30
  -5 -16   1    1.21    0.36
  -5 -16   1    1.24    0.34
   5  16   1    0.68    0.20
   5  16   1    0.68    0.20
  -5 -16   1    1.21    0.36
  -5  16  -1    1.26    0.27
   5 -16  -1    0.89    0.20
   5 -16  -1    0.89    0.20
   5  16   1    0.94    0.29
  -5 -16   1    0.85    0.24
  -5 -16   1    0.85    0.24
  -5 -16   1    1.24    0.34
  -5  16  -1    1.26    0.27
   5  16   1    0.94    0.29
   5  16  -2    3.88    0.56
  -5  16   2    6.16    0.80
  -5  16   2    6.16    0.80
   5 -16   2    5.39    0.72
   5 -16   2    5.39    0.72
   5 -16   2    5.25    0.54
   5 -16   2    5.25    0.54
   5  16  -2    3.88    0.56
   5 -16   2    5.38    0.60
   5 -16   2    5.38    0.60
  -5 -16   2    5.71    0.66
   5 -16  -2    6.08    0.56
   5  16   2    4.48    0.68
   5  16   2    4.48    0.68
   5 -16  -2    6.08    0.56
  -5 -16   2    6.01    0.67
   5  16   2    4.01    0.54
  -5 -16   2    5.71    0.66
   5  16   2    4.01    0.54
  -5 -16   2    6.01    0.67
   5 -16   3    1.01    0.23
  -5  16   3    1.16    0.21
   5 -16   3    1.23    0.47
  -5  16   3    1.44    0.46
   5 -16   3    0.73    0.27
  -5  16   3    1.44    0.46
  -5 -16  -3    0.62    0.31
  -5 -16  -3    0.62    0.31
  -5  16   3    1.16    0.21
   5 -16   3    0.73    0.27
   5 -16   3    1.01    0.23
   5 -16   3    1.23    0.47
   5  16   3    0.75    0.38
   5  16   3    0.75    0.38
  -5 -16   3    0.68    0.29
   5  16   3    1.12    0.24
  -5 -16   3    1.90    0.57
  -5 -16   3    1.39    0.28
  -5 -16   3    1.39    0.28
  -5 -16   3    1.90    0.57
  -5 -16   3    0.68    0.29
   5  16   3    1.12    0.24
   5 -16  -3    0.76    0.18
   5 -16  -3    0.76    0.18
  -6 -16   0   13.62    1.26
  -6 -16   0   11.28    1.29
  -6 -16   0   11.28    1.29
  -6 -16   0   11.64    1.24
  -6 -16   0   11.64    1.24
  -6  16   0   12.46    1.21
   6  16   0   12.77    1.17
   6 -16   0   13.78    1.17
  -6  16   0   12.46    1.21
   6  16   0   12.77    1.17
   6 -16   0   13.78    1.17
  -6 -16   0   13.62    1.26
   6 -16   1    0.52    0.19
  -6 -16  -1    0.52    0.27
  -6  16   1    0.60    0.36
   6 -16   1    0.93    0.20
   6 -16   1    0.52    0.19
  -6  16   1    0.60    0.36
   6  16  -1    0.89    0.22
  -6 -16  -1    0.72    0.20
  -6 -16  -1    0.52    0.27
  -6 -16  -1    0.72    0.20
   6 -16   1    0.93    0.20
   6  16  -1    0.89    0.22
   6 -16  -1    1.07    0.21
   6  16   1    0.73    0.26
  -6 -16   1    0.79    0.25
   6 -16  -1    1.07    0.21
   6  16   1    0.73    0.26
  -6 -16   1    0.89    0.35
  -6 -16   1    0.79    0.25
  -6 -16   1    1.01    0.32
  -6 -16   1    1.01    0.32
   6  16   1    0.83    0.21
  -6 -16   1    0.89    0.35
   6  16   1    0.83    0.21
  -6  16   2   11.52    1.06
   6  16  -2   10.56    1.09
   6  16  -2   10.56    1.09
  -6  16   2   14.34    1.32
   6 -16   2   12.37    1.11
  -6  16   2   14.34    1.32
   6 -16   2   12.37    1.11
  -6  16   2   11.52    1.06
   6 -16   2   10.75    1.13
   6 -16   2   10.75    1.13
   6 -16  -2   13.01    1.10
  -6 -16   2   12.32    1.19
   6  16   2   10.18    1.17
   6  16   2   12.08    1.11
  -6 -16   2   13.07    1.23
   6  16   2   12.08    1.11
  -6 -16   2   13.07    1.23
  -6 -16   2   12.32    1.19
   6 -16  -2   13.01    1.10
   6  16   2   10.18    1.17
  -7 -16   0    1.96    0.32
   7  16   0    3.20    0.42
   7  16   0    3.20    0.42
  -7 -16   0    2.02    0.47
  -7 -16   0    2.67    0.48
  -7  16   0    2.81    0.52
   7 -16   0    2.58    0.35
  -7 -16   0    1.96    0.32
  -7  16   0    2.81    0.52
   7 -16   0    2.58    0.35
  -7 -16   0    2.67    0.48
  -7 -16   0    2.02    0.47
   7  16  -1    1.21    0.28
  -7 -16  -1    0.89    0.21
  -7  16   1    1.15    0.43
  -7 -16  -1    0.33    0.29
  -7 -16  -1    0.89    0.21
   7  16  -1    1.21    0.28
  -7 -16  -1    0.33    0.29
  -7  16   1    1.15    0.43
   7 -16   1    0.73    0.18
   7 -16   1    0.73    0.18
  -7 -16  -1    1.01    0.38
  -7 -16  -1    1.01    0.38
  -7 -16   1    0.74    0.28
  -7 -16   1    0.68    0.33
   7 -16  -1    0.80    0.19
  -7 -16   1    0.88    0.41
   7  16   1    0.58    0.21
  -7 -16   1    0.68    0.33
  -7 -16   1    0.74    0.28
  -7 -16   1    0.88    0.41
   7  16   1    0.71    0.25
   7  16   1    0.58    0.21
   7 -16  -1    0.80    0.19
   7  16   1    0.71    0.25
   7 -16   2    2.41    0.39
   7 -16   2    2.96    0.38
   7 -16   2    2.41    0.39
  -7 -16  -2    1.38    0.44
  -7 -16  -2    1.38    0.44
   7 -16   2    2.96    0.38
   7  16  -2    2.88    0.40
   7  16  -2    2.88    0.40
  -7 -16   2    1.53    0.39
   7 -16  -2    2.13    0.33
   7  16   2    2.01    0.40
   7  16   2    2.01    0.40
   7 -16  -2    2.13    0.33
   7  16   2    1.93    0.32
  -7 -16   2    2.72    0.50
   7  16   2    1.93    0.32
  -7 -16   2    1.53    0.39
  -7 -16   2    2.72    0.50
  -8  16   0    0.19    0.44
  -8 -16   0    0.20    0.17
  -8 -16   0   -0.04    0.34
  -8  16   0    0.19    0.44
   8 -16   0   -0.04    0.14
   8  16   0    0.06    0.20
   8 -16   0   -0.04    0.14
  -8 -16   0    0.03    0.29
  -8 -16   0    0.20    0.17
  -8 -16   0    0.03    0.29
  -8 -16   0   -0.04    0.34
   8  16   0    0.06    0.20
  -8 -16  -1    0.12    0.35
  -8  16   1    0.16    0.40
  -8  16   1    0.16    0.40
   8 -16   1    0.02    0.14
   8  16  -1    0.14    0.18
  -8 -16  -1    0.12    0.35
  -8 -16  -1    0.21    0.20
  -8 -16  -1    0.07    0.29
  -8 -16  -1    0.21    0.20
   8 -16   1    0.02    0.14
   8  16  -1    0.14    0.18
  -8 -16  -1    0.07    0.29
   8 -16  -1    0.10    0.14
  -8 -16   1    0.36    0.33
   8  16   1    0.04    0.19
   8 -16  -1    0.10    0.14
  -8 -16   1    0.04    0.40
   8  16   1    0.04    0.19
   8  16   1    0.15    0.22
  -8 -16   1    0.04    0.40
  -8 -16   1   -0.22    0.20
  -8 -16   1    0.36    0.33
   8  16   1    0.15    0.22
  -8 -16   1   -0.22    0.20
  -8 -16  -2    0.10    0.32
  -8  16   2    0.82    0.48
   8  16  -2   -0.04    0.18
   8 -16   2    0.05    0.16
   8 -16   2    0.05    0.20
   8 -16   2    0.05    0.20
  -8 -16  -2    0.10    0.32
   8  16  -2   -0.04    0.18
   8 -16   2    0.05    0.16
  -8  16   2    0.82    0.48
  -8 -16   2    0.24    0.34
   8  16   2   -0.04    0.16
  -8 -16   2    0.37    0.26
   8  16   2   -0.04    0.16
  -8 -16   2    0.24    0.34
   8  16   2    0.11    0.27
  -8 -16   2    0.01    0.25
   8  16   2    0.11    0.27
   8 -16  -2    0.02    0.14
  -8 -16   2    0.01    0.25
   8 -16  -2    0.02    0.14
  -8 -16   2    0.37    0.26
   9 -16   0    0.01    0.15
  -9 -16   0   -0.16    0.37
   9  16   0    0.02    0.18
  -9 -16   0   -0.16    0.37
   9  16   0    0.02    0.18
  -9 -16   0    0.00    0.34
  -9 -16   0   -0.15    0.17
  -9  16   0    0.08    0.46
  -9 -16   0    0.00    0.34
   9 -16   0    0.01    0.15
  -9 -16   0   -0.15    0.17
  -9  16   0    0.08    0.46
  -9  16   1   -0.62    0.48
   9 -16   1    0.11    0.18
   9  16  -1    0.39    0.21
  -9 -16  -1    0.32    0.31
  -9 -16  -1    0.32    0.31
  -9  16   1   -0.62    0.48
  -9 -16  -1    0.49    0.38
  -9 -16  -1    0.49    0.38
   9  16  -1    0.39    0.21
   9 -16   1    0.11    0.18
   9  16   1   -0.20    0.17
  -9 -16   1   -0.06    0.25
   9 -16  -1    0.09    0.15
  -9 -16   1   -0.07    0.44
   9  16   1   -0.20    0.17
   9  16   1    0.03    0.22
  -9 -16   1   -0.06    0.25
  -9 -16   1   -0.07    0.44
   9 -16  -1    0.09    0.15
   9  16   1    0.03    0.22
  -9  16   2    0.21    0.48
  -9  16   2    0.21    0.48
   9 -16   2    0.23    0.19
  -9 -16  -2   -0.17    0.33
  -9 -16  -2   -0.17    0.33
   9 -16   2    0.23    0.19
   9  16   2   -0.34    0.24
  -9 -16   2    0.74    0.37
  -9 -16   2   -0.22    0.28
  -9 -16   2    0.74    0.37
  -9 -16   2    0.26    0.28
   9 -16  -2   -0.01    0.15
  -9 -16   2    0.26    0.28
   9  16   2   -0.15    0.19
   9  16   2   -0.15    0.19
   9 -16  -2   -0.01    0.15
   9  16   2   -0.34    0.24
  -9 -16   2   -0.22    0.28
 -10  16   0   -0.47    0.50
  10 -16   0    0.21    0.16
 -10 -16   0   -0.16    0.22
  10  16   0    0.06    0.21
  10  16   0    0.06    0.21
 -10 -16   0   -0.16    0.22
 -10 -16   0    0.52    0.45
 -10  16   0   -0.47    0.50
  10 -16   0    0.21    0.16
 -10 -16   0    0.52    0.45
 -10 -16   0    0.37    0.33
 -10 -16   0    0.37    0.33
 -10  16   1    3.33    0.74
 -10 -16  -1    3.29    0.64
 -10  16   1    3.33    0.74
  10 -16   1    3.66    0.50
  10  16  -1    3.88    0.49
 -10 -16  -1    3.29    0.64
  10  16  -1    3.88    0.49
  10 -16   1    3.66    0.50
 -10 -16   1    3.23    0.65
 -10 -16   1    3.23    0.65
 -10 -16   1    3.74    0.73
  10 -16  -1    4.27    0.49
  10  16   1    3.77    0.55
 -10 -16   1    3.69    0.60
 -10 -16   1    3.69    0.60
 -10 -16   1    3.74    0.73
  10 -16  -1    4.27    0.49
  10  16   1    3.77    0.55
 -11  16   0    0.36    0.71
 -11 -16   0   -0.32    0.44
  11 -16   0    0.36    0.22
 -11  16   0    0.36    0.71
 -11 -16   0   -0.04    0.26
 -11 -16   0   -0.32    0.44
  11  16   0   -0.04    0.20
 -11 -16   0    0.33    0.37
 -11 -16   0    0.33    0.37
  11 -16   0    0.36    0.22
  11  16   0   -0.04    0.20
 -11 -16   0   -0.04    0.26
   0  17   0    0.26    0.14
   0  17   0    0.26    0.14
   0 -17   0    0.16    0.16
   0 -17   0    0.16    0.16
   0  17   0    0.05    0.22
   0  17   0    0.05    0.22
   0  17   1    0.06    0.25
   0 -17  -1    0.05    0.15
   0  17  -1    0.25    0.20
   0  17   1    0.19    0.12
   0 -17   1   -0.09    0.12
   0  17   1    0.06    0.25
   0  17   1    0.19    0.12
   0 -17   1   -0.09    0.12
   0 -17  -1    0.05    0.15
   0  17  -1    0.25    0.20
   0  17   2   -0.03    0.33
   0 -17   2   -0.21    0.15
   0 -17   2   -0.21    0.15
   0 -17  -2   -0.10    0.18
   0 -17  -2   -0.10    0.18
   0  17   2   -0.03    0.33
   0  17   2   -0.14    0.11
   0  17   2   -0.14    0.11
   0 -17   2   -0.01    0.12
   0 -17   2   -0.01    0.12
   0 -17   3    1.15    0.53
   0 -17  -3   -0.11    0.18
   0  17   3   -0.05    0.14
   0 -17   3    0.04    0.13
   0  17   3    0.09    0.42
   0 -17  -3   -0.11    0.18
   0  17   3    0.09    0.42
   0  17   3   -0.05    0.14
   0 -17   3    1.15    0.53
   0 -17   3    0.04    0.13
   0 -17   3    0.01    0.22
   0 -17   3    0.01    0.22
   1 -17   0    6.15    0.64
   1 -17   0    6.15    0.64
  -1  17   0    5.74    0.54
   1 -17   0    5.24    0.56
   1 -17   0    5.24    0.56
  -1  17   0    5.74    0.54
  -1 -17   0    5.45    0.66
  -1 -17   0    6.05    0.65
   1  17   0    5.36    0.65
  -1 -17   0    6.05    0.65
  -1  17   0    5.51    0.67
  -1  17   0    5.51    0.67
   1  17   0    5.36    0.65
  -1 -17   0    5.45    0.66
   1  17   1   34.19    2.70
   1 -17  -1   34.05    2.73
  -1 -17   1   28.11    2.66
  -1  17  -1   29.58    2.64
  -1 -17   1   34.27    2.72
  -1 -17   1   34.27    2.72
  -1 -17   1   28.11    2.66
  -1  17  -1   26.14    2.60
   1 -17  -1   34.05    2.73
  -1  17  -1   26.14    2.60
  -1  17  -1   29.58    2.64
   1  17   1   34.19    2.70
  -1  17   2    5.32    0.56
   1 -17   2    5.20    0.63
   1 -17   2    5.20    0.63
  -1  17   2    5.32    0.56
  -1 -17  -2    4.80    0.67
  -1 -17  -2    4.80    0.67
  -1  17   2    4.97    0.78
   1 -17   2    6.61    0.61
   1 -17   2    6.61    0.61
  -1  17   2    4.97    0.78
   1  17   2    5.16    0.74
  -1 -17   2    5.99    0.68
   1 -17  -2    5.90    0.67
   1  17   2    5.16    0.74
  -1 -17   2    6.77    0.63
  -1 -17   2    5.99    0.68
  -1 -17   2    6.77    0.63
   1 -17  -2    5.90    0.67
   1 -17   3   22.28    2.09
   1 -17   3   22.71    1.99
  -1 -17  -3   20.33    1.96
   1 -17   3   24.42    1.90
  -1 -17  -3   20.33    1.96
  -1  17   3   18.06    2.04
  -1  17   3   18.06    2.04
  -1  17   3   21.90    1.87
   1 -17   3   22.71    1.99
  -1  17   3   21.90    1.87
   1 -17   3   22.28    2.09
   1 -17   3   24.42    1.90
  -1 -17   3   20.36    2.09
   1  17   3   18.39    2.01
   1  17   3   23.25    1.89
  -1 -17   3   20.36    2.09
  -1 -17   3   23.31    2.01
   1 -17  -3   20.61    1.93
   1  17   3   18.39    2.01
  -1 -17   3   23.31    2.01
   1  17   3   23.25    1.89
   1 -17  -3   20.61    1.93
  -2  17   0   14.03    1.19
   2 -17   0   13.34    1.23
   2 -17   0   13.34    1.23
  -2  17   0   14.03    1.19
   2  17   0   13.30    1.27
   2  17   0   13.30    1.27
  -2  17   0   14.82    1.29
  -2 -17   0   13.34    1.33
  -2  17   0   14.82    1.29
  -2 -17   0   13.34    1.33
  -2  17   1    9.35    0.81
  -2  17   1    8.37    0.94
   2  17  -1    8.48    0.86
  -2  17   1    8.37    0.94
   2 -17   1   10.64    0.89
  -2  17   1    9.35    0.81
   2 -17   1   10.64    0.89
   2  17  -1    8.48    0.86
  -2  17  -1    7.73    0.84
  -2  17  -1    7.73    0.84
   2  17   1    7.60    0.84
  -2  17  -1    8.75    0.88
   2  17   1    9.62    0.94
   2 -17  -1    9.71    0.91
   2  17   1    9.62    0.94
  -2 -17   1    8.83    0.87
  -2  17  -1    8.75    0.88
  -2 -17   1    8.83    0.87
  -2 -17   1    9.92    0.94
   2 -17  -1    9.71    0.91
  -2 -17   1    9.92    0.94
   2  17   1    7.60    0.84
  -2  17   2   13.85    1.35
  -2  17   2   12.61    1.21
  -2  17   2   13.85    1.35
   2 -17   2   11.50    1.26
   2 -17   2   11.50    1.26
  -2  17   2   12.61    1.21
   2 -17  -2   14.76    1.27
  -2 -17   2   15.23    1.27
  -2 -17   2   14.06    1.30
   2  17   2   11.77    1.30
   2 -17  -2   14.76    1.27
  -2 -17   2   15.23    1.27
  -2 -17   2   14.06    1.30
   2  17   2   11.77    1.30
   2 -17   3    8.30    0.74
  -2  17   3    5.91    0.90
   2 -17   3    7.93    1.09
  -2  17   3    5.91    0.90
   2 -17   3    8.30    0.74
  -2 -17  -3    6.03    0.81
  -2 -17  -3    6.03    0.81
   2 -17   3    9.00    0.85
  -2  17   3    7.91    0.72
   2 -17   3    7.93    1.09
  -2  17   3    7.91    0.72
   2 -17   3    9.00    0.85
   2 -17  -3    7.32    0.77
  -2 -17   3    8.66    0.88
  -2 -17   3    6.74    0.94
   2  17   3    5.76    0.87
   2 -17  -3    7.32    0.77
   2  17   3    5.76    0.87
   2  17   3    7.92    0.74
  -2 -17   3    8.66    0.88
   2  17   3    7.92    0.74
  -2 -17   3    6.74    0.94
  -3  17   0    4.43    0.67
   3 -17   0    4.46    0.53
  -3 -17   0    6.27    0.70
  -3  17   0    4.43    0.67
   3  17   0    5.44    0.61
  -3 -17   0    6.27    0.70
  -3  17   0    4.29    0.48
  -3  17   0    4.29    0.48
   3  17   0    5.44    0.61
   3 -17   0    4.46    0.53
  -3 -17   0    5.29    0.59
  -3 -17   0    5.29    0.59
  -3 -17   0    6.19    0.68
  -3 -17   0    6.19    0.68
  -3  17   1    0.39    0.30
  -3 -17  -1    0.24    0.21
   3  17  -1    0.32    0.21
   3  17  -1    0.32    0.21
  -3  17   1    0.18    0.12
  -3 -17  -1    0.08    0.13
   3 -17   1    0.22    0.13
  -3 -17  -1    0.08    0.13
  -3 -17  -1    0.24    0.21
   3 -17   1    0.31    0.14
  -3  17   1    0.39    0.30
   3 -17   1    0.31    0.14
   3 -17   1    0.22    0.13
  -3  17   1    0.18    0.12
  -3 -17   1    0.37    0.17
   3  17   1    0.04    0.25
   3  17   1    0.12    0.15
   3  17   1    0.04    0.25
   3  17   1    0.12    0.15
   3 -17  -1    0.06    0.15
   3 -17  -1    0.06    0.15
  -3 -17   1    0.37    0.17
  -3  17  -1    0.04    0.23
  -3  17  -1    0.04    0.23
  -3  17   2    5.28    0.53
  -3  17   2    5.79    0.79
   3 -17   2    6.02    0.57
  -3  17   2    5.79    0.79
   3 -17   2    6.02    0.57
   3 -17   2    4.62    0.61
  -3  17   2    5.27    0.53
   3 -17   2    4.62    0.61
   3  17   2    5.83    0.57
  -3 -17   2    4.50    0.64
   3  17   2    4.74    0.67
   3  17   2    4.74    0.67
  -3 -17   2    4.50    0.64
   3  17   2    5.83    0.57
   3 -17  -2    5.05    0.59
  -3 -17   2    6.00    0.64
  -3 -17   2    6.00    0.64
   3 -17  -2    5.05    0.59
   3 -17   3    0.49    0.17
  -3  17   3    0.22    0.16
   3 -17   3    0.16    0.25
   3 -17   3    0.16    0.25
   3 -17   3    0.49    0.17
  -3  17   3    0.43    0.39
  -3 -17  -3    0.10    0.26
  -3 -17  -3    0.10    0.26
  -3  17   3    0.43    0.39
  -3  17   3    0.22    0.16
   3 -17   3    0.35    0.47
   3 -17   3    0.35    0.47
   3  17   3    0.30    0.16
  -3 -17   3    1.14    0.57
  -3 -17   3    1.14    0.57
   3 -17  -3    0.38    0.17
   3 -17  -3    0.38    0.17
   3  17   3    0.28    0.37
  -3 -17   3    0.38    0.18
  -3 -17   3    0.38    0.18
   3  17   3    0.28    0.37
   3  17   3    0.30    0.16
  -3 -17   3    0.53    0.30
  -3 -17   3    0.53    0.30
   4 -17   0    9.54    0.90
  -4 -17   0    7.96    0.98
   4 -17   0    9.54    0.90
  -4 -17   0   10.03    0.99
   4  17   0    9.35    0.94
  -4 -17   0    7.96    0.98
  -4 -17   0   10.03    0.99
   4  17   0    9.35    0.94
  -4  17   1    1.93    0.26
  -4  17   1    1.82    0.39
   4  17  -1    1.73    0.31
  -4 -17  -1    1.76    0.41
  -4 -17  -1    1.62    0.26
   4 -17   1    1.73    0.29
  -4  17   1    1.82    0.39
  -4 -17  -1    1.76    0.41
   4  17  -1    1.73    0.31
  -4 -17  -1    1.62    0.26
   4 -17   1    2.06    0.30
   4 -17   1    1.73    0.29
   4 -17   1    2.06    0.30
  -4  17   1    1.93    0.26
   4 -17  -1    2.51    0.34
  -4  17  -1    2.33    0.36
  -4 -17   1    2.39    0.38
  -4 -17   1    1.76    0.39
   4  17   1    1.61    0.30
   4 -17  -1    2.51    0.34
  -4  17  -1    2.33    0.36
   4  17   1    1.73    0.36
   4  17   1    1.61    0.30
   4  17   1    1.73    0.36
  -4 -17   1    1.76    0.39
  -4 -17   1    2.39    0.38
  -4  17   2    7.84    0.72
   4 -17   2    8.07    0.81
  -4  17   2    8.56    0.97
   4 -17   2    8.40    0.77
  -4  17   2    7.84    0.72
  -4  17   2    8.56    0.97
   4 -17   2    8.40    0.77
   4  17  -2    6.17    0.75
   4  17  -2    6.17    0.75
   4 -17   2    8.07    0.81
   4  17   2    6.32    0.88
  -4 -17   2    6.28    0.82
  -4 -17   2    8.95    0.86
   4 -17  -2    8.70    0.79
  -4 -17   2    8.95    0.86
   4  17   2    7.48    0.76
   4 -17  -2    8.70    0.79
  -4 -17   2    6.28    0.82
   4  17   2    7.49    0.76
   4  17   2    6.32    0.88
  -5 -17   0   10.28    1.11
   5 -17   0   10.28    0.99
   5  17   0   10.92    1.02
  -5 -17   0   10.28    1.11
   5  17   0   10.92    1.02
   5 -17   0   10.28    0.99
   5 -17   1    8.27    0.89
  -5 -17  -1    7.21    0.99
  -5 -17  -1    9.92    1.01
   5 -17   1   10.74    0.90
  -5 -17  -1    7.21    0.99
   5  17  -1    9.47    0.90
   5 -17   1   10.74    0.90
   5  17  -1    9.47    0.90
  -5 -17  -1    9.92    1.01
   5 -17   1    8.27    0.89
  -5 -17   1    9.52    1.02
   5  17   1    8.46    0.88
   5  17   1   10.95    0.97
  -5 -17   1    9.08    0.92
   5  17   1    8.46    0.88
  -5 -17   1    9.52    1.02
   5  17   1   10.95    0.97
  -5 -17   1    9.08    0.92
   5 -17   2    8.62    0.79
   5 -17   2    8.62    0.79
   5 -17   2    7.60    0.83
  -5  17   2    9.15    1.03
  -5  17   2    9.15    1.03
   5 -17   2    7.60    0.83
  -5 -17   2    6.89    0.88
   5 -17  -2    8.44    0.79
  -5 -17   2    6.89    0.88
  -5 -17   2    9.09    0.90
   5 -17  -2    8.44    0.79
   5  17   2    6.75    0.78
   5  17   2    7.75    0.91
  -5 -17   2    9.09    0.90
   5  17   2    7.75    0.91
   5  17   2    6.75    0.78
   6 -17   0    0.04    0.12
  -6 -17   0    0.61    0.41
  -6 -17   0    0.61    0.41
  -6 -17   0   -0.10    0.15
  -6 -17   0   -0.10    0.15
   6  17   0    0.10    0.22
  -6 -17   0   -0.02    0.25
  -6 -17   0   -0.02    0.25
  -6  17   0    0.40    0.33
   6  17   0    0.10    0.22
  -6  17   0    0.40    0.33
   6 -17   0    0.04    0.12
  -6 -17  -1   -0.24    0.31
   6  17  -1    0.00    0.19
   6 -17   1   -0.01    0.13
  -6  17   1    0.02    0.39
  -6 -17  -1    0.06    0.29
  -6 -17  -1    0.08    0.23
  -6 -17  -1    0.08    0.23
  -6  17   1    0.02    0.39
   6  17  -1    0.00    0.19
   6 -17   1   -0.01    0.13
  -6 -17  -1    0.06    0.29
   6 -17   1   -0.09    0.14
   6 -17   1   -0.09    0.14
  -6 -17  -1   -0.24    0.31
   6  17   1    0.10    0.16
  -6 -17   1    0.03    0.35
  -6 -17   1    0.21    0.20
  -6 -17   1    0.18    0.28
   6  17   1    0.09    0.24
  -6 -17   1    0.21    0.20
   6 -17  -1    0.03    0.12
   6 -17  -1    0.03    0.12
  -6 -17   1    0.03    0.35
   6  17   1    0.09    0.24
  -6 -17   1    0.18    0.28
   6  17   1    0.10    0.16
  -6  17   2   -0.07    0.41
  -6 -17  -2   -0.18    0.28
   6 -17   2    0.04    0.18
  -6  17   2   -0.07    0.41
   6  17  -2    0.24    0.21
   6 -17   2    0.04    0.18
   6 -17   2    0.17    0.14
  -6 -17  -2   -0.18    0.28
   6 -17   2    0.17    0.14
   6  17  -2    0.24    0.21
   6  17   2    0.48    0.30
   6 -17  -2   -0.02    0.13
  -6 -17   2    0.15    0.24
  -6 -17   2    0.17    0.25
  -6 -17   2    0.15    0.24
   6  17   2   -0.16    0.15
   6  17   2   -0.16    0.15
  -6 -17   2    0.17    0.25
   6 -17  -2   -0.02    0.13
   6  17   2    0.48    0.30
  -7 -17   0    2.12    0.51
   7  17   0    3.76    0.49
  -7 -17   0    3.31    0.55
  -7 -17   0    2.53    0.41
  -7  17   0    3.44    0.53
  -7 -17   0    2.53    0.41
   7 -17   0    3.24    0.41
   7 -17   0    3.24    0.41
  -7 -17   0    3.31    0.55
   7  17   0    3.76    0.49
  -7  17   0    3.44    0.53
  -7 -17   0    2.12    0.51
  -7 -17  -1   11.76    1.14
   7  17  -1   13.23    1.16
  -7  17   1   11.11    1.33
   7 -17   1   13.76    1.18
  -7 -17  -1   13.10    1.29
   7 -17   1   13.76    1.18
  -7 -17  -1   13.10    1.29
   7  17  -1   13.23    1.16
  -7 -17  -1   11.76    1.14
  -7  17   1   11.11    1.33
  -7 -17   1   13.88    1.37
   7  17   1   11.51    1.21
   7 -17  -1   12.53    1.16
   7  17   1   10.65    1.16
   7  17   1   11.51    1.21
   7  17   1   10.65    1.16
  -7 -17   1   13.88    1.37
  -7 -17   1   12.28    1.21
  -7 -17   1   12.28    1.21
   7 -17  -1   12.53    1.16
  -7 -17   1   13.86    1.29
  -7 -17   1   13.86    1.29
   7 -17   2    2.97    0.45
   7  17  -2    2.50    0.37
  -7 -17  -2    1.71    0.47
   7 -17   2    2.76    0.39
   7 -17   2    2.76    0.39
   7 -17   2    2.97    0.45
  -7  17   2    3.80    0.65
   7  17  -2    2.50    0.37
  -7 -17  -2    1.71    0.47
  -7  17   2    3.80    0.65
   7  17   2    2.31    0.46
  -7 -17   2    3.02    0.56
  -7 -17   2    2.34    0.43
  -7 -17   2    3.02    0.56
   7  17   2    2.31    0.46
   7 -17  -2    2.74    0.37
   7 -17  -2    2.74    0.37
   7  17   2    2.30    0.40
   7  17   2    2.30    0.40
  -7 -17   2    2.34    0.43
  -8 -17   0   25.01    2.17
  -8 -17   0   22.10    2.34
   8  17   0   25.88    2.19
  -8 -17   0   25.72    2.30
   8  17   0   25.88    2.19
  -8  17   0   25.95    2.29
  -8  17   0   25.95    2.29
  -8 -17   0   22.10    2.34
  -8 -17   0   25.72    2.30
  -8 -17   0   25.01    2.17
   8  17  -1   40.77    3.06
  -8 -17  -1   36.73    3.09
   8  17  -1   40.77    3.06
   8 -17   1   35.91    3.03
   8 -17   1   35.91    3.03
  -8 -17  -1   36.73    3.09
  -8  17   1   32.41    3.13
  -8  17   1   32.41    3.13
  -8 -17   1   32.81    3.05
   8  17   1   32.77    3.01
  -8 -17   1   36.19    3.07
   8  17   1   29.10    3.01
  -8 -17   1   32.81    3.05
   8  17   1   29.10    3.01
   8 -17  -1   38.88    3.03
  -8 -17   1   32.92    3.19
  -8 -17   1   36.19    3.07
   8 -17  -1   38.88    3.03
   8  17   1   32.77    3.01
  -8 -17   1   32.92    3.19
  -9 -17   0    4.53    0.74
  -9 -17   0    4.81    0.84
   9  17   0    5.56    0.61
  -9 -17   0    4.53    0.74
   9  17   0    5.56    0.61
  -9 -17   0    4.29    0.59
  -9  17   0    6.28    0.78
  -9 -17   0    4.29    0.59
  -9  17   0    6.28    0.78
  -9 -17   0    4.81    0.84
  -9 -17  -1   19.79    1.96
  -9  17   1   21.18    2.07
   9  17  -1   23.26    1.84
   9 -17   1   20.81    1.87
   9  17  -1   23.26    1.84
  -9  17   1   21.18    2.07
   9 -17   1   20.81    1.87
  -9 -17  -1   19.79    1.96
  -9 -17   1   21.01    1.98
   9  17   1   17.80    1.86
  -9 -17   1   18.10    2.04
   9  17   1   17.80    1.86
  -9 -17   1   20.83    1.91
  -9 -17   1   18.10    2.04
   9  17   1   19.13    1.85
  -9 -17   1   20.83    1.91
  -9 -17   1   21.01    1.98
   9 -17  -1   24.08    1.87
   9 -17  -1   24.08    1.87
   9  17   1   19.14    1.85
   0  18   0    0.29    0.27
   0  18   0    0.29    0.15
   0  18   0    0.29    0.15
   0 -18   0    0.02    0.15
   0 -18   0    0.02    0.15
   0  18   0    0.29    0.27
   0 -18   0    0.31    0.19
   0 -18   0    0.31    0.19
   0  18  -1    6.64    1.08
   0 -18  -1   10.05    0.96
   0 -18   1   10.62    0.93
   0  18  -1    6.64    1.08
   0 -18  -1   10.05    0.96
   0  18   1    9.04    0.83
   0  18  -1    7.88    0.84
   0 -18   1   10.62    0.93
   0 -18   1    8.59    0.88
   0 -18   1    8.59    0.88
   0  18   1    9.04    0.83
   0  18  -1    7.88    0.84
   0 -18   2    0.14    0.15
   0  18   2    0.07    0.15
   0  18   2    0.07    0.15
   0 -18   2    0.14    0.15
   0  18   2    0.24    0.36
   0 -18  -2    0.42    0.22
   0 -18  -2    0.42    0.22
   0 -18   2    0.45    0.19
   0 -18   2    0.45    0.19
   0  18   2    0.24    0.36
  -1 -18   0   61.31    4.71
   1 -18   0   55.62    4.59
  -1  18   0   58.48    4.62
   1  18   0   49.13    4.57
  -1 -18   0   47.20    4.59
  -1 -18   0   47.20    4.59
  -1  18   0   53.02    4.55
   1  18   0   49.13    4.57
  -1 -18   0   61.31    4.71
   1  18   0   56.95    4.62
   1  18   0   56.95    4.62
   1 -18   0   55.62    4.59
  -1  18   0   53.02    4.55
  -1  18   0   58.48    4.62
   1  18  -1   39.59    3.94
  -1  18   1   54.53    4.03
   1 -18   1   50.31    3.98
  -1  18   1   42.86    3.91
  -1  18   1   54.53    4.03
  -1 -18  -1   41.23    4.03
  -1 -18  -1   41.23    4.03
   1 -18   1   50.31    3.98
   1  18  -1   39.59    3.94
  -1  18   1   42.86    3.91
  -1 -18   1   40.19    3.96
  -1 -18   1   50.30    4.03
  -1  18  -1   49.57    3.91
   1 -18  -1   51.89    4.04
  -1  18  -1   49.58    3.91
   1 -18  -1   51.89    4.04
  -1 -18   1   50.30    4.03
  -1 -18   1   40.19    3.96
  -1  18   2   51.39    4.27
  -1  18   2   53.08    4.29
  -1  18   2   53.08    4.29
   1 -18   2   49.62    4.25
   1 -18   2   49.62    4.25
  -1  18   2   51.34    4.27
   1 -18  -2   47.32    4.25
   1  18   2   51.91    4.28
   1 -18  -2   47.32    4.25
   1  18   2   45.11    4.17
  -1 -18   2   49.14    4.25
   1  18   2   45.10    4.17
  -1 -18   2   49.14    4.25
   1  18   2   51.91    4.28
   2 -18   0    2.03    0.37
   2 -18   0    3.15    0.42
  -2 -18   0    2.74    0.47
  -2 -18   0    2.74    0.47
  -2  18   0    3.62    0.48
  -2  18   0    3.18    0.33
   2  18   0    3.15    0.44
  -2  18   0    3.62    0.48
   2 -18   0    3.15    0.42
   2 -18   0    2.03    0.37
   2  18   0    2.36    0.38
  -2  18   0    3.18    0.33
   2  18   0    2.36    0.38
   2  18   0    3.15    0.44
  -2  18   1    0.76    0.35
  -2  18   1    0.76    0.35
  -2  18   1    0.93    0.17
   2 -18   1    0.67    0.20
   2  18  -1    0.70    0.28
  -2  18   1    0.93    0.17
  -2 -18  -1    0.76    0.25
   2  18  -1    0.70    0.28
   2 -18   1    0.67    0.20
  -2 -18  -1    0.76    0.25
   2 -18   1    0.70    0.19
   2 -18   1    0.70    0.19
  -2  18  -1    0.29    0.28
   2  18   1    0.63    0.33
   2 -18  -1    0.58    0.22
   2  18   1    0.31    0.17
  -2 -18   1    0.80    0.20
  -2 -18   1    0.80    0.20
   2 -18  -1    0.58    0.22
  -2 -18   1    0.97    0.29
  -2  18  -1    0.29    0.28
   2  18   1    0.31    0.17
   2  18   1    0.63    0.33
  -2 -18   1    0.97    0.29
   2 -18   2    3.06    0.35
  -2  18   2    2.62    0.33
  -2  18   2    2.51    0.51
   2  18  -2    2.27    0.36
  -2  18   2    2.51    0.51
  -2 -18  -2    1.55    0.38
   2  18  -2    2.27    0.36
  -2 -18  -2    1.55    0.38
   2 -18   2    2.33    0.39
   2 -18   2    3.06    0.35
   2 -18   2    2.33    0.39
  -2  18   2    2.62    0.33
   2  18   2    2.25    0.35
  -2 -18   2    1.99    0.38
   2 -18  -2    2.39    0.40
  -2 -18   2    1.99    0.38
  -2 -18   2    2.96    0.41
   2  18   2    2.35    0.46
  -2 -18   2    2.96    0.41
   2  18   2    2.35    0.46
   2  18   2    2.25    0.35
   2 -18  -2    2.39    0.40
   3  18   0    0.18    0.25
  -3 -18   0    0.21    0.21
  -3 -18   0   -0.24    0.39
   3 -18   0    0.18    0.15
   3 -18   0   -0.06    0.13
   3  18   0    0.07    0.17
   3  18   0    0.18    0.25
  -3  18   0   -0.08    0.30
  -3  18   0   -0.08    0.30
  -3 -18   0   -0.24    0.39
   3  18   0    0.07    0.17
   3 -18   0   -0.06    0.13
   3 -18   0    0.18    0.15
  -3 -18   0    0.21    0.21
  -3  18   1    1.10    0.17
  -3 -18  -1    0.54    0.30
   3 -18   1    0.61    0.22
   3 -18   1    1.01    0.22
   3 -18   1    0.61    0.22
  -3 -18  -1    0.57    0.19
   3  18  -1    1.06    0.27
  -3 -18  -1    1.00    0.37
  -3  18   1    0.97    0.36
  -3 -18  -1    0.57    0.19
   3 -18   1    1.01    0.22
   3  18  -1    1.06    0.27
  -3  18   1    0.97    0.36
  -3  18   1    1.10    0.17
  -3 -18  -1    1.00    0.37
  -3 -18  -1    0.54    0.30
  -3 -18   1    0.80    0.23
   3  18   1    0.57    0.20
  -3  18  -1    0.77    0.32
  -3 -18   1    0.84    0.29
   3  18   1    0.87    0.33
   3 -18  -1    0.83    0.23
   3  18   1    0.87    0.33
  -3  18  -1    0.77    0.32
   3  18   1    0.57    0.20
  -3 -18   1    0.84    0.29
  -3 -18   1    0.80    0.23
   3 -18  -1    0.83    0.23
   3 -18   2   -0.01    0.11
  -3  18   2    0.18    0.15
  -3  18   2    0.32    0.38
   3  18  -2   -0.23    0.21
  -3  18   2    0.32    0.38
   3  18  -2   -0.23    0.21
   3 -18   2   -0.02    0.20
  -3 -18  -2   -0.16    0.23
   3 -18   2   -0.01    0.11
  -3 -18  -2   -0.16    0.23
  -3  18   2    0.18    0.15
   3 -18   2   -0.02    0.20
   3  18   2    0.31    0.34
   3 -18  -2    0.02    0.16
  -3 -18   2    0.08    0.19
  -3 -18   2   -0.08    0.24
  -3 -18   2   -0.08    0.24
   3  18   2    0.05    0.16
  -3 -18   2    0.08    0.19
   3 -18  -2    0.02    0.16
   3  18   2    0.31    0.34
   3  18   2    0.05    0.16
   4 -18   0    1.65    0.30
  -4  18   0    1.63    0.39
  -4 -18   0    1.31    0.46
  -4 -18   0    1.55    0.39
   4 -18   0    1.65    0.30
   4  18   0    1.77    0.35
   4  18   0    1.77    0.35
  -4 -18   0    1.32    0.40
  -4 -18   0    1.31    0.46
  -4 -18   0    1.32    0.40
  -4 -18   0    1.55    0.39
  -4  18   0    1.63    0.39
  -4  18   1    1.19    0.37
   4  18  -1    1.00    0.26
  -4 -18  -1    0.81    0.39
  -4 -18  -1    0.97    0.35
  -4 -18  -1    0.50    0.20
  -4 -18  -1    0.97    0.35
  -4 -18  -1    0.81    0.39
   4 -18   1    0.81    0.22
   4 -18   1    1.21    0.24
   4  18  -1    1.00    0.26
   4 -18   1    1.21    0.24
  -4 -18  -1    0.50    0.20
   4 -18   1    0.81    0.22
  -4  18   1    1.19    0.37
  -4 -18   1    1.41    0.33
   4  18   1    0.95    0.33
   4 -18  -1    1.16    0.25
  -4 -18   1    0.79    0.25
   4 -18  -1    1.16    0.25
   4  18   1    0.95    0.33
  -4 -18   1    1.41    0.33
  -4 -18   1    0.79    0.25
   4  18  -2    0.77    0.25
   4 -18   2    1.35    0.25
  -4 -18  -2    0.60    0.33
  -4  18   2    1.26    0.22
   4 -18   2    1.35    0.29
   4 -18   2    1.35    0.25
  -4 -18  -2    0.60    0.33
   4 -18   2    1.35    0.29
   4  18  -2    0.77    0.25
  -4  18   2    1.26    0.22
  -4 -18   2    0.87    0.29
  -4 -18   2    1.50    0.31
   4  18   2    0.87    0.37
   4 -18  -2    1.75    0.30
   4  18   2    1.11    0.24
   4 -18  -2    1.75    0.30
   4  18   2    0.87    0.37
  -4 -18   2    1.50    0.31
  -4 -18   2    0.87    0.29
   4  18   2    1.11    0.24
  -5 -18   0  150.51   13.35
  -5  18   0  169.91   13.23
  -5 -18   0  169.33   13.25
  -5 -18   0  169.34   13.25
  -5 -18   0  150.51   13.35
  -5  18   0  169.91   13.23
  -5 -18   0  144.37   13.20
  -5 -18   0  144.37   13.20
   5  18  -1   35.32    3.36
  -5  18   1   40.50    3.46
   5 -18   1   40.12    3.39
  -5 -18  -1   41.17    3.44
  -5 -18  -1   36.05    3.50
  -5 -18  -1   36.46    3.34
  -5 -18  -1   36.46    3.34
  -5 -18  -1   36.05    3.50
  -5 -18  -1   41.17    3.44
   5  18  -1   35.32    3.36
   5 -18   1   40.12    3.39
  -5  18   1   40.50    3.46
   5 -18  -1   46.26    3.42
   5  18   1   39.17    3.41
  -5 -18   1   41.73    3.42
   5  18   1   39.17    3.41
   5  18   1   38.11    3.37
  -5 -18   1   41.73    3.42
   5 -18  -1   46.26    3.42
   5  18   1   38.12    3.37
   5 -18   2  147.47   13.69
   5 -18   2  147.47   13.69
   5 -18   2  171.23   13.68
   5 -18   2  171.23   13.68
  -5 -18   2  164.41   13.73
   5 -18  -2  167.82   13.68
   5  18   2  167.50   13.66
  -5 -18   2  164.41   13.73
   5  18   2  167.50   13.66
   5 -18  -2  167.82   13.68
  -6  18   0    1.35    0.40
  -6 -18   0    1.07    0.49
  -6 -18   0    1.22    0.23
   6  18   0    1.30    0.32
   6 -18   0    1.31    0.27
  -6 -18   0    1.07    0.49
  -6  18   0    1.35    0.40
   6 -18   0    1.31    0.27
  -6 -18   0    1.15    0.40
  -6 -18   0    1.15    0.40
   6  18   0    1.30    0.32
  -6 -18   0    1.22    0.23
  -6 -18  -1    0.68    0.20
  -6 -18  -1    0.64    0.37
   6  18  -1    0.41    0.24
   6  18  -1    0.41    0.24
  -6  18   1    0.39    0.40
  -6 -18  -1    0.64    0.37
   6 -18   1    0.23    0.15
   6 -18   1    0.23    0.15
  -6 -18  -1    0.68    0.20
  -6  18   1    0.39    0.40
  -6 -18   1   -0.08    0.27
  -6 -18   1    0.24    0.39
   6 -18  -1    0.24    0.15
   6  18   1    0.60    0.29
   6 -18  -1    0.24    0.15
  -6 -18   1    0.24    0.39
  -6 -18   1   -0.08    0.27
  -6 -18   1    0.14    0.23
   6  18   1    0.60    0.29
  -6 -18   1    0.14    0.23
  -7 -18   0    5.86    0.93
   7 -18   0    8.80    0.81
   7  18   0    8.59    0.85
  -7 -18   0    5.86    0.93
  -7 -18   0    6.67    0.77
   7  18   0    8.59    0.85
  -7  18   0   10.78    1.01
  -7 -18   0    7.35    1.06
   7 -18   0    8.80    0.81
  -7 -18   0    6.67    0.77
  -7  18   0   10.78    1.01
  -7 -18   0    7.35    1.06
   7 -18   1    5.46    0.57
  -7  18   1    4.84    0.74
   7 -18   1    5.46    0.57
   7  18  -1    5.01    0.58
  -7  18   1    4.84    0.74
   7  18  -1    5.01    0.58
  -7 -18   1    5.05    0.65
  -7 -18   1    4.17    0.62
  -7 -18   1    4.55    0.76
  -7 -18   1    5.05    0.65
  -7 -18   1    4.17    0.62
   7 -18  -1    4.43    0.55
   7 -18  -1    4.43    0.55
  -7 -18   1    4.55    0.76
   8  18   0    0.59    0.26
  -8 -18   0    0.41    0.23
   8 -18   0    0.13    0.19
  -8 -18   0    0.05    0.32
  -8 -18   0    0.41    0.23
   8 -18   0    0.13    0.19
  -8 -18   0   -0.05    0.48
   8  18   0    0.59    0.26
  -8  18   0   -0.02    0.59
  -8 -18   0    0.05    0.32
  -8  18   0   -0.02    0.59
  -8 -18   0   -0.05    0.48
   0 -19   0    0.16    0.14
   0  19   0   -0.31    0.30
   0  19   0   -0.06    0.19
   0 -19   0    0.16    0.14
   0 -19   0    0.18    0.20
   0 -19   0    0.18    0.20
   0  19   0   -0.31    0.30
   0  19   0   -0.06    0.19
   0  19   1    0.00    0.30
   0 -19   1   -0.02    0.16
   0  19   1   -0.16    0.14
   0 -19   1   -0.02    0.16
   0 -19  -1    0.13    0.37
   0  19  -1   -0.10    0.21
   0  19  -1    0.23    0.29
   0 -19   1    0.07    0.17
   0  19  -1   -0.10    0.21
   0  19  -1    0.23    0.29
   0 -19   1    0.07    0.17
   0  19   1    0.00    0.30
   0 -19  -1    0.21    0.20
   0 -19  -1    0.13    0.37
   0  19   1   -0.16    0.14
   0 -19  -1    0.21    0.20
   0 -19   2    0.07    0.22
   0 -19   2    0.07    0.22
   0  19   2    0.14    0.36
   0  19   2    0.24    0.16
   0 -19   2   -0.04    0.14
   0 -19  -2   -0.05    0.20
   0 -19  -2   -0.05    0.20
   0  19   2    0.24    0.16
   0  19   2    0.14    0.36
   0 -19   2   -0.04    0.14
  -1  19   0    5.72    0.50
   1  19   0    4.39    0.51
   1 -19   0    3.83    0.51
  -1  19   0    5.72    0.50
  -1  19   0    5.88    0.72
  -1  19   0    5.88    0.72
   1  19   0    5.36    0.63
   1 -19   0    3.83    0.51
  -1 -19   0    3.80    0.52
   1  19   0    4.39    0.51
  -1 -19   0    3.80    0.52
   1  19   0    5.36    0.63
  -1  19   1    3.71    0.59
   1 -19   1    3.57    0.47
   1  19  -1    3.41    0.47
   1 -19   1    3.15    0.45
   1 -19   1    3.15    0.45
   1  19  -1    3.41    0.47
  -1  19   1    3.28    0.39
  -1  19   1    3.27    0.39
  -1  19   1    3.71    0.59
  -1 -19  -1    3.56    0.54
   1 -19   1    3.57    0.47
  -1 -19  -1    3.56    0.54
  -1 -19   1    2.44    0.45
   1  19   1    4.91    0.67
   1 -19  -1    3.47    0.49
   1 -19  -1    3.47    0.49
   1  19   1    3.45    0.42
  -1 -19   1    3.55    0.49
  -1 -19   1    3.55    0.49
   1 -19  -1    3.51    0.52
   1  19   1    3.45    0.42
   1  19   1    4.91    0.67
  -1 -19   1    2.44    0.45
   1 -19  -1    3.51    0.52
  -1  19  -1    2.40    0.47
  -1  19  -1    2.40    0.47
  -1  19   2    5.31    0.73
  -1  19   2    4.81    0.51
   1 -19   2    4.79    0.63
  -1 -19  -2    4.60    0.63
  -1  19   2    4.81    0.51
   1 -19   2    6.04    0.56
  -1  19   2    5.31    0.73
   1 -19   2    6.04    0.56
   1 -19   2    4.79    0.63
  -1 -19  -2    4.60    0.63
  -1 -19   2    4.49    0.60
   1  19   2    4.06    0.66
   1  19   2    4.06    0.66
   1 -19  -2    3.86    0.58
   1  19   2    4.36    0.51
   1 -19  -2    3.86    0.58
   1  19   2    4.36    0.51
  -1 -19   2    4.49    0.60
   2 -19   0   19.19    1.73
  -2 -19   0   19.86    1.73
   2  19   0   18.67    1.71
  -2 -19   0   19.86    1.73
   2 -19   0   19.19    1.73
   2  19   0   18.67    1.71
   2  19   0   20.71    1.79
   2  19   0   20.71    1.79
  -2 -19  -1   20.95    1.74
  -2 -19  -1   18.90    1.76
  -2  19   1   19.87    1.77
   2 -19   1   19.94    1.67
   2 -19   1   19.94    1.67
   2  19  -1   17.61    1.66
  -2  19   1   19.87    1.77
  -2 -19  -1   20.95    1.74
  -2 -19  -1   18.90    1.76
   2  19  -1   17.61    1.66
   2  19   1   17.05    1.63
   2 -19  -1   18.24    1.70
  -2 -19   1   16.11    1.65
   2  19   1   17.05    1.63
  -2 -19   1   16.11    1.65
   2 -19  -1   18.24    1.70
  -2  19   2   19.77    1.67
   2 -19   2   19.57    1.77
  -2  19   2   21.37    1.90
  -2  19   2   21.37    1.90
   2 -19   2   19.57    1.77
  -2  19   2   19.77    1.67
   2  19   2   18.23    1.69
  -2 -19   2   16.64    1.76
   2 -19  -2   20.40    1.77
   2  19   2   19.19    1.84
   2 -19  -2   20.40    1.77
   2  19   2   19.19    1.84
   2  19   2   18.23    1.69
  -2 -19   2   16.64    1.76
  -3 -19   0    7.31    0.88
  -3 -19   0    9.71    1.01
   3 -19   0    8.98    0.83
   3  19   0    8.43    0.86
  -3  19   0    7.62    0.95
  -3 -19   0    6.01    0.75
   3 -19   0    8.98    0.83
  -3 -19   0    9.71    1.01
  -3 -19   0    6.01    0.75
   3  19   0    8.43    0.86
  -3  19   0    7.62    0.95
  -3 -19   0    7.31    0.88
  -3 -19  -1   29.10    2.46
  -3 -19  -1   29.06    2.40
  -3 -19  -1   29.06    2.40
   3 -19   1   24.85    2.33
   3  19  -1   25.10    2.33
   3 -19   1   24.85    2.33
   3  19  -1   25.10    2.33
  -3  19   1   28.28    2.43
  -3  19   1   28.28    2.43
  -3 -19  -1   29.10    2.46
  -3 -19   1   24.59    2.33
   3 -19  -1   29.72    2.39
  -3 -19   1   24.59    2.33
   3  19   1   25.62    2.39
   3  19   1   24.72    2.30
   3 -19  -1   29.72    2.39
   3  19   1   24.72    2.30
   3  19   1   25.62    2.39
  -4 -19   0    1.38    0.51
  -4 -19   0    0.63    0.30
   4  19   0    0.66    0.23
  -4 -19   0    1.38    0.51
  -4  19   0    0.42    0.38
   4 -19   0    0.86    0.21
   4  19   0    0.90    0.32
  -4 -19   0    0.54    0.20
   4  19   0    0.66    0.23
  -4  19   0    0.42    0.38
  -4 -19   0    0.63    0.30
   4 -19   0    0.86    0.21
   4  19   0    0.90    0.32
  -4 -19   0    0.54    0.20
   4  19  -1    0.61    0.29
  -4 -19  -1    0.27    0.30
  -4 -19  -1    0.29    0.39
   4  19  -1    0.61    0.29
   4 -19   1    0.23    0.18
   4 -19   1    0.23    0.18
  -4 -19  -1    0.27    0.30
   4 -19   1    0.21    0.15
  -4  19   1    0.39    0.39
  -4  19   1    0.39    0.39
  -4 -19  -1    0.29    0.39
   4 -19   1    0.21    0.15
   4  19   1    0.22    0.20
   4  19   1    0.13    0.30
   4 -19  -1    0.41    0.18
  -4 -19   1    0.03    0.21
  -4 -19   1    0.03    0.21
   4  19   1    0.22    0.20
  -4 -19   1    0.04    0.26
   4  19   1    0.13    0.30
   4 -19  -1    0.41    0.18
  -4 -19   1    0.04    0.26
  -5 -19   0    4.70    0.73
  -5  19   0    5.39    0.67
  -5  19   0    5.39    0.67
  -5 -19   0    4.01    0.54
   5  19   0    5.67    0.66
   5  19   0    3.94    0.56
  -5 -19   0    4.70    0.73
  -5 -19   0    4.01    0.54
   5  19   0    5.67    0.66
  -5 -19   0    5.07    0.74
   5  19   0    3.94    0.56
  -5 -19   0    5.07    0.74
  -5  19   1    0.63    0.43
   5 -19   1    0.28    0.15
  -5 -19  -1    0.53    0.31
  -5  19   1    0.63    0.43
   5 -19   1    0.25    0.20
   5 -19   1    0.28    0.15
   5 -19   1    0.25    0.20
   5  19  -1    1.03    0.30
  -5 -19  -1    0.53    0.31
  -5 -19  -1    1.16    0.44
   5  19  -1    1.03    0.30
  -5 -19  -1    1.16    0.44
  -5 -19   1    0.74    0.33
  -5 -19   1    0.74    0.33
   5  19   1    0.14    0.19
   5  19   1    0.63    0.31
   5 -19  -1    0.67    0.21
   5  19   1    0.14    0.19
   5  19   1    0.63    0.31
  -5 -19   1    0.48    0.23
  -5 -19   1    0.48    0.23
   5 -19  -1    0.67    0.21
  -6 -19   0    0.12    0.21
  -6 -19   0    0.45    0.54
  -6 -19   0    0.72    0.34
  -6 -19   0    0.45    0.54
  -6  19   0    1.09    0.44
  -6  19   0    1.09    0.44
   6 -19   0    0.33    0.18
   6 -19   0    0.33    0.18
   6  19   0    0.83    0.31
   6  19   0    0.83    0.31
  -6 -19   0    0.12    0.21
  -6 -19   0    0.72    0.34
   0  20   0   -0.15    0.19
   0 -20   0    0.00    0.19
   0  20   0   -0.15    0.19
   0  20   0   -0.22    0.38
   0 -20   0    0.19    0.18
   0 -20   0    0.19    0.18
   0 -20   0    0.00    0.19
   0  20   0   -0.22    0.38
   0 -20  -1   14.97    1.55
   0  20  -1   14.04    1.40
   0 -20  -1   14.97    1.55
   0 -20   1   17.19    1.42
   0  20   1   15.60    1.50
   0 -20  -1   15.79    1.44
   0 -20   1   11.94    1.35
   0 -20   1   17.19    1.42
   0  20  -1   14.04    1.40
   0 -20  -1   15.79    1.44
   0  20   1   13.64    1.30
   0  20   1   15.60    1.50
   0  20   1   13.64    1.30
   0 -20   1   11.94    1.35
   1 -20   0    2.07    0.37
  -1 -20   0    1.19    0.27
   1 -20   0    2.07    0.37
   1 -20   0    1.17    0.28
  -1 -20   0    1.19    0.27
  -1 -20   0    2.24    0.41
   1  20   0    1.75    0.43
  -1 -20   0    2.24    0.41
  -1  20   0    1.61    0.46
   1 -20   0    1.17    0.28
  -1  20   0    1.61    0.46
   1  20   0    1.19    0.27
   1  20   0    1.75    0.43
   1  20   0    1.19    0.27
  -1 -20  -1   11.47    1.23
  -1  20   1   11.78    1.02
   1  20  -1    8.75    1.13
   1  20  -1    9.62    1.11
  -1 -20  -1   11.47    1.23
  -1 -20  -1   12.26    1.17
   1 -20   1   10.82    1.08
  -1  20   1   11.77    1.24
   1 -20   1   10.82    1.08
  -1  20   1   11.77    1.24
  -1 -20  -1   12.26    1.17
   1  20  -1    8.75    1.13
   1  20  -1    9.62    1.11
  -1  20   1   11.78    1.02
   1 -20  -1   12.24    1.13
   1  20   1   10.33    1.03
   1  20   1   12.52    1.23
  -1 -20   1   11.30    1.09
   1 -20  -1   12.24    1.13
  -1 -20   1   11.30    1.09
   1  20   1   12.52    1.23
   1  20   1   10.33    1.03
   2  20   0    6.42    0.73
  -2 -20   0    6.93    0.75
   2  20   0    6.42    0.73
  -2  20   0    8.94    0.96
   2  20   0    8.50    0.89
  -2  20   0    8.94    0.96
  -2 -20   0    6.93    0.75
   2  20   0    8.50    0.89
  -2 -20  -1    5.65    0.73
  -2  20   1    6.38    0.81
  -2  20   1    6.38    0.81
   2  20  -1    4.68    0.65
  -2 -20  -1    5.88    0.76
  -2 -20  -1    5.65    0.73
   2  20  -1    4.68    0.65
  -2 -20  -1    5.88    0.76
   2 -20   1    5.47    0.65
   2 -20   1    5.47    0.65
  -2 -20   1    5.13    0.66
   2  20   1    6.16    0.77
   2 -20  -1    5.45    0.67
   2 -20  -1    5.45    0.67
   2  20   1    5.20    0.61
   2  20   1    6.16    0.77
   2  20   1    5.20    0.61
  -2 -20   1    5.13    0.66
  -2 -20   1    6.87    0.74
  -2 -20   1    6.87    0.74
   3  20   0    0.23    0.22
   3  20   0    0.36    0.35
   3  20   0    0.36    0.35
   3 -20   0    0.34    0.18
   3  20   0    0.23    0.22
  -3 -20   0    0.44    0.20
  -3 -20   0    0.28    0.25
  -3 -20   0    0.44    0.20
  -3 -20   0    0.28    0.25
  -3  20   0    0.08    0.45
  -3  20   0    0.08    0.45
   3 -20   0    0.34    0.18
   0   0   0    0.00    0.00
;
_shelx_hkl_checksum              54257
loop_
_space_group_symop_operation_xyz
'x, y, z'
'-x, -y, z'
'-x+1/2, y+1/2, -z'
'x+1/2, -y+1/2, -z'
'-x, -y, -z'
'x, y, -z'
'x-1/2, -y-1/2, z'
'-x-1/2, y-1/2, z'
loop_
_atom_site_label
_atom_site_type_symbol
_atom_site_fract_x
_atom_site_fract_y
_atom_site_fract_z
_atom_site_U_iso_or_equiv
_atom_site_adp_type
_atom_site_occupancy
_atom_site_site_symmetry_order
_atom_site_calc_flag
_atom_site_refinement_flags_posn
_atom_site_refinement_flags_adp
_atom_site_refinement_flags_occupancy
Sm1 Sm 0.34072(2) 0.31860(2) 0.0000 0.00633(11) Uani 1 2 d S T P
Co1 Co 0.03465(5) 0.40587(3) 0.0000 0.00451(14) Uani 1 2 d S T P
Co2 Co 0.15186(4) 0.09645(4) 0.0000 0.00278(14) Uani 1 2 d S T P
Al1 Al 0.02488(11) 0.13203(8) 0.5000 0.0043(2) Uani 1 2 d S T P
Al2 Al 0.16078(9) 0.37873(9) 0.5000 0.0046(3) Uani 1 2 d S T P
Al3 Al 0.23627(11) 0.17348(8) 0.5000 0.0052(2) Uani 1 2 d S T P
Al4 Al 0.33187(10) 0.49076(9) 0.5000 0.0051(2) Uani 1 2 d S T P
Al5 Al 0.45251(12) 0.18034(7) 0.5000 0.0049(2) Uani 1 2 d S T P
Al6 Al 0.09658(9) 0.25308(7) 0.0000 0.0049(2) Uani 1 2 d S T P
Al7 Al 0.33983(9) 0.04444(10) 0.0000 0.0075(3) Uani 1 2 d S T P
Al8 Al 0.0000 0.5000 0.5000 0.0056(3) Uani 1 4 d S T P
Al9 Al 0.0000 0.0000 0.0000 0.0044(3) Uani 1 4 d S T P
loop_
_atom_site_aniso_label
_atom_site_aniso_U_11
_atom_site_aniso_U_22
_atom_site_aniso_U_33
_atom_site_aniso_U_23
_atom_site_aniso_U_13
_atom_site_aniso_U_12
Sm1 0.00627(17) 0.01071(16) 0.00200(15) 0.000 0.000 -0.00146(6)
Co1 0.0062(3) 0.0053(2) 0.0020(2) 0.000 0.000 0.00095(17)
Co2 0.0037(3) 0.0040(3) 0.0007(3) 0.000 0.000 0.00017(15)
Al1 0.0040(5) 0.0060(5) 0.0030(5) 0.000 0.000 0.0001(4)
Al2 0.0041(6) 0.0061(5) 0.0037(6) 0.000 0.000 0.0003(4)
Al3 0.0039(6) 0.0080(5) 0.0038(5) 0.000 0.000 -0.0020(4)
Al4 0.0070(6) 0.0054(5) 0.0028(5) 0.000 0.000 -0.0020(4)
Al5 0.0046(6) 0.0060(5) 0.0042(5) 0.000 0.000 0.0012(4)
Al6 0.0063(6) 0.0043(5) 0.0041(5) 0.000 0.000 0.0008(4)
Al7 0.0059(7) 0.0104(7) 0.0060(7) 0.000 0.000 0.0023(4)
Al8 0.0088(9) 0.0059(6) 0.0022(7) 0.000 0.000 0.0017(6)
Al9 0.0036(7) 0.0057(6) 0.0040(7) 0.000 0.000 -0.0019(6)
loop_
_atom_type_symbol
_atom_type_description
_atom_type_scat_dispersion_real
_atom_type_scat_dispersion_imag
_atom_type_scat_source
Al Al 0.0645 0.0514 'International Tables Vol C Tables 4.2.6.8 and 6.1.1.4'
Co Co 0.3494 0.9721 'International Tables Vol C Tables 4.2.6.8 and 6.1.1.4'
Sm Sm -0.1638 3.4418 'International Tables Vol C Tables 4.2.6.8 and 6.1.1.4'
loop_
_geom_angle_atom_site_label_1
_geom_angle_atom_site_label_2
_geom_angle_atom_site_label_3
_geom_angle
_geom_angle_site_symmetry_1
_geom_angle_site_symmetry_3
Al1 Sm1 Al1 79.52(3) 7_665 7_664
Al1 Sm1 Al2 150.79(4) 7_665 1_554
Al1 Sm1 Al2 93.14(3) 7_664 1_554
Al1 Sm1 Al2 93.14(3) 7_665 .
Al1 Sm1 Al2 150.79(4) 7_664 .
Al2 Sm1 Al2 79.50(3) 1_554 .
Al1 Sm1 Al5 103.00(3) 7_665 1_554
Al1 Sm1 Al5 53.99(3) 7_664 1_554
Al2 Sm1 Al5 94.95(3) 1_554 1_554
Al2 Sm1 Al5 154.03(3) . 1_554
Al1 Sm1 Al5 53.99(3) 7_665 .
Al1 Sm1 Al5 103.00(3) 7_664 .
Al2 Sm1 Al5 154.04(3) 1_554 .
Al2 Sm1 Al5 94.96(3) . .
Al5 Sm1 Al5 78.91(3) 1_554 .
Al1 Sm1 Al3 92.75(2) 7_665 .
Al1 Sm1 Al3 148.71(3) 7_664 .
Al2 Sm1 Al3 106.92(3) 1_554 .
Al2 Sm1 Al3 58.98(3) . .
Al5 Sm1 Al3 99.55(3) 1_554 .
Al5 Sm1 Al3 50.55(4) . .
Al1 Sm1 Al3 148.71(3) 7_665 1_554
Al1 Sm1 Al3 92.75(2) 7_664 1_554
Al2 Sm1 Al3 58.98(3) 1_554 1_554
Al2 Sm1 Al3 106.91(3) . 1_554
Al5 Sm1 Al3 50.55(4) 1_554 1_554
Al5 Sm1 Al3 99.55(3) . 1_554
Al3 Sm1 Al3 78.18(3) . 1_554
Al1 Sm1 Al4 56.44(3) 7_665 .
Al1 Sm1 Al4 104.48(3) 7_664 .
Al2 Sm1 Al4 99.28(3) 1_554 .
Al2 Sm1 Al4 50.11(3) . .
Al5 Sm1 Al4 154.97(3) 1_554 .
Al5 Sm1 Al4 96.23(2) . .
Al3 Sm1 Al4 95.88(2) . .
Al3 Sm1 Al4 153.35(3) 1_554 .
Al1 Sm1 Al4 104.48(3) 7_665 1_554
Al1 Sm1 Al4 56.44(3) 7_664 1_554
Al2 Sm1 Al4 50.10(3) 1_554 1_554
Al2 Sm1 Al4 99.28(3) . 1_554
Al5 Sm1 Al4 96.23(2) 1_554 1_554
Al5 Sm1 Al4 154.97(3) . 1_554
Al3 Sm1 Al4 153.36(3) . 1_554
Al3 Sm1 Al4 95.88(2) 1_554 1_554
Al4 Sm1 Al4 77.74(3) . 1_554
Al1 Sm1 Al6 140.238(16) 7_665 .
Al1 Sm1 Al6 140.238(16) 7_664 .
Al2 Sm1 Al6 52.90(2) 1_554 .
Al2 Sm1 Al6 52.90(2) . .
Al5 Sm1 Al6 103.64(3) 1_554 .
Al5 Sm1 Al6 103.64(3) . .
Al3 Sm1 Al6 54.04(3) . .
Al3 Sm1 Al6 54.04(3) 1_554 .
Al4 Sm1 Al6 101.37(3) . .
Al4 Sm1 Al6 101.37(3) 1_554 .
Al1 Sm1 Al9 51.287(18) 7_665 3
Al1 Sm1 Al9 51.287(18) 7_664 3
Al2 Sm1 Al9 102.35(2) 1_554 3
Al2 Sm1 Al9 102.35(2) . 3
Al5 Sm1 Al9 103.61(2) 1_554 3
Al5 Sm1 Al9 103.61(2) . 3
Al3 Sm1 Al9 140.609(15) . 3
Al3 Sm1 Al9 140.610(15) 1_554 3
Al4 Sm1 Al9 53.26(2) . 3
Al4 Sm1 Al9 53.26(2) 1_554 3
Al6 Sm1 Al9 144.468(19) . 3
Al6 Co1 Al8 125.404(10) . .
Al6 Co1 Al8 125.404(10) . 1_554
Al8 Co1 Al8 109.158(19) . 1_554
Al6 Co1 Al7 125.75(5) . 7_565
Al8 Co1 Al7 71.04(2) . 7_565
Al8 Co1 Al7 71.04(2) 1_554 7_565
Al6 Co1 Al7 122.55(5) . 3
Al8 Co1 Al7 70.985(18) . 3
Al8 Co1 Al7 70.985(18) 1_554 3
Al7 Co1 Al7 111.70(4) 7_565 3
Al6 Co1 Al5 71.09(3) . 7_564
Al8 Co1 Al5 146.27(4) . 7_564
Al8 Co1 Al5 64.01(2) 1_554 7_564
Al7 Co1 Al5 75.75(4) 7_565 7_564
Al7 Co1 Al5 128.81(2) 3 7_564
Al6 Co1 Al5 71.09(3) . 7_565
Al8 Co1 Al5 64.01(2) . 7_565
Al8 Co1 Al5 146.27(4) 1_554 7_565
Al7 Co1 Al5 75.75(4) 7_565 7_565
Al7 Co1 Al5 128.81(2) 3 7_565
Al5 Co1 Al5 102.36(5) 7_564 7_565
Al6 Co1 Al2 69.78(3) . .
Al8 Co1 Al2 63.78(2) . .
Al8 Co1 Al2 145.54(4) 1_554 .
Al7 Co1 Al2 128.97(2) 7_565 .
Al7 Co1 Al2 75.07(4) 3 .
Al5 Co1 Al2 140.87(4) 7_564 .
Al5 Co1 Al2 64.22(4) 7_565 .
Al6 Co1 Al2 69.78(3) . 1_554
Al8 Co1 Al2 145.54(4) . 1_554
Al8 Co1 Al2 63.78(2) 1_554 1_554
Al7 Co1 Al2 128.97(2) 7_565 1_554
Al7 Co1 Al2 75.07(4) 3 1_554
Al5 Co1 Al2 64.22(4) 7_564 1_554
Al5 Co1 Al2 140.87(4) 7_565 1_554
Al2 Co1 Al2 101.97(4) . 1_554
Al6 Co1 Co1 178.34(4) . 5_565
Al8 Co1 Co1 54.579(10) . 5_565
Al8 Co1 Co1 54.579(10) 1_554 5_565
Al7 Co1 Co1 55.91(4) 7_565 5_565
Al7 Co1 Co1 55.79(3) 3 5_565
Al5 Co1 Co1 109.85(3) 7_564 5_565
Al5 Co1 Co1 109.85(3) 7_565 5_565
Al2 Co1 Co1 109.28(3) . 5_565
Al2 Co1 Co1 109.28(3) 1_554 5_565
Al9 Co2 Al6 109.26(4) . .
Al9 Co2 Al7 126.03(5) . .
Al6 Co2 Al7 124.71(5) . .
Al9 Co2 Al3 126.70(3) . 1_554
Al6 Co2 Al3 72.60(3) . 1_554
Al7 Co2 Al3 74.68(4) . 1_554
Al9 Co2 Al3 126.70(3) . .
Al6 Co2 Al3 72.60(3) . .
Al7 Co2 Al3 74.68(4) . .
Al3 Co2 Al3 105.21(5) 1_554 .
Al9 Co2 Al4 73.02(3) . 3_545
Al6 Co2 Al4 126.92(3) . 3_545
Al7 Co2 Al4 74.91(4) . 3_545
Al3 Co2 Al4 66.55(3) 1_554 3_545
Al3 Co2 Al4 149.59(5) . 3_545
Al9 Co2 Al4 73.02(3) . 3_546
Al6 Co2 Al4 126.92(3) . 3_546
Al7 Co2 Al4 74.91(4) . 3_546
Al3 Co2 Al4 149.59(5) 1_554 3_546
Al3 Co2 Al4 66.55(3) . 3_546
Al4 Co2 Al4 104.98(5) 3_545 3_546
Al9 Co2 Al1 68.02(3) . .
Al6 Co2 Al1 68.52(3) . .
Al7 Co2 Al1 129.76(2) . .
Al3 Co2 Al1 141.11(4) 1_554 .
Al3 Co2 Al1 63.70(4) . .
Al4 Co2 Al1 141.04(4) 3_545 .
Al4 Co2 Al1 63.77(4) 3_546 .
Al9 Co2 Al1 68.02(3) . 1_554
Al6 Co2 Al1 68.52(3) . 1_554
Al7 Co2 Al1 129.76(2) . 1_554
Al3 Co2 Al1 63.70(4) 1_554 1_554
Al3 Co2 Al1 141.11(4) . 1_554
Al4 Co2 Al1 63.77(4) 3_545 1_554
Al4 Co2 Al1 141.04(4) 3_546 1_554
Al1 Co2 Al1 100.48(5) . 1_554
Co2 Al1 Co2 100.48(5) . 1_556
Co2 Al1 Al3 56.63(3) . .
Co2 Al1 Al3 56.63(3) 1_556 .
Co2 Al1 Al4 56.67(3) . 3_546
Co2 Al1 Al4 56.67(3) 1_556 3_546
Al3 Al1 Al4 61.47(5) . 3_546
Co2 Al1 Al9 51.647(17) . .
Co2 Al1 Al9 119.14(5) 1_556 .
Al3 Al1 Al9 105.08(4) . .
Al4 Al1 Al9 63.85(3) 3_546 .
Co2 Al1 Al9 119.14(5) . 1_556
Co2 Al1 Al9 51.646(17) 1_556 1_556
Al3 Al1 Al9 105.08(4) . 1_556
Al4 Al1 Al9 63.85(3) 3_546 1_556
Al9 Al1 Al9 92.16(3) . 1_556
Co2 Al1 Al6 118.52(5) . 1_556
Co2 Al1 Al6 51.61(3) 1_556 1_556
Al3 Al1 Al6 63.33(4) . 1_556
Al4 Al1 Al6 104.90(5) 3_546 1_556
Al9 Al1 Al6 167.56(6) . 1_556
Al9 Al1 Al6 86.978(16) 1_556 1_556
Co2 Al1 Al6 51.61(3) . .
Co2 Al1 Al6 118.52(5) 1_556 .
Al3 Al1 Al6 63.32(4) . .
Al4 Al1 Al6 104.90(5) 3_546 .
Al9 Al1 Al6 86.978(16) . .
Al9 Al1 Al6 167.56(6) 1_556 .
Al6 Al1 Al6 91.20(5) 1_556 .
Co2 Al1 Al5 112.31(3) . 7_565
Co2 Al1 Al5 112.31(3) 1_556 7_565
Al3 Al1 Al5 95.71(5) . 7_565
Al4 Al1 Al5 157.19(6) 3_546 7_565
Al9 Al1 Al5 127.87(3) . 7_565
Al9 Al1 Al5 127.87(3) 1_556 7_565
Al6 Al1 Al5 60.70(3) 1_556 7_565
Al6 Al1 Al5 60.71(3) . 7_565
Co2 Al1 Al4 111.95(3) . 7_565
Co2 Al1 Al4 111.95(3) 1_556 7_565
Al3 Al1 Al4 156.46(6) . 7_565
Al4 Al1 Al4 94.98(5) 3_546 7_565
Al9 Al1 Al4 60.31(3) . 7_565
Al9 Al1 Al4 60.31(3) 1_556 7_565
Al6 Al1 Al4 128.75(3) 1_556 7_565
Al6 Al1 Al4 128.75(3) . 7_565
Al5 Al1 Al4 107.83(5) 7_565 7_565
Co2 Al1 Sm1 89.996(12) . 7_565
Co2 Al1 Sm1 169.51(4) 1_556 7_565
Al3 Al1 Sm1 131.76(3) . 7_565
Al4 Al1 Sm1 130.94(3) 3_546 7_565
Al9 Al1 Sm1 67.223(17) . 7_565
Al9 Al1 Sm1 122.29(4) 1_556 7_565
Al6 Al1 Sm1 123.36(5) 1_556 7_565
Al6 Al1 Sm1 68.66(3) . 7_565
Al5 Al1 Sm1 63.37(3) 7_565 7_565
Al4 Al1 Sm1 62.79(3) 7_565 7_565
Co2 Al1 Sm1 169.51(4) . 7_566
Co2 Al1 Sm1 89.996(12) 1_556 7_566
Al3 Al1 Sm1 131.76(3) . 7_566
Al4 Al1 Sm1 130.94(3) 3_546 7_566
Al9 Al1 Sm1 122.29(4) . 7_566
Al9 Al1 Sm1 67.223(17) 1_556 7_566
Al6 Al1 Sm1 68.66(3) 1_556 7_566
Al6 Al1 Sm1 123.36(5) . 7_566
Al5 Al1 Sm1 63.37(3) 7_565 7_566
Al4 Al1 Sm1 62.79(3) 7_565 7_566
Sm1 Al1 Sm1 79.52(3) 7_565 7_566
Co1 Al2 Co1 101.97(4) . 1_556
Co1 Al2 Al8 55.91(2) . .
Co1 Al2 Al8 55.91(2) 1_556 .
Co1 Al2 Al4 113.31(4) . .
Co1 Al2 Al4 113.32(4) 1_556 .
Al8 Al2 Al4 101.85(6) . .
Co1 Al2 Al5 57.77(3) . 7_565
Co1 Al2 Al5 57.77(3) 1_556 7_565
Al8 Al2 Al5 59.19(3) . 7_565
Al4 Al2 Al5 161.04(7) . 7_565
Co1 Al2 Al6 51.05(3) . .
Co1 Al2 Al6 118.43(5) 1_556 .
Al8 Al2 Al6 101.99(4) . .
Al4 Al2 Al6 127.94(3) . .
Al5 Al2 Al6 61.93(3) 7_565 .
Co1 Al2 Al6 118.43(5) . 1_556
Co1 Al2 Al6 51.05(3) 1_556 1_556
Al8 Al2 Al6 101.99(4) . 1_556
Al4 Al2 Al6 127.94(3) . 1_556
Al5 Al2 Al6 61.93(3) 7_565 1_556
Al6 Al2 Al6 90.63(5) . 1_556
Co1 Al2 Sm1 167.71(4) . 1_556
Co1 Al2 Sm1 89.052(13) 1_556 1_556
Al8 Al2 Sm1 136.28(2) . 1_556
Al4 Al2 Sm1 66.09(3) . 1_556
Al5 Al2 Sm1 126.55(4) 7_565 1_556
Al6 Al2 Sm1 118.74(5) . 1_556
Al6 Al2 Sm1 64.63(3) 1_556 1_556
Co1 Al2 Sm1 89.052(13) . .
Co1 Al2 Sm1 167.71(4) 1_556 .
Al8 Al2 Sm1 136.28(3) . .
Al4 Al2 Sm1 66.09(3) . .
Al5 Al2 Sm1 126.55(4) 7_565 .
Al6 Al2 Sm1 64.63(3) . .
Al6 Al2 Sm1 118.74(5) 1_556 .
Sm1 Al2 Sm1 79.50(3) 1_556 .
Co2 Al3 Co2 105.20(5) . 1_556
Co2 Al3 Al5 115.72(4) . .
Co2 Al3 Al5 115.72(4) 1_556 .
Co2 Al3 Al1 59.67(3) . .
Co2 Al3 Al1 59.67(3) 1_556 .
Al5 Al3 Al1 169.34(6) . .
Co2 Al3 Al4 56.79(3) . 3_546
Co2 Al3 Al4 56.79(3) 1_556 3_546
Al5 Al3 Al4 110.00(5) . 3_546
Al1 Al3 Al4 59.34(5) . 3_546
Co2 Al3 Al6 51.15(3) . .
Co2 Al3 Al6 118.21(5) 1_556 .
Al5 Al3 Al6 126.01(3) . .
Al1 Al3 Al6 59.97(4) . .
Al4 Al3 Al6 101.08(4) 3_546 .
Co2 Al3 Al6 118.21(5) . 1_556
Co2 Al3 Al6 51.15(3) 1_556 1_556
Al5 Al3 Al6 126.01(3) . 1_556
Al1 Al3 Al6 59.97(4) . 1_556
Al4 Al3 Al6 101.08(4) 3_546 1_556
Al6 Al3 Al6 87.62(5) . 1_556
Co2 Al3 Sm1 87.760(13) . .
Co2 Al3 Sm1 164.31(4) 1_556 .
Al5 Al3 Sm1 64.25(3) . .
Al1 Al3 Sm1 123.09(4) . .
Al4 Al3 Sm1 138.85(2) 3_546 .
Al6 Al3 Sm1 63.24(3) . .
Al6 Al3 Sm1 115.01(4) 1_556 .
Co2 Al3 Sm1 164.31(4) . 1_556
Co2 Al3 Sm1 87.761(13) 1_556 1_556
Al5 Al3 Sm1 64.25(3) . 1_556
Al1 Al3 Sm1 123.09(4) . 1_556
Al4 Al3 Sm1 138.85(2) 3_546 1_556
Al6 Al3 Sm1 115.01(4) . 1_556
Al6 Al3 Sm1 63.24(3) 1_556 1_556
Sm1 Al3 Sm1 78.18(3) . 1_556
Co2 Al4 Co2 104.98(5) 3_556 3
Co2 Al4 Al2 115.35(4) 3_556 .
Co2 Al4 Al2 115.35(4) 3 .
Co2 Al4 Al1 59.56(3) 3_556 3_556
Co2 Al4 Al1 59.56(3) 3 3_556
Al2 Al4 Al1 168.38(7) . 3_556
Co2 Al4 Al3 56.66(3) 3_556 3_556
Co2 Al4 Al3 56.66(3) 3 3_556
Al2 Al4 Al3 109.19(6) . 3_556
Al1 Al4 Al3 59.19(5) 3_556 3_556
Co2 Al4 Al9 50.740(18) 3_556 3_556
Co2 Al4 Al9 117.46(5) 3 3_556
Al2 Al4 Al9 127.17(3) . 3_556
Al1 Al4 Al9 59.24(3) 3_556 3_556
Al3 Al4 Al9 100.28(4) 3_556 3_556
Co2 Al4 Al9 117.46(5) 3_556 3
Co2 Al4 Al9 50.740(18) 3 3
Al2 Al4 Al9 127.17(3) . 3
Al1 Al4 Al9 59.24(3) 3_556 3
Al3 Al4 Al9 100.28(4) 3_556 3
Al9 Al4 Al9 87.19(4) 3_556 3
Co2 Al4 Al1 107.01(4) 3_556 7_665
Co2 Al4 Al1 107.01(4) 3 7_665
Al2 Al4 Al1 106.60(6) . 7_665
Al1 Al4 Al1 85.01(5) 3_556 7_665
Al3 Al4 Al1 144.20(6) 3_556 7_665
Al9 Al4 Al1 56.27(2) 3_556 7_665
Al9 Al4 Al1 56.27(2) 3 7_665
Co2 Al4 Sm1 88.211(14) 3_556 1_556
Co2 Al4 Sm1 164.68(4) 3 1_556
Al2 Al4 Sm1 63.80(3) . 1_556
Al1 Al4 Sm1 124.17(4) 3_556 1_556
Al3 Al4 Sm1 138.66(2) 3_556 1_556
Al9 Al4 Sm1 65.032(17) 3_556 1_556
Al9 Al4 Sm1 116.32(4) 3 1_556
Al1 Al4 Sm1 60.77(3) 7_665 1_556
Co2 Al4 Sm1 164.68(4) 3_556 .
Co2 Al4 Sm1 88.212(14) 3 .
Al2 Al4 Sm1 63.80(3) . .
Al1 Al4 Sm1 124.17(4) 3_556 .
Al3 Al4 Sm1 138.66(2) 3_556 .
Al9 Al4 Sm1 116.32(4) 3_556 .
Al9 Al4 Sm1 65.032(17) 3 .
Al1 Al4 Sm1 60.77(3) 7_665 .
Sm1 Al4 Sm1 77.74(3) 1_556 .
Co1 Al5 Co1 102.36(5) 7_665 7_666
Co1 Al5 Al8 55.94(2) 7_665 3_546
Co1 Al5 Al8 55.94(2) 7_666 3_546
Co1 Al5 Al3 112.40(4) 7_665 .
Co1 Al5 Al3 112.40(4) 7_666 .
Al8 Al5 Al3 100.75(4) 3_546 .
Co1 Al5 Al2 58.02(3) 7_665 7_665
Co1 Al5 Al2 58.02(3) 7_666 7_665
Al8 Al5 Al2 59.02(4) 3_546 7_665
Al3 Al5 Al2 159.77(6) . 7_665
Co1 Al5 Al1 109.40(4) 7_665 7_665
Co1 Al5 Al1 109.40(4) 7_666 7_665
Al8 Al5 Al1 148.68(6) 3_546 7_665
Al3 Al5 Al1 110.57(5) . 7_665
Al2 Al5 Al1 89.66(5) 7_665 7_665
Co1 Al5 Al6 117.21(6) 7_665 7_666
Co1 Al5 Al6 50.60(3) 7_666 7_666
Al8 Al5 Al6 100.81(4) 3_546 7_666
Al3 Al5 Al6 129.89(3) . 7_666
Al2 Al5 Al6 60.42(4) 7_665 7_666
Al1 Al5 Al6 58.80(3) 7_665 7_666
Co1 Al5 Al6 50.60(3) 7_665 7_665
Co1 Al5 Al6 117.21(6) 7_666 7_665
Al8 Al5 Al6 100.81(4) 3_546 7_665
Al3 Al5 Al6 129.89(3) . 7_665
Al2 Al5 Al6 60.42(4) 7_665 7_665
Al1 Al5 Al6 58.80(3) 7_665 7_665
Al6 Al5 Al6 88.98(5) 7_666 7_665
Co1 Al5 Sm1 89.277(12) 7_665 .
Co1 Al5 Sm1 167.85(3) 7_666 .
Al8 Al5 Sm1 135.65(2) 3_546 .
Al3 Al5 Sm1 65.20(3) . .
Al2 Al5 Sm1 128.15(4) 7_665 .
Al1 Al5 Sm1 62.64(3) 7_665 .
Al6 Al5 Sm1 120.77(4) 7_666 .
Al6 Al5 Sm1 67.73(3) 7_665 .
Co1 Al5 Sm1 167.85(3) 7_665 1_556
Co1 Al5 Sm1 89.277(12) 7_666 1_556
Al8 Al5 Sm1 135.65(2) 3_546 1_556
Al3 Al5 Sm1 65.20(3) . 1_556
Al2 Al5 Sm1 128.15(4) 7_665 1_556
Al1 Al5 Sm1 62.64(3) 7_665 1_556
Al6 Al5 Sm1 67.73(3) 7_666 1_556
Al6 Al5 Sm1 120.77(4) 7_665 1_556
Sm1 Al5 Sm1 78.91(3) . 1_556
Co1 Al6 Co2 177.65(6) . .
Co1 Al6 Al1 118.79(4) . .
Co2 Al6 Al1 59.87(3) . .
Co1 Al6 Al1 118.79(4) . 1_554
Co2 Al6 Al1 59.87(3) . 1_554
Al1 Al6 Al1 91.20(5) . 1_554
Co1 Al6 Al2 59.17(3) . .
Co2 Al6 Al2 122.13(4) . .
Al1 Al6 Al2 89.04(3) . .
Al1 Al6 Al2 177.68(5) 1_554 .
Co1 Al6 Al2 59.17(3) . 1_554
Co2 Al6 Al2 122.13(4) . 1_554
Al1 Al6 Al2 177.68(5) . 1_554
Al1 Al6 Al2 89.04(3) 1_554 1_554
Al2 Al6 Al2 90.63(5) . 1_554
Co1 Al6 Al5 58.31(3) . 7_564
Co2 Al6 Al5 120.34(4) . 7_564
Al1 Al6 Al5 120.58(5) . 7_564
Al1 Al6 Al5 60.49(3) 1_554 7_564
Al2 Al6 Al5 117.47(4) . 7_564
Al2 Al6 Al5 57.65(4) 1_554 7_564
Co1 Al6 Al5 58.31(3) . 7_565
Co2 Al6 Al5 120.34(4) . 7_565
Al1 Al6 Al5 60.49(3) . 7_565
Al1 Al6 Al5 120.58(5) 1_554 7_565
Al2 Al6 Al5 57.65(4) . 7_565
Al2 Al6 Al5 117.47(4) 1_554 7_565
Al5 Al6 Al5 88.98(5) 7_564 7_565
Co1 Al6 Al3 125.03(3) . 1_554
Co2 Al6 Al3 56.25(3) . 1_554
Al1 Al6 Al3 116.11(4) . 1_554
Al1 Al6 Al3 56.70(4) 1_554 1_554
Al2 Al6 Al3 125.15(5) . 1_554
Al2 Al6 Al3 65.88(3) 1_554 1_554
Al5 Al6 Al3 91.58(3) 7_564 1_554
Al5 Al6 Al3 176.17(5) 7_565 1_554
Co1 Al6 Al3 125.03(3) . .
Co2 Al6 Al3 56.25(3) . .
Al1 Al6 Al3 56.70(4) . .
Al1 Al6 Al3 116.11(5) 1_554 .
Al2 Al6 Al3 65.88(3) . .
Al2 Al6 Al3 125.15(5) 1_554 .
Al5 Al6 Al3 176.17(5) 7_564 .
Al5 Al6 Al3 91.58(3) 7_565 .
Al3 Al6 Al3 87.62(5) 1_554 .
Co1 Al6 Sm1 92.12(4) . .
Co2 Al6 Sm1 90.22(4) . .
Al1 Al6 Sm1 119.29(4) . .
Al1 Al6 Sm1 119.30(4) 1_554 .
Al2 Al6 Sm1 62.47(3) . .
Al2 Al6 Sm1 62.47(3) 1_554 .
Al5 Al6 Sm1 120.12(4) 7_564 .
Al5 Al6 Sm1 120.12(4) 7_565 .
Al3 Al6 Sm1 62.71(3) 1_554 .
Al3 Al6 Sm1 62.71(3) . .
Co1 Al6 Sm1 88.59(4) . 7_565
Co2 Al6 Sm1 89.07(4) . 7_565
Al1 Al6 Sm1 60.30(3) . 7_565
Al1 Al6 Sm1 60.30(3) 1_554 7_565
Al2 Al6 Sm1 117.95(3) . 7_565
Al2 Al6 Sm1 117.95(3) 1_554 7_565
Al5 Al6 Sm1 60.30(3) 7_564 7_565
Al5 Al6 Sm1 60.30(3) 7_565 7_565
Al3 Al6 Sm1 116.84(3) 1_554 7_565
Al3 Al6 Sm1 116.84(3) . 7_565
Sm1 Al6 Sm1 179.29(3) . 7_565
Co2 Al7 Co1 145.87(7) . 7_665
Co2 Al7 Co1 145.83(6) . 3_545
Co1 Al7 Co1 68.30(4) 7_665 3_545
Co2 Al7 Al8 136.358(16) . 3_546
Co1 Al7 Al8 53.22(2) 7_665 3_546
Co1 Al7 Al8 53.20(2) 3_545 3_546
Co2 Al7 Al8 136.358(16) . 3_545
Co1 Al7 Al8 53.22(2) 7_665 3_545
Co1 Al7 Al8 53.20(2) 3_545 3_545
Al8 Al7 Al8 87.28(3) 3_546 3_545
Co1 Al8 Co1 180.0 . 5_566
Co1 Al8 Co1 70.843(19) . 5_565
Co1 Al8 Co1 109.157(19) 5_566 5_565
Co1 Al8 Co1 109.157(19) . 1_556
Co1 Al8 Co1 70.843(19) 5_566 1_556
Co1 Al8 Co1 180.000(19) 5_565 1_556
Co1 Al8 Al2 60.303(15) . .
Co1 Al8 Al2 119.697(15) 5_566 .
Co1 Al8 Al2 119.697(15) 5_565 .
Co1 Al8 Al2 60.303(15) 1_556 .
Co1 Al8 Al2 119.697(15) . 5_566
Co1 Al8 Al2 60.303(15) 5_566 5_566
Co1 Al8 Al2 60.303(15) 5_565 5_566
Co1 Al8 Al2 119.697(15) 1_556 5_566
Al2 Al8 Al2 180.0 . 5_566
Co1 Al8 Al5 60.051(15) . 7_565
Co1 Al8 Al5 119.951(15) 5_566 7_565
Co1 Al8 Al5 119.951(15) 5_565 7_565
Co1 Al8 Al5 60.049(15) 1_556 7_565
Al2 Al8 Al5 61.79(4) . 7_565
Al2 Al8 Al5 118.21(4) 5_566 7_565
Co1 Al8 Al5 119.949(15) . 3_556
Co1 Al8 Al5 60.049(15) 5_566 3_556
Co1 Al8 Al5 60.049(15) 5_565 3_556
Co1 Al8 Al5 119.951(15) 1_556 3_556
Al2 Al8 Al5 118.21(4) . 3_556
Al2 Al8 Al5 61.79(4) 5_566 3_556
Al5 Al8 Al5 180.0 7_565 3_556
Co1 Al8 Al7 55.73(3) . 7_565
Co1 Al8 Al7 124.27(3) 5_566 7_565
Co1 Al8 Al7 55.82(3) 5_565 7_565
Co1 Al8 Al7 124.18(3) 1_556 7_565
Al2 Al8 Al7 112.00(3) . 7_565
Al2 Al8 Al7 68.00(3) 5_566 7_565
Al5 Al8 Al7 68.38(3) 7_565 7_565
Al5 Al8 Al7 111.62(3) 3_556 7_565
Co1 Al8 Al7 124.27(3) . 3_556
Co1 Al8 Al7 55.73(3) 5_566 3_556
Co1 Al8 Al7 124.18(3) 5_565 3_556
Co1 Al8 Al7 55.82(3) 1_556 3_556
Al2 Al8 Al7 68.00(3) . 3_556
Al2 Al8 Al7 112.00(3) 5_566 3_556
Al5 Al8 Al7 111.62(3) 7_565 3_556
Al5 Al8 Al7 68.38(3) 3_556 3_556
Al7 Al8 Al7 180.0 7_565 3_556
Co1 Al8 Al7 124.18(3) . 7_566
Co1 Al8 Al7 55.82(3) 5_566 7_566
Co1 Al8 Al7 124.27(3) 5_565 7_566
Co1 Al8 Al7 55.73(3) 1_556 7_566
Al2 Al8 Al7 112.00(3) . 7_566
Al2 Al8 Al7 68.00(3) 5_566 7_566
Al5 Al8 Al7 68.38(3) 7_565 7_566
Al5 Al8 Al7 111.62(3) 3_556 7_566
Al7 Al8 Al7 87.28(3) 7_565 7_566
Al7 Al8 Al7 92.72(3) 3_556 7_566
Co1 Al8 Al7 55.82(3) . 3
Co1 Al8 Al7 124.18(3) 5_566 3
Co1 Al8 Al7 55.73(3) 5_565 3
Co1 Al8 Al7 124.27(3) 1_556 3
Al2 Al8 Al7 68.00(3) . 3
Al2 Al8 Al7 112.00(3) 5_566 3
Al5 Al8 Al7 111.62(3) 7_565 3
Al5 Al8 Al7 68.38(3) 3_556 3
Al7 Al8 Al7 92.72(3) 7_565 3
Al7 Al8 Al7 87.28(3) 3_556 3
Al7 Al8 Al7 180.0 7_566 3
Co2 Al9 Co2 180.0 5 .
Co2 Al9 Al1 60.33(3) 5 5
Co2 Al9 Al1 119.67(3) . 5
Co2 Al9 Al1 60.33(3) 5 5_556
Co2 Al9 Al1 119.67(3) . 5_556
Al1 Al9 Al1 92.16(3) 5 5_556
Co2 Al9 Al1 119.67(3) 5 1_554
Co2 Al9 Al1 60.33(3) . 1_554
Al1 Al9 Al1 87.84(3) 5 1_554
Al1 Al9 Al1 180.00(6) 5_556 1_554
Co2 Al9 Al1 119.67(3) 5 .
Co2 Al9 Al1 60.33(3) . .
Al1 Al9 Al1 180.0 5 .
Al1 Al9 Al1 87.84(3) 5_556 .
Al1 Al9 Al1 92.16(3) 1_554 .
Co2 Al9 Al4 56.24(2) 5 7_564
Co2 Al9 Al4 123.76(2) . 7_564
Al1 Al9 Al4 56.90(3) 5 7_564
Al1 Al9 Al4 116.57(3) 5_556 7_564
Al1 Al9 Al4 63.43(3) 1_554 7_564
Al1 Al9 Al4 123.10(3) . 7_564
Co2 Al9 Al4 123.76(2) 5 3_546
Co2 Al9 Al4 56.24(2) . 3_546
Al1 Al9 Al4 123.10(3) 5 3_546
Al1 Al9 Al4 63.43(3) 5_556 3_546
Al1 Al9 Al4 116.57(3) 1_554 3_546
Al1 Al9 Al4 56.90(3) . 3_546
Al4 Al9 Al4 180.00(6) 7_564 3_546
Co2 Al9 Al4 56.24(2) 5 7_565
Co2 Al9 Al4 123.76(2) . 7_565
Al1 Al9 Al4 116.57(3) 5 7_565
Al1 Al9 Al4 56.90(3) 5_556 7_565
Al1 Al9 Al4 123.10(3) 1_554 7_565
Al1 Al9 Al4 63.43(3) . 7_565
Al4 Al9 Al4 87.19(3) 7_564 7_565
Al4 Al9 Al4 92.81(3) 3_546 7_565
Co2 Al9 Al4 123.76(2) 5 3_545
Co2 Al9 Al4 56.24(2) . 3_545
Al1 Al9 Al4 63.43(3) 5 3_545
Al1 Al9 Al4 123.10(3) 5_556 3_545
Al1 Al9 Al4 56.90(3) 1_554 3_545
Al1 Al9 Al4 116.57(3) . 3_545
Al4 Al9 Al4 92.81(3) 7_564 3_545
Al4 Al9 Al4 87.19(3) 3_546 3_545
Al4 Al9 Al4 180.00(4) 7_565 3_545
Co2 Al9 Sm1 89.005(14) 5 7_565
Co2 Al9 Sm1 90.994(14) . 7_565
Al1 Al9 Sm1 118.51(2) 5 7_565
Al1 Al9 Sm1 118.51(2) 5_556 7_565
Al1 Al9 Sm1 61.49(2) 1_554 7_565
Al1 Al9 Sm1 61.49(2) . 7_565
Al4 Al9 Sm1 61.71(2) 7_564 7_565
Al4 Al9 Sm1 118.29(2) 3_546 7_565
Al4 Al9 Sm1 61.71(2) 7_565 7_565
Al4 Al9 Sm1 118.29(2) 3_545 7_565
Co2 Al9 Sm1 90.995(14) 5 3_545
Co2 Al9 Sm1 89.006(14) . 3_545
Al1 Al9 Sm1 61.49(2) 5 3_545
Al1 Al9 Sm1 61.49(2) 5_556 3_545
Al1 Al9 Sm1 118.51(2) 1_554 3_545
Al1 Al9 Sm1 118.51(2) . 3_545
Al4 Al9 Sm1 118.29(2) 7_564 3_545
Al4 Al9 Sm1 61.71(2) 3_546 3_545
Al4 Al9 Sm1 118.29(2) 7_565 3_545
Al4 Al9 Sm1 61.71(2) 3_545 3_545
Sm1 Al9 Sm1 180.0 7_565 3_545
loop_
_geom_bond_atom_site_label_1
_geom_bond_atom_site_label_2
_geom_bond_distance
_geom_bond_site_symmetry_2
Sm1 Al1 3.1137(10) 7_665
Sm1 Al1 3.1137(10) 7_664
Sm1 Al2 3.1145(9) 1_554
Sm1 Al2 3.1146(9) .
Sm1 Al5 3.1339(9) 1_554
Sm1 Al5 3.1340(9) .
Sm1 Al3 3.1586(9) .
Sm1 Al3 3.1586(9) 1_554
Sm1 Al4 3.1734(10) .
Sm1 Al4 3.1734(10) 1_554
Sm1 Al6 3.1735(12) .
Sm1 Al9 3.2671(2) 3
Co1 Al6 2.3215(11) .
Co1 Al8 2.4439(3) .
Co1 Al8 2.4439(3) 1_554
Co1 Al7 2.5216(13) 7_565
Co1 Al7 2.5251(14) 3
Co1 Al5 2.5562(8) 7_564
Co1 Al5 2.5562(8) 7_565
Co1 Al2 2.5633(8) .
Co1 Al2 2.5633(8) 1_554
Co1 Co1 2.8329(10) 5_565
Co2 Al9 2.3382(5) .
Co2 Al6 2.3481(11) .
Co2 Al7 2.4500(14) .
Co2 Al3 2.5069(8) 1_554
Co2 Al3 2.5069(8) .
Co2 Al4 2.5106(8) 3_545
Co2 Al4 2.5106(8) 3_546
Co2 Al1 2.5907(9) .
Co2 Al1 2.5907(9) 1_554
Al1 Co2 2.5907(9) 1_556
Al1 Al3 2.6910(19) .
Al1 Al4 2.6953(18) 3_546
Al1 Al9 2.7649(8) .
Al1 Al9 2.7649(8) 1_556
Al1 Al6 2.7875(11) 1_556
Al1 Al6 2.7875(11) .
Al1 Al5 2.8360(15) 7_565
Al1 Al4 2.9735(17) 7_565
Al1 Sm1 3.1137(10) 7_565
Al1 Sm1 3.1137(10) 7_566
Al2 Co1 2.5633(8) 1_556
Al2 Al8 2.6473(12) .
Al2 Al4 2.6631(19) .
Al2 Al5 2.7211(19) 7_565
Al2 Al6 2.8012(12) .
Al2 Al6 2.8012(12) 1_556
Al2 Sm1 3.1146(9) 1_556
Al3 Co2 2.5069(8) 1_556
Al3 Al5 2.687(2) .
Al3 Al4 2.7528(17) 3_546
Al3 Al6 2.8769(12) .
Al3 Al6 2.8769(12) 1_556
Al3 Sm1 3.1586(9) 1_556
Al4 Co2 2.5106(8) 3_556
Al4 Co2 2.5106(8) 3
Al4 Al1 2.6954(18) 3_556
Al4 Al3 2.7529(17) 3_556
Al4 Al9 2.8881(9) 3_556
Al4 Al9 2.8881(9) 3
Al4 Al1 2.9735(17) 7_665
Al4 Sm1 3.1733(10) 1_556
Al5 Co1 2.5561(8) 7_665
Al5 Co1 2.5561(8) 7_666
Al5 Al8 2.6518(11) 3_546
Al5 Al2 2.7211(19) 7_665
Al5 Al1 2.8361(15) 7_665
Al5 Al6 2.8420(12) 7_666
Al5 Al6 2.8420(12) 7_665
Al5 Sm1 3.1340(9) 1_556
Al6 Al1 2.7876(11) 1_554
Al6 Al2 2.8012(12) 1_554
Al6 Al5 2.8420(12) 7_564
Al6 Al5 2.8420(12) 7_565
Al6 Al3 2.8769(12) 1_554
Al6 Sm1 3.3388(12) 7_565
Al7 Co1 2.5216(13) 7_665
Al7 Co1 2.5251(14) 3_545
Al7 Al8 2.8857(9) 3_546
Al7 Al8 2.8857(9) 3_545
Al8 Co1 2.4439(3) 5_566
Al8 Co1 2.4439(3) 5_565
Al8 Co1 2.4439(3) 1_556
Al8 Al2 2.6473(12) 5_566
Al8 Al5 2.6519(11) 7_565
Al8 Al5 2.6519(11) 3_556
Al8 Al7 2.8857(9) 7_565
Al8 Al7 2.8857(9) 3_556
Al8 Al7 2.8857(9) 7_566
Al8 Al7 2.8857(9) 3
Al9 Co2 2.3382(5) 5
Al9 Al1 2.7649(8) 5
Al9 Al1 2.7649(8) 5_556
Al9 Al1 2.7649(8) 1_554
Al9 Al4 2.8881(9) 7_564
Al9 Al4 2.8881(9) 3_546
Al9 Al4 2.8881(9) 7_565
Al9 Al4 2.8881(9) 3_545
Al9 Sm1 3.2671(2) 7_565
Al9 Sm1 3.2671(2) 3_545
