#------------------------------------------------------------------------------
#$Date: 2015-06-05 02:59:52 +0300 (Fri, 05 Jun 2015) $
#$Revision: 138041 $
#$URL: svn://www.crystallography.net/cod/cif/4/51/30/4513031.cif $
#------------------------------------------------------------------------------
#
# This file is available in the Crystallography Open Database (COD),
# http://www.crystallography.net/
#
# All data on this site have been placed in the public domain by the
# contributors.
#
data_4513031
loop_
_publ_author_name
'Zhou, Yating'
'Guo, Fang'
'Hughes, Colan E.'
'Browne, Duncan L.'
'Peskett, Thomas R.'
'Harris, Kenneth D. M.'
_publ_section_title
;
 Discovery of New Metastable Polymorphs in a Family of Urea Co-Crystals by
 Solid-State Mechanochemistry
;
_journal_issue                   6
_journal_name_full               'Crystal Growth &amp; Design'
_journal_page_first              2901
_journal_paper_doi               10.1021/acs.cgd.5b00331
_journal_volume                  15
_journal_year                    2015
_chemical_formula_sum            'C4 H11 N2 O2'
_chemical_formula_weight         119.14
_chemical_name_systematic        ' ?'
_space_group_IT_number           2
_symmetry_cell_setting           triclinic
_symmetry_space_group_name_Hall  '-P 1'
_symmetry_space_group_name_H-M   'P -1'
_audit_creation_date             2015-01-05T17:44
_audit_creation_method           'from EXP file using GSAS2CIF'
_audit_update_record
' 2015-01-05T17:44  Initial CIF as created by GSAS2CIF'
_cell_angle_alpha                81.465(4)
_cell_angle_beta                 86.299(6)
_cell_angle_gamma                78.209(5)
_cell_formula_units_Z            2
_cell_length_a                   5.1601(5)
_cell_length_b                   7.4276(5)
_cell_length_c                   8.5686(7)
_cell_volume                     317.72(5)
_computing_structure_refinement  GSAS
_diffrn_radiation_polarisn_ratio 0.55
_diffrn_radiation_probe          x-ray
_diffrn_radiation_wavelength     1.5406
_exptl_absorpt_correction_T_max  1.00000
_exptl_absorpt_correction_T_min  1.00000
_exptl_absorpt_process_details
;   GSAS Absorption/surface roughness correction: function number 0
 No correction is applied.
;
_pd_block_id                     2015-01-05T17:44|U16D||
_pd_calc_method                  'Rietveld Refinement'
_pd_instr_location               ' ?'
_pd_meas_2theta_range_inc        0.01707
_pd_meas_2theta_range_max        70.00196
_pd_meas_2theta_range_min        4.0
_pd_meas_number_of_points        3868
_pd_phase_name
'from C:/Users/yating/Documents/EAGER/New U16D/U16D_proc000_gen100_'
_pd_proc_2theta_range_inc        0.01707
_pd_proc_2theta_range_max        70.01859
_pd_proc_2theta_range_min        4.01663
_pd_proc_info_datetime           2015-01-05T17:44:54
_pd_proc_info_excluded_regions   ' ?'
_pd_proc_ls_background_function
;   GSAS Background function number 1 with 36 terms.
 Shifted Chebyshev function of 1st kind
      1:    1772.39     2:   -2109.07     3:    984.618     4:   -357.564    
      5:    137.231     6:   -98.0097     7:    111.388     8:   -145.360    
      9:    164.921    10:   -119.808    11:    33.2935    12:    60.0345    
     13:   -85.0919    14:    35.5127    15:    17.0441    16:   -29.5209    
     17:    20.9537    18:   -18.2558    19:    10.4708    20:    12.5382    
     21:   -29.9754    22:    23.1646    23:   -4.57470    24:   -6.83249    
     25:    9.79094    26:   -8.50383    27:    5.67126    28:  -9.016200E-02
     29:   -7.21234    30:    11.2153    31:   -7.15405    32:    2.45290    
     33:    1.45974    34:   -2.33067    35:    1.12181    36:   -1.23534    
;
_pd_proc_ls_peak_cutoff          0.00250
_pd_proc_ls_profile_function
;
 CW Profile function number 3 with  19 terms
 Pseudovoigt profile coefficients as parameterized in
 P. Thompson, D.E. Cox & J.B. Hastings (1987). J. Appl. Cryst.,20,79-83.
 Asymmetry correction of L.W. Finger, D.E. Cox & A. P. Jephcoat (1994).
 J. Appl. Cryst.,27,892-900.
 Peak tails are ignored  where the intensity is below 0.0025 times the peak
   Aniso. broadening axis   0.0   0.0   1.0
;
_pd_proc_ls_prof_R_factor        0.0257
_pd_proc_ls_prof_wR_expected     0.0251
_pd_proc_ls_prof_wR_factor       0.0359
_pd_proc_number_of_points        3868
_pd_spec_mounting                ' ?'
_refine_ls_goodness_of_fit_all   1.44
_refine_ls_matrix_type           full
_refine_ls_number_parameters     78
_refine_ls_number_restraints     57
_refine_ls_R_Fsqd_factor         0.12780
_refine_ls_shift/su_max          0.03
_refine_ls_shift/su_mean         0.01
_reflns_d_resolution_high        1.343
_reflns_d_resolution_low         8.468
_reflns_limit_h_max              3
_reflns_limit_h_min              0
_reflns_limit_k_max              5
_reflns_limit_k_min              -5
_reflns_limit_l_max              6
_reflns_limit_l_min              -6
_reflns_number_total             278
_cod_data_source_file            cg5b00331_si_001.cif
_cod_data_source_block           U16D_publ
_cod_depositor_comments          'Adding full bibliography for 4513031.cif.'
_cod_original_cell_volume        317.72(6)
_cod_database_code               4513031
_gsas_exptl_extinct_corr_t_min   1.00000
_gsas_exptl_extinct_corr_t_max   1.00000
loop_
_symmetry_equiv_pos_site_id
_symmetry_equiv_pos_as_xyz
1 +x,+y,+z
-1 -x,-y,-z
loop_
_atom_site_type_symbol
_atom_site_label
_atom_site_fract_x
_atom_site_fract_y
_atom_site_fract_z
_atom_site_occupancy
_atom_site_thermal_displace_type
_atom_site_U_iso_or_equiv
_atom_site_symmetry_multiplicity
C C1 0.0647(11) 0.2532(6) 0.3989(5) 1.0 Uiso 0.0440(15) 2
O O2 0.2566(14) 0.2940(9) 0.4604(6) 1.0 Uiso 0.0440(15) 2
N N3 0.1039(16) 0.1157(7) 0.3106(5) 1.0 Uiso 0.0440(15) 2
H H4 0.2887(20) 0.0434(8) 0.2925(9) 1.0 Uiso 0.0529(18) 2
H H5 -0.0511(24) 0.0842(14) 0.2619(6) 1.0 Uiso 0.0529(18) 2
N N6 -0.1823(12) 0.3459(9) 0.4204(8) 1.0 Uiso 0.0440(15) 2
H H7 -0.2182(23) 0.4505(8) 0.4865(10) 1.0 Uiso 0.0529(18) 2
H H8 -0.3336(15) 0.3114(16) 0.3702(11) 1.0 Uiso 0.0529(18) 2
C C9 0.7311(12) 0.7962(13) 0.1537(12) 1.0 Uiso 0.0440(15) 2
H H10 0.9034(22) 0.6940(20) 0.1979(34) 1.0 Uiso 0.0529(18) 2
H H11 0.785(4) 0.871(4) 0.0408(11) 1.0 Uiso 0.0529(18) 2
O O12 0.6543(18) 0.9248(9) 0.2628(7) 1.0 Uiso 0.0440(15) 2
H H13 0.670(12) 0.8596(13) 0.3692(11) 1.0 Uiso 0.0529(18) 2
C C14 0.5167(14) 0.6952(12) 0.1273(11) 1.0 Uiso 0.0440(15) 2
H H15 0.3424(21) 0.7978(20) 0.0865(32) 1.0 Uiso 0.0529(18) 2
H H16 0.468(5) 0.6158(32) 0.2391(10) 1.0 Uiso 0.0529(18) 2
C C17 0.5950(15) 0.5635(13) 0.0060(10) 1.0 Uiso 0.0440(15) 2
H H18 0.612(6) 0.6458(35) -0.1095(8) 1.0 Uiso 0.0529(18) 2
H H19 0.7878(12) 0.4771(29) 0.036(4) 1.0 Uiso 0.0529(18) 2
loop_
_atom_type_symbol
_atom_type_number_in_cell
_atom_type_scat_dispersion_real
_atom_type_scat_dispersion_imag
_atom_type_scat_Cromer_Mann_a1
_atom_type_scat_Cromer_Mann_a2
_atom_type_scat_Cromer_Mann_a3
_atom_type_scat_Cromer_Mann_a4
_atom_type_scat_Cromer_Mann_b1
_atom_type_scat_Cromer_Mann_b2
_atom_type_scat_Cromer_Mann_b3
_atom_type_scat_Cromer_Mann_b4
_atom_type_scat_Cromer_Mann_c
_atom_type_scat_source
C 8.0 0.000 0.000 2.31000 20.8439 1.02000 10.2075 1.58860 0.56870 0.86500
51.6512 0.21560 International_Tables_Vol_C
O 4.0 0.000 0.000 3.04850 13.2771 2.28680 5.70110 1.54630 0.32390 0.86700
32.9089 0.25080 International_Tables_Vol_C
N 4.0 0.000 0.000 12.2126 0.00570 3.13220 9.89330 2.01250 28.9975 1.16630
0.58260 -11.529 International_Tables_Vol_C
H 22.0 0.000 0.000 0.49300 10.5109 0.32291 26.1257 0.14019 3.14236 0.04081
57.7997 0.00304 International_Tables_Vol_C
loop_
_pd_meas_counts_total
_pd_proc_ls_weight
_pd_proc_intensity_bkg_calc
_pd_calc_intensity_total
5889.0 0.0001698 5888.00684 5888.00684
5795.0 0.0001726 5877.47900 5877.47900
5764.0 0.0001735 5866.22363 5866.22363
5936.0 0.0001685 5854.29150 5854.29150
5982.0 0.0001672 5841.73193 5841.73193
5663.0 0.0001766 5828.59473 5828.59473
5770.0 0.0001733 5814.92383 5814.92383
5797.0 0.0001725 5800.76416 5800.76416
5784.0 0.0001729 5786.15625 5786.15625
5910.0 0.0001692 5771.14209 5771.14209
5795.0 0.0001726 5755.75879 5755.75879
5797.0 0.0001725 5740.04297 5740.04297
5721.0 0.0001748 5724.02979 5724.02979
5817.0 0.0001719 5707.75098 5707.75098
5788.0 0.0001728 5691.24023 5691.24023
5655.0 0.0001768 5674.52441 5674.52441
5703.0 0.0001753 5657.63379 5657.63379
5719.0 0.0001749 5640.59424 5640.59424
5773.0 0.0001732 5623.42920 5623.42920
5816.0 0.0001719 5606.16455 5606.16455
5707.0 0.0001752 5588.82178 5588.82178
5685.0 0.0001759 5571.42188 5571.42188
5485.0 0.0001823 5553.98242 5553.98242
5600.0 0.0001786 5536.52393 5536.52393
5501.0 0.0001818 5519.06299 5519.06299
5617.0 0.0001780 5501.61475 5501.61475
5561.0 0.0001798 5484.19434 5484.19434
5440.0 0.0001838 5466.81348 5466.81348
5438.0 0.0001839 5449.48828 5449.48828
5511.0 0.0001815 5432.22705 5432.22705
5404.0 0.0001850 5415.04150 5415.04150
5468.0 0.0001829 5397.94189 5397.94189
5330.0 0.0001876 5380.93506 5380.93506
5319.0 0.0001880 5364.03076 5364.03076
5255.0 0.0001903 5347.23486 5347.23486
5446.0 0.0001836 5330.55518 5330.55518
5383.0 0.0001858 5313.99658 5313.99658
5361.0 0.0001865 5297.56250 5297.56250
5388.0 0.0001856 5281.25977 5281.25977
5270.0 0.0001898 5265.08984 5265.08984
5425.0 0.0001843 5249.05762 5249.05762
5271.0 0.0001897 5233.16406 5233.16406
5117.0 0.0001954 5217.41260 5217.41260
5225.0 0.0001914 5201.80371 5201.80371
5276.0 0.0001895 5186.33887 5186.33887
5294.0 0.0001889 5171.01953 5171.01953
5230.0 0.0001912 5155.84424 5155.84424
5195.0 0.0001925 5140.81543 5140.81543
5154.0 0.0001940 5125.93018 5125.93018
5090.0 0.0001965 5111.18945 5111.18945
5090.0 0.0001965 5096.59229 5096.59229
5099.0 0.0001961 5082.13574 5082.13574
5085.0 0.0001967 5067.82031 5067.82031
5093.0 0.0001963 5053.64404 5053.64404
5033.0 0.0001987 5039.60352 5039.60352
5134.0 0.0001948 5025.69824 5025.69824
5011.0 0.0001996 5011.92529 5011.92529
5115.0 0.0001955 4998.28271 4998.28271
4985.0 0.0002006 4984.76855 4984.76855
5011.0 0.0001996 4971.37842 4971.37842
4957.0 0.0002017 4958.11182 4958.11182
4849.0 0.0002062 4944.96484 4944.96484
4976.0 0.0002010 4931.93506 4931.93506
4864.0 0.0002056 4919.01953 4919.01953
4916.0 0.0002034 4906.21582 4906.21582
4967.0 0.0002013 4893.52051 4893.52051
4999.0 0.0002000 4880.93115 4880.93115
4976.0 0.0002010 4868.44482 4868.44482
4997.0 0.0002001 4856.05908 4856.05908
4958.0 0.0002017 4843.77002 4843.77002
4925.0 0.0002030 4831.57568 4831.57568
4910.0 0.0002037 4819.47363 4819.47363
4950.0 0.0002020 4807.46094 4807.46094
4745.0 0.0002107 4795.53369 4795.53369
4919.0 0.0002033 4783.69092 4783.69092
4798.0 0.0002084 4771.93018 4771.93018
4745.0 0.0002107 4760.24756 4760.24756
4695.0 0.0002130 4748.64209 4748.64209
4876.0 0.0002051 4737.11035 4737.11035
4776.0 0.0002094 4725.65186 4725.65186
4760.0 0.0002101 4714.26270 4714.26270
4706.0 0.0002125 4702.94092 4702.94092
4784.0 0.0002090 4691.68652 4691.68652
4738.0 0.0002111 4680.49512 4680.49512
4703.0 0.0002126 4669.36621 4669.36621
4666.0 0.0002143 4658.29834 4658.29834
4595.0 0.0002176 4647.28906 4647.28906
4678.0 0.0002138 4636.33740 4636.33740
4669.0 0.0002142 4625.44238 4625.44238
4739.0 0.0002110 4614.60205 4614.60205
4617.0 0.0002166 4603.81543 4603.81543
4667.0 0.0002143 4593.08154 4593.08154
4718.0 0.0002120 4582.39893 4582.39893
4598.0 0.0002175 4571.76709 4571.76709
4471.0 0.0002237 4561.18506 4561.18506
4534.0 0.0002206 4550.65186 4550.65186
4660.0 0.0002146 4540.16699 4540.16699
4458.0 0.0002243 4529.72949 4529.72949
4594.0 0.0002177 4519.33984 4519.33984
4596.0 0.0002176 4508.99707 4508.99707
4519.0 0.0002213 4498.70020 4498.70020
4502.0 0.0002221 4488.45020 4488.45020
4554.0 0.0002196 4478.24512 4478.24512
4531.0 0.0002207 4468.08594 4468.08594
4626.0 0.0002162 4457.97363 4457.97363
4531.0 0.0002207 4447.90674 4447.90674
4473.0 0.0002236 4437.88477 4437.88477
4457.0 0.0002244 4427.90918 4427.90918
4356.0 0.0002296 4417.97998 4417.97998
4348.0 0.0002300 4408.09668 4408.09668
4483.0 0.0002231 4398.26074 4398.26074
4362.0 0.0002293 4388.47021 4388.47021
4420.0 0.0002262 4378.72803 4378.72803
4383.0 0.0002282 4369.03369 4369.03369
4292.0 0.0002330 4359.38672 4359.38672
4413.0 0.0002266 4349.78857 4349.78857
4297.0 0.0002327 4340.23926 4340.23926
4259.0 0.0002348 4330.73975 4330.73975
4348.0 0.0002300 4321.29053 4321.29053
4438.0 0.0002253 4311.89258 4311.89258
4341.0 0.0002304 4302.54541 4302.54541
4462.0 0.0002241 4293.24902 4293.24902
4415.0 0.0002265 4284.00635 4284.00635
4316.0 0.0002317 4274.81689 4274.81689
4276.0 0.0002339 4265.68115 4265.68115
4216.0 0.0002372 4256.59961 4256.59961
4231.0 0.0002364 4247.57324 4247.57324
4276.0 0.0002339 4238.60352 4238.60352
4237.0 0.0002360 4229.68896 4229.68896
4205.0 0.0002378 4220.83252 4220.83252
4358.0 0.0002295 4212.03271 4212.03271
4315.0 0.0002317 4203.29248 4203.29248
4188.0 0.0002388 4194.61084 4194.61084
4213.0 0.0002374 4185.98877 4185.98877
4281.0 0.0002336 4177.42725 4177.42725
4253.0 0.0002351 4168.92578 4168.92578
4128.0 0.0002422 4160.48633 4160.48633
4190.0 0.0002387 4152.10889 4152.10889
4088.0 0.0002446 4143.79395 4143.79395
4095.0 0.0002442 4135.54102 4135.54102
4211.0 0.0002375 4127.35205 4127.35205
4160.0 0.0002404 4119.22705 4119.22705
4066.0 0.0002459 4111.16650 4111.16650
4189.0 0.0002387 4103.17090 4103.17090
3987.0 0.0002508 4095.23950 4095.23950
4070.0 0.0002457 4087.37427 4087.37427
4002.0 0.0002499 4079.57471 4079.57471
4118.0 0.0002428 4071.84082 4071.84082
4154.0 0.0002407 4064.17334 4064.17334
4133.0 0.0002420 4056.57202 4056.57202
4123.0 0.0002425 4049.03784 4049.03784
4183.0 0.0002391 4041.57031 4041.57031
4002.0 0.0002499 4034.16919 4034.16919
4070.0 0.0002457 4026.83569 4026.83569
4045.0 0.0002472 4019.56836 4019.56836
4067.0 0.0002459 4012.36865 4012.36865
4008.0 0.0002495 4005.23584 4005.23584
4058.0 0.0002464 3998.17041 3998.17041
4035.0 0.0002478 3991.17065 3991.17065
4044.0 0.0002473 3984.23828 3984.23828
3993.0 0.0002504 3977.37183 3977.37183
4025.0 0.0002484 3970.57227 3970.57227
4002.0 0.0002499 3963.83862 3963.83862
3978.0 0.0002514 3957.16992 3957.16992
3923.0 0.0002549 3950.56738 3950.56738
3884.0 0.0002575 3944.02954 3944.02954
3976.0 0.0002515 3937.55664 3937.55664
3968.0 0.0002520 3931.14819 3931.14819
4004.0 0.0002498 3924.80273 3924.80273
4017.0 0.0002489 3918.52124 3918.52124
4074.0 0.0002455 3912.30273 3912.30273
3978.0 0.0002514 3906.14624 3906.14624
3883.0 0.0002575 3900.05103 3900.05103
4071.0 0.0002456 3894.01660 3894.01660
3869.0 0.0002585 3888.04370 3888.04370
3907.0 0.0002560 3882.13013 3882.13013
3793.0 0.0002636 3876.27588 3876.27588
3766.0 0.0002655 3870.47949 3870.47949
3818.0 0.0002619 3864.74097 3864.74097
4073.0 0.0002455 3859.05957 3859.05957
3838.0 0.0002606 3853.43408 3853.43408
3848.0 0.0002599 3847.86426 3847.86426
3803.0 0.0002630 3842.34839 3842.34839
3889.0 0.0002571 3836.88647 3836.88647
3844.0 0.0002601 3831.47754 3831.47754
3762.0 0.0002658 3826.12012 3826.12012
3741.0 0.0002673 3820.81396 3820.81396
3797.0 0.0002634 3815.55762 3815.55762
3851.0 0.0002597 3810.35083 3810.35083
3966.0 0.0002521 3805.19214 3805.19214
3812.0 0.0002623 3800.08057 3800.08057
3825.0 0.0002614 3795.01587 3795.01587
3751.0 0.0002666 3789.99634 3789.99634
3852.0 0.0002596 3785.02100 3785.02100
3812.0 0.0002623 3780.08936 3780.08936
3652.0 0.0002738 3775.20020 3775.20020
3778.0 0.0002647 3770.35205 3770.35205
3821.0 0.0002617 3765.54468 3765.54468
3885.0 0.0002574 3760.77661 3760.77661
3775.0 0.0002649 3756.04712 3756.04712
3874.0 0.0002581 3751.35522 3751.35522
3850.0 0.0002597 3746.69946 3746.69946
3782.0 0.0002644 3742.07935 3742.07935
3820.0 0.0002618 3737.49390 3737.49390
3704.0 0.0002700 3732.94141 3732.94141
3764.0 0.0002657 3728.42212 3728.42212
3828.0 0.0002612 3723.93359 3723.93359
3791.0 0.0002638 3719.47632 3719.47632
3720.0 0.0002688 3715.04834 3715.04834
3822.0 0.0002616 3710.64893 3710.64893
3638.0 0.0002749 3706.27734 3706.27734
3692.0 0.0002709 3701.93262 3701.93262
3841.0 0.0002603 3697.61353 3697.61353
3697.0 0.0002705 3693.31982 3693.31982
3722.0 0.0002687 3689.05005 3689.05005
3660.0 0.0002732 3684.80298 3684.80298
3732.0 0.0002680 3680.57886 3680.57886
3695.0 0.0002706 3676.37573 3676.37573
3603.0 0.0002775 3672.19360 3672.19360
3798.0 0.0002633 3668.03149 3668.03149
3570.0 0.0002801 3663.88794 3663.88794
3678.0 0.0002719 3659.76318 3659.76318
3692.0 0.0002709 3655.65601 3655.65601
3687.0 0.0002712 3651.56543 3651.56543
3664.0 0.0002729 3647.49121 3647.49121
3544.0 0.0002822 3643.43237 3643.43237
3685.0 0.0002714 3639.38794 3639.38794
3556.0 0.0002812 3635.35815 3635.35815
3613.0 0.0002768 3631.34180 3631.34180
3682.0 0.0002716 3627.33813 3627.33813
3608.0 0.0002772 3623.34717 3623.34717
3647.0 0.0002742 3619.36792 3619.36792
3485.0 0.0002869 3615.40015 3615.40015
3731.0 0.0002680 3611.44312 3611.44312
3549.0 0.0002818 3607.49634 3607.49634
3628.0 0.0002756 3603.55981 3603.55981
3603.0 0.0002775 3599.63232 3599.63232
3650.0 0.0002740 3595.71460 3595.71460
3558.0 0.0002811 3591.80566 3591.80566
3673.0 0.0002723 3587.90454 3587.90454
3660.0 0.0002732 3584.01221 3584.01221
3627.0 0.0002757 3580.12793 3580.12793
3575.0 0.0002797 3576.25122 3576.25122
3511.0 0.0002848 3572.38135 3572.38135
3513.0 0.0002847 3568.51904 3568.51904
3560.0 0.0002809 3564.66406 3564.66406
3560.0 0.0002809 3560.81616 3560.81616
3585.0 0.0002789 3556.97485 3556.97485
3536.0 0.0002828 3553.14038 3553.14038
3543.0 0.0002822 3549.31250 3549.31250
3628.0 0.0002756 3545.49146 3545.49146
3546.0 0.0002820 3541.67725 3541.67725
3563.0 0.0002807 3537.86987 3537.86987
3580.0 0.0002793 3534.06885 3534.06885
3613.0 0.0002768 3530.27515 3530.27515
3502.0 0.0002856 3526.48828 3526.48828
3556.0 0.0002812 3522.70850 3522.70850
3585.0 0.0002789 3518.93628 3518.93628
3458.0 0.0002892 3515.17114 3515.17114
3377.0 0.0002961 3511.41406 3511.41406
3497.0 0.0002860 3507.66504 3507.66504
3591.0 0.0002785 3503.92432 3503.92432
3572.0 0.0002800 3500.19141 3500.19141
3541.0 0.0002824 3496.46802 3496.46802
3438.0 0.0002909 3492.75342 3492.75342
3492.0 0.0002864 3489.04858 3489.04858
3480.0 0.0002874 3485.35376 3485.35376
3430.0 0.0002915 3481.66870 3481.66870
3469.0 0.0002883 3477.99487 3477.99487
3408.0 0.0002934 3474.33228 3474.33228
3421.0 0.0002923 3470.68115 3470.68115
3482.0 0.0002872 3467.04224 3467.04224
3436.0 0.0002910 3463.41577 3463.41577
3502.0 0.0002856 3459.80273 3459.80273
3466.0 0.0002885 3456.20337 3456.20337
3512.0 0.0002847 3452.61816 3452.61816
3467.0 0.0002884 3449.04785 3449.04785
3346.0 0.0002989 3445.49316 3445.49316
3419.0 0.0002925 3441.95435 3441.95435
3471.0 0.0002881 3438.43237 3438.43237
3278.0 0.0003051 3434.92798 3434.92798
3460.0 0.0002890 3431.44092 3431.44092
3522.0 0.0002839 3427.97290 3427.97290
3436.0 0.0002910 3424.52417 3424.52417
3431.0 0.0002915 3421.09546 3421.09546
3378.0 0.0002960 3417.68774 3417.68774
3396.0 0.0002945 3414.30103 3414.30103
3391.0 0.0002949 3410.93677 3410.93677
3468.0 0.0002884 3407.59521 3407.59521
3507.0 0.0002851 3404.27759 3404.27759
3390.0 0.0002950 3400.98413 3400.98413
3477.0 0.0002876 3397.71582 3397.71582
3379.0 0.0002959 3394.47363 3394.47363
3347.0 0.0002988 3391.25806 3391.25806
3422.0 0.0002922 3388.06958 3388.06958
3505.0 0.0002853 3384.90991 3384.90991
3398.0 0.0002943 3381.77905 3381.77905
3328.0 0.0003005 3378.67773 3378.67773
3313.0 0.0003018 3375.60742 3375.60742
3342.0 0.0002992 3372.56836 3372.56836
3500.0 0.0002857 3369.56104 3369.56104
3448.0 0.0002900 3366.58716 3366.58716
3408.0 0.0002934 3363.64673 3363.64673
3347.0 0.0002988 3360.74097 3360.74097
3389.0 0.0002951 3357.87061 3357.87061
3384.0 0.0002955 3355.03589 3355.03589
3399.0 0.0002942 3352.23877 3352.23877
3457.0 0.0002893 3349.47900 3349.47900
3360.0 0.0002976 3346.75732 3346.75732
3293.0 0.0003037 3344.07520 3344.07520
3347.0 0.0002988 3341.43262 3341.43262
3275.0 0.0003053 3338.83105 3338.83105
3360.0 0.0002976 3336.27100 3336.27100
3416.0 0.0002927 3333.75293 3333.75293
3331.0 0.0003002 3331.27808 3331.27808
3436.0 0.0002910 3328.84692 3328.84692
3356.0 0.0002980 3326.45972 3326.45972
3366.0 0.0002971 3324.11768 3324.11768
3361.0 0.0002975 3321.82153 3321.82153
3350.0 0.0002985 3319.57153 3319.57153
3394.0 0.0002946 3317.36890 3317.36890
3368.0 0.0002969 3315.21387 3315.21387
3340.0 0.0002994 3313.10718 3319.81860
3345.0 0.0002990 3311.04980 3318.02686
3303.0 0.0003028 3309.04150 3316.30078
3290.0 0.0003040 3307.08398 3314.64258
3355.0 0.0002981 3305.17725 3313.05420
3346.0 0.0002989 3303.32178 3311.53784
3407.0 0.0002935 3301.51807 3310.09546
3362.0 0.0002974 3299.76685 3308.73022
3297.0 0.0003033 3298.06885 3307.44482
3241.0 0.0003085 3296.42456 3306.24219
3360.0 0.0002976 3294.83398 3305.12549
3223.0 0.0003103 3293.29785 3304.09839
3370.0 0.0002967 3291.81689 3303.16528
3345.0 0.0002990 3290.39111 3302.33008
3347.0 0.0002988 3289.02124 3301.59839
3360.0 0.0002976 3287.70752 3300.97583
3368.0 0.0002969 3286.45044 3300.46851
3355.0 0.0002981 3285.25024 3300.08350
3345.0 0.0002990 3284.10718 3299.82935
3261.0 0.0003067 3283.02173 3299.71558
3248.0 0.0003079 3281.99414 3299.75293
3212.0 0.0003113 3281.02466 3299.95410
3247.0 0.0003080 3280.11377 3300.33447
3284.0 0.0003045 3279.26147 3300.91064
3257.0 0.0003070 3278.46802 3301.70386
3414.0 0.0002929 3277.73340 3302.73828
3321.0 0.0003011 3277.05835 3304.04346
3272.0 0.0003056 3276.44214 3305.65479
3325.0 0.0003008 3275.88574 3307.61646
3344.0 0.0002990 3275.38892 3309.98120
3355.0 0.0002981 3274.95166 3312.81616
3233.0 0.0003093 3274.57422 3316.20459
3261.0 0.0003067 3274.25635 3320.25269
3466.0 0.0002885 3273.99854 3325.09888
3371.0 0.0002966 3273.80005 3330.92188
3298.0 0.0003032 3273.66162 3337.96362
3459.0 0.0002891 3273.58276 3346.55029
3451.0 0.0002898 3273.56348 3357.14111
3368.0 0.0002969 3273.60352 3370.41187
3514.0 0.0002846 3273.70313 3387.44922
3510.0 0.0002849 3273.86182 3410.19678
3569.0 0.0002802 3274.07959 3442.29248
3592.0 0.0002784 3274.35620 3490.03564
3626.0 0.0002758 3274.69141 3562.53882
3831.0 0.0002610 3275.08496 3669.85107
3962.0 0.0002524 3275.53662 3815.01221
3967.0 0.0002521 3276.04590 3983.80078
4322.0 0.0002314 3276.61279 4192.15234
4440.0 0.0002252 3277.23730 4506.15527
5007.0 0.0001997 3277.91821 4919.71533
5324.0 0.0001878 3278.65576 5355.71582
5828.0 0.0001716 3279.44922 5876.49707
6492.0 0.0001540 3280.29834 6434.44824
6680.0 0.0001497 3281.20313 6704.68994
6488.0 0.0001541 3282.16211 6444.62549
5655.0 0.0001768 3283.17554 5678.10938
4791.0 0.0002087 3284.24292 4864.61279
4270.0 0.0002342 3285.36328 4278.20215
3818.0 0.0002619 3286.53638 3921.14917
3504.0 0.0002854 3287.76172 3719.48242
3615.0 0.0002766 3289.03833 3604.74121
3486.0 0.0002869 3290.36646 3534.35645
3501.0 0.0002856 3291.74438 3487.16650
3419.0 0.0002925 3293.17236 3453.48047
3362.0 0.0002974 3294.64917 3428.54883
3352.0 0.0002983 3296.17432 3409.68286
3395.0 0.0002946 3297.74707 3395.18481
3492.0 0.0002864 3299.36694 3383.91772
3411.0 0.0002932 3301.03271 3375.09326
3423.0 0.0002921 3302.74438 3368.15234
3410.0 0.0002933 3304.50024 3362.68921
3370.0 0.0002967 3306.30029 3358.40356
3312.0 0.0003019 3308.14331 3355.06885
3475.0 0.0002878 3310.02832 3352.51196
3354.0 0.0002982 3311.95508 3350.59961
3322.0 0.0003010 3313.92236 3349.22607
3429.0 0.0002916 3315.92944 3348.30811
3387.0 0.0002952 3317.97510 3347.77808
3334.0 0.0002999 3320.05908 3347.58228
3382.0 0.0002957 3322.17969 3347.67554
3362.0 0.0002974 3324.33667 3348.02100
3327.0 0.0003006 3326.52881 3348.58862
3385.0 0.0002954 3328.75513 3349.35205
3349.0 0.0002986 3331.01489 3350.29004
3406.0 0.0002936 3333.30688 3351.38354
3297.0 0.0003033 3335.63013 3352.61694
3339.0 0.0002995 3337.98364 3353.97632
3353.0 0.0002982 3340.36646 3355.44971
3478.0 0.0002875 3342.77783 3357.02734
3347.0 0.0002988 3345.21655 3358.69946
3251.0 0.0003076 3347.68115 3360.45776
3387.0 0.0002952 3350.17114 3362.29590
3388.0 0.0002952 3352.68530 3364.20654
3492.0 0.0002864 3355.22266 3366.18457
3374.0 0.0002964 3357.78198 3368.22437
3259.0 0.0003068 3360.36206 3360.36206
3332.0 0.0003001 3362.96216 3362.96216
3397.0 0.0002944 3365.58130 3365.58130
3343.0 0.0002991 3368.21777 3368.21777
3372.0 0.0002966 3370.87109 3370.87109
3316.0 0.0003016 3373.54004 3373.54004
3427.0 0.0002918 3376.22314 3376.22314
3370.0 0.0002967 3378.91943 3378.91943
3403.0 0.0002939 3381.62817 3381.62817
3262.0 0.0003066 3384.34790 3384.34790
3376.0 0.0002962 3387.07739 3387.07739
3484.0 0.0002870 3389.81543 3389.81543
3415.0 0.0002928 3392.56152 3392.56152
3453.0 0.0002896 3395.31421 3395.31567
3462.0 0.0002889 3398.07227 3398.07373
3400.0 0.0002941 3400.83423 3400.83569
3406.0 0.0002936 3403.59985 3403.60156
3353.0 0.0002982 3406.36694 3406.36865
3451.0 0.0002898 3409.13525 3409.13696
3491.0 0.0002865 3411.90308 3411.90503
3394.0 0.0002946 3414.66968 3414.67163
3335.0 0.0002999 3417.43384 3417.43579
3458.0 0.0002892 3420.19434 3420.19653
3420.0 0.0002924 3422.95020 3422.95239
3387.0 0.0002952 3425.69995 3425.70239
3460.0 0.0002890 3428.44263 3428.44507
3415.0 0.0002928 3431.17725 3431.17993
3436.0 0.0002910 3433.90283 3433.90552
3485.0 0.0002869 3436.61792 3436.62085
3432.0 0.0002914 3439.32153 3439.32446
3427.0 0.0002918 3442.01294 3442.01611
3307.0 0.0003024 3444.69067 3444.69409
3440.0 0.0002907 3447.35352 3447.35718
3535.0 0.0002829 3450.00024 3450.00415
3548.0 0.0002818 3452.63062 3452.63477
3548.0 0.0002818 3455.24292 3455.24731
3466.0 0.0002885 3457.83618 3457.84082
3418.0 0.0002926 3460.40967 3460.41455
3466.0 0.0002885 3462.96191 3462.96729
3478.0 0.0002875 3465.49194 3465.49780
3644.0 0.0002744 3467.99878 3468.00488
3484.0 0.0002870 3470.48193 3470.48877
3449.0 0.0002899 3472.93970 3472.94702
3496.0 0.0002860 3475.37134 3475.37939
3442.0 0.0002905 3477.77563 3477.78442
3517.0 0.0002843 3480.15186 3480.16162
3467.0 0.0002884 3482.49927 3482.51001
3348.0 0.0002987 3484.81616 3484.82813
3473.0 0.0002879 3487.10254 3487.11597
3518.0 0.0002843 3489.35693 3489.37207
3558.0 0.0002811 3491.57837 3491.59546
3448.0 0.0002900 3493.76587 3493.78540
3539.0 0.0002826 3495.91895 3495.94165
3427.0 0.0002918 3498.03638 3498.06323
3543.0 0.0002822 3500.11743 3500.14941
3553.0 0.0002815 3502.16113 3502.20044
3543.0 0.0002822 3504.16675 3504.21606
3525.0 0.0002837 3506.13354 3506.19751
3595.0 0.0002782 3508.06006 3508.14551
3481.0 0.0002873 3509.94653 3510.06177
3643.0 0.0002745 3511.79126 3511.94507
3568.0 0.0002803 3513.59375 3513.79272
3618.0 0.0002764 3515.35352 3515.60913
3545.0 0.0002821 3517.06934 3517.40234
3597.0 0.0002780 3518.74097 3519.16040
3680.0 0.0002717 3520.36719 3520.85425
3585.0 0.0002789 3521.94751 3522.46533
3635.0 0.0002751 3523.48145 3523.96606
3541.0 0.0002824 3524.96802 3525.35425
3668.0 0.0002726 3526.40649 3526.68262
3556.0 0.0002812 3527.79639 3527.98608
3469.0 0.0002883 3529.13721 3529.26782
3634.0 0.0002752 3530.42822 3530.52100
3585.0 0.0002789 3531.66846 3531.73730
3622.0 0.0002761 3532.85791 3532.91138
3455.0 0.0002894 3533.99585 3534.03882
3594.0 0.0002782 3535.08154 3535.11670
3582.0 0.0002792 3536.11426 3536.14380
3403.0 0.0002939 3537.09399 3537.11890
3464.0 0.0002887 3538.01978 3538.04126
3609.0 0.0002771 3538.89160 3538.91040
3520.0 0.0002841 3539.70825 3539.72461
3672.0 0.0002723 3540.47021 3540.48462
3494.0 0.0002862 3541.17627 3541.18921
3688.0 0.0002711 3541.82617 3541.83765
3574.0 0.0002798 3542.41968 3542.43018
3471.0 0.0002881 3542.95654 3542.96582
3609.0 0.0002771 3543.43604 3543.44458
3572.0 0.0002800 3543.85791 3543.86572
3583.0 0.0002791 3544.22168 3544.22876
3612.0 0.0002769 3544.52710 3544.53369
3568.0 0.0002803 3544.77417 3544.78027
3555.0 0.0002813 3544.96191 3544.96753
3541.0 0.0002824 3545.09082 3545.09595
3488.0 0.0002867 3545.16040 3545.16528
3562.0 0.0002807 3545.16992 3545.17456
3623.0 0.0002760 3545.11963 3545.12378
3503.0 0.0002855 3545.00928 3545.01318
3593.0 0.0002783 3544.83838 3544.84204
3574.0 0.0002798 3544.60718 3544.61060
3710.0 0.0002695 3544.31494 3544.31836
3557.0 0.0002811 3543.96191 3543.96509
3651.0 0.0002739 3543.54810 3543.55103
3581.0 0.0002793 3543.07275 3543.07568
3701.0 0.0002702 3542.53662 3542.53931
3611.0 0.0002769 3541.93896 3541.94141
3622.0 0.0002761 3541.28003 3541.28247
3636.0 0.0002750 3540.55933 3540.56152
3678.0 0.0002719 3539.77734 3539.77954
3518.0 0.0002843 3538.93384 3538.93604
3473.0 0.0002879 3538.02881 3538.03076
3571.0 0.0002800 3537.06201 3537.06396
3567.0 0.0002803 3536.03369 3536.03564
3538.0 0.0002826 3534.94409 3534.94580
3584.0 0.0002790 3533.79297 3533.79468
3588.0 0.0002787 3532.58057 3532.58228
3565.0 0.0002805 3531.30664 3531.30811
3589.0 0.0002786 3529.97144 3529.97290
3539.0 0.0002826 3528.57520 3528.57666
3520.0 0.0002841 3527.11768 3527.11768
3568.0 0.0002803 3525.59961 3525.59961
3560.0 0.0002809 3524.02075 3524.02075
3624.0 0.0002759 3522.38135 3522.38135
3467.0 0.0002884 3520.68164 3520.68164
3613.0 0.0002768 3518.92114 3518.92114
3494.0 0.0002862 3517.10107 3517.10107
3596.0 0.0002781 3515.22095 3515.22095
3528.0 0.0002834 3513.28149 3513.28149
3582.0 0.0002792 3511.28223 3511.28223
3667.0 0.0002727 3509.22437 3509.22437
3459.0 0.0002891 3507.10742 3507.10742
3550.0 0.0002817 3504.93164 3504.93164
3441.0 0.0002906 3502.69775 3502.69775
3515.0 0.0002845 3500.40601 3500.40601
3461.0 0.0002889 3498.05640 3498.05640
3474.0 0.0002879 3495.64917 3495.64917
3515.0 0.0002845 3493.18481 3493.18481
3484.0 0.0002870 3490.66406 3490.66406
3487.0 0.0002868 3488.08691 3488.08691
3519.0 0.0002842 3485.45361 3485.45361
3446.0 0.0002902 3482.76465 3482.76465
3487.0 0.0002868 3480.02051 3480.02051
3591.0 0.0002785 3477.22144 3477.22144
3392.0 0.0002948 3474.36792 3474.36792
3541.0 0.0002824 3471.45996 3471.45996
3402.0 0.0002939 3468.49878 3468.49878
3467.0 0.0002884 3465.48438 3465.48438
3484.0 0.0002870 3462.41675 3462.41675
3396.0 0.0002945 3459.29712 3459.29712
3493.0 0.0002863 3456.12549 3456.12549
3351.0 0.0002984 3452.90234 3452.90234
3541.0 0.0002824 3449.62842 3449.62842
3455.0 0.0002894 3446.30371 3446.30371
3463.0 0.0002888 3442.92896 3442.92896
3437.0 0.0002910 3439.50488 3439.50488
3474.0 0.0002879 3436.03149 3436.03149
3377.0 0.0002961 3432.51001 3432.51001
3472.0 0.0002880 3428.94043 3428.94043
3337.0 0.0002997 3425.32275 3425.32275
3354.0 0.0002982 3421.65869 3421.65869
3259.0 0.0003068 3417.94824 3417.94824
3387.0 0.0002952 3414.19141 3414.19141
3328.0 0.0003005 3410.38940 3410.38940
3388.0 0.0002952 3406.54248 3406.54248
3453.0 0.0002896 3402.65137 3402.65137
3479.0 0.0002874 3398.71680 3398.71680
3418.0 0.0002926 3394.73853 3394.73853
3423.0 0.0002921 3390.71802 3390.71802
3336.0 0.0002998 3386.65552 3386.65552
3352.0 0.0002983 3382.55127 3382.55127
3423.0 0.0002921 3378.40649 3378.40649
3442.0 0.0002905 3374.22119 3374.22119
3312.0 0.0003019 3369.99609 3369.99609
3291.0 0.0003039 3365.73218 3365.73218
3247.0 0.0003080 3361.42920 3361.42920
3277.0 0.0003052 3357.08862 3357.08862
3496.0 0.0002860 3352.71094 3352.71094
3351.0 0.0002984 3348.29590 3348.29590
3380.0 0.0002959 3343.84521 3343.84521
3397.0 0.0002944 3339.35889 3339.35889
3365.0 0.0002972 3334.83740 3334.83740
3356.0 0.0002980 3330.28174 3330.28174
3365.0 0.0002972 3325.69214 3325.69214
3336.0 0.0002998 3321.06982 3321.06982
3378.0 0.0002960 3316.41479 3316.85352
3233.0 0.0003093 3311.72778 3312.18896
3342.0 0.0002992 3307.00952 3307.49487
3303.0 0.0003028 3302.26074 3302.77222
3358.0 0.0002978 3297.48145 3298.02124
3286.0 0.0003043 3292.67334 3293.24390
3327.0 0.0003006 3287.83594 3288.43994
3272.0 0.0003056 3282.97046 3283.61084
3314.0 0.0003018 3278.07739 3278.75781
3292.0 0.0003038 3273.15698 3273.88110
3244.0 0.0003083 3268.21045 3268.98267
3224.0 0.0003102 3263.23828 3264.06348
3250.0 0.0003077 3258.24072 3259.12451
3286.0 0.0003043 3253.21875 3254.16797
3282.0 0.0003047 3248.17285 3249.19458
3286.0 0.0003043 3243.10327 3244.20654
3250.0 0.0003077 3238.01123 3239.20605
3388.0 0.0002952 3232.89673 3234.19507
3196.0 0.0003129 3227.76099 3229.17676
3345.0 0.0002990 3222.60425 3224.15430
3343.0 0.0002991 3217.42676 3219.13110
3209.0 0.0003116 3212.22998 3214.11304
3240.0 0.0003086 3207.01392 3209.10547
3139.0 0.0003186 3201.77905 3204.11597
3159.0 0.0003166 3196.52661 3199.15479
3147.0 0.0003178 3191.25659 3194.23413
3178.0 0.0003147 3185.96973 3189.37207
3080.0 0.0003247 3180.66650 3184.59180
3149.0 0.0003176 3175.34668 3179.92700
3163.0 0.0003162 3170.01245 3175.43018
3222.0 0.0003104 3164.66382 3171.18408
3150.0 0.0003175 3159.30151 3167.33740
3158.0 0.0003167 3153.92505 3164.16284
3108.0 0.0003218 3148.53613 3162.14014
3170.0 0.0003155 3143.13477 3162.01270
3294.0 0.0003036 3137.72119 3164.76025
3309.0 0.0003022 3132.29614 3171.13696
3229.0 0.0003097 3126.86084 3180.92847
3196.0 0.0003129 3121.41577 3195.39600
3312.0 0.0003019 3115.96045 3216.12842
3341.0 0.0002993 3110.49609 3235.48975
3315.0 0.0003017 3105.02319 3242.47974
3378.0 0.0002960 3099.54199 3227.30957
3306.0 0.0003025 3094.05322 3190.84961
3174.0 0.0003151 3088.55737 3152.89990
3159.0 0.0003166 3083.05493 3123.97314
3221.0 0.0003105 3077.54590 3104.00049
3125.0 0.0003200 3072.03174 3090.14087
3019.0 0.0003312 3066.51221 3079.76880
3131.0 0.0003194 3060.98828 3071.21973
3078.0 0.0003249 3055.45996 3063.63916
3226.0 0.0003100 3049.92773 3056.62476
3158.0 0.0003167 3044.39233 3049.97583
3104.0 0.0003222 3038.85449 3043.57935
3122.0 0.0003203 3033.31372 3037.36279
2974.0 0.0003362 3027.77100 3031.27881
3076.0 0.0003251 3022.22681 3025.29468
3002.0 0.0003331 3016.68188 3019.38745
2980.0 0.0003356 3011.13623 3013.53979
3085.0 0.0003241 3005.59009 3007.73950
3028.0 0.0003303 3000.04443 3001.97803
3070.0 0.0003257 2994.49927 2996.24780
2950.0 0.0003390 2988.95483 2990.54370
2938.0 0.0003404 2983.41211 2984.86206
3014.0 0.0003318 2977.87134 2979.19995
2951.0 0.0003389 2972.33203 2973.55396
2893.0 0.0003457 2966.79590 2967.92334
2977.0 0.0003359 2961.26221 2962.30566
2997.0 0.0003337 2955.73218 2956.70093
2935.0 0.0003407 2950.20581 2951.10742
2969.0 0.0003368 2944.68311 2945.52441
2941.0 0.0003400 2939.16504 2939.95166
3038.0 0.0003292 2933.65186 2934.38916
2895.0 0.0003454 2928.14331 2928.83569
2975.0 0.0003361 2922.63989 2923.29150
2877.0 0.0003476 2917.14233 2917.75659
2981.0 0.0003355 2911.65088 2912.23071
2927.0 0.0003416 2906.16577 2906.71436
2921.0 0.0003423 2900.68701 2901.20654
2743.0 0.000365 2895.21558 2895.70825
2946.0 0.0003394 2889.75098 2890.21899
2813.0 0.000355 2884.29395 2884.73901
2887.0 0.0003464 2878.84473 2879.26855
2894.0 0.0003455 2873.40332 2873.40332
2859.0 0.0003498 2867.96997 2867.96997
2872.0 0.0003482 2862.54565 2862.54565
2891.0 0.0003459 2857.12988 2857.12988
2867.0 0.0003488 2851.72314 2851.72314
2844.0 0.000352 2846.32593 2846.32593
2863.0 0.0003493 2840.93799 2840.93799
2898.0 0.0003451 2835.55981 2835.55981
2785.0 0.000359 2830.19189 2830.19189
2960.0 0.0003378 2824.83374 2825.12134
2760.0 0.000362 2819.48633 2819.78003
2899.0 0.0003449 2814.14917 2814.44897
2879.0 0.0003473 2808.82300 2809.12915
2822.0 0.000354 2803.50806 2803.82080
2899.0 0.0003449 2798.20410 2798.52344
2698.0 0.000371 2792.91162 2793.23804
2795.0 0.000358 2787.63062 2787.96436
2776.0 0.000360 2782.36133 2782.70239
2713.0 0.000369 2777.10400 2777.45288
2735.0 0.000366 2771.85864 2772.21533
2742.0 0.000365 2766.62524 2766.99023
2702.0 0.000370 2761.40479 2761.77832
2715.0 0.000368 2756.19604 2756.94189
2756.0 0.000363 2751.00073 2751.76685
2805.0 0.000357 2745.81787 2746.60522
2795.0 0.000358 2740.64795 2741.45752
2824.0 0.000354 2735.49072 2736.32349
2794.0 0.000358 2730.34717 2731.20410
2743.0 0.000365 2725.21631 2726.09863
2758.0 0.000363 2720.09888 2721.00757
2653.0 0.000377 2714.99536 2715.93164
2710.0 0.000369 2709.90479 2710.87012
2753.0 0.000363 2704.82861 2705.82446
2732.0 0.000366 2699.76538 2700.79272
2712.0 0.000369 2694.71680 2695.77783
2683.0 0.000373 2689.68164 2690.77759
2681.0 0.000373 2684.66064 2685.79370
2678.0 0.000373 2679.65308 2680.82495
2784.0 0.000359 2674.66040 2675.87305
2635.0 0.000380 2669.68140 2670.93750
2688.0 0.000372 2664.71631 2666.01782
2675.0 0.000374 2659.76660 2661.11646
2791.0 0.000358 2654.83008 2656.23096
2685.0 0.000372 2649.90869 2651.36353
2664.0 0.000375 2645.00122 2646.51343
2672.0 0.000374 2640.10864 2641.68188
2612.0 0.000383 2635.23022 2636.86816
2704.0 0.000370 2630.36597 2632.07275
2571.0 0.000389 2625.51685 2627.29736
2687.0 0.000372 2620.68188 2622.54102
2576.0 0.000388 2615.86182 2617.80518
2575.0 0.000388 2611.05591 2613.08936
2523.0 0.000396 2606.26538 2608.39575
2601.0 0.000384 2601.48853 2603.72314
2615.0 0.000382 2596.72681 2599.07373
2701.0 0.000370 2591.97925 2594.44775
2592.0 0.000386 2587.24658 2589.84692
2600.0 0.000385 2582.52832 2585.27148
2620.0 0.000382 2577.82446 2580.72363
2608.0 0.000383 2573.13550 2576.20483
2558.0 0.000391 2568.46069 2571.71631
2661.0 0.000376 2563.80103 2567.26172
2563.0 0.000390 2559.15503 2562.84155
2624.0 0.000381 2554.52441 2558.46143
2585.0 0.000387 2549.90747 2554.12305
2615.0 0.000382 2545.30542 2549.83179
2548.0 0.000392 2540.71729 2545.59326
2619.0 0.000382 2536.14355 2541.41357
2574.0 0.000389 2531.58472 2537.30249
2599.0 0.000385 2527.03955 2533.26953
2653.0 0.000377 2522.50903 2529.32837
2513.0 0.000398 2517.99219 2525.49634
2610.0 0.000383 2513.48999 2521.79590
2602.0 0.000384 2509.00122 2518.25684
2436.0 0.000411 2504.52734 2514.92041
2514.0 0.000398 2500.06665 2511.84155
2522.0 0.000397 2495.62061 2509.10474
2422.0 0.000413 2491.18774 2506.83569
2548.0 0.000392 2486.76855 2505.24194
2469.0 0.000405 2482.36401 2504.66772
2471.0 0.000405 2477.97241 2505.66553
2583.0 0.000387 2473.59497 2509.08203
2480.0 0.000403 2469.23047 2516.08984
2534.0 0.000395 2464.88013 2528.05591
2535.0 0.000394 2460.54321 2545.80957
2628.0 0.000381 2456.21875 2568.06104
2523.0 0.000396 2451.90845 2591.49927
2740.0 0.000365 2447.61084 2614.09058
2700.0 0.000370 2443.32690 2630.18066
2677.0 0.000374 2439.05542 2625.25317
2608.0 0.000383 2434.79785 2595.26709
2628.0 0.000381 2430.55298 2555.74194
2612.0 0.000383 2426.32031 2520.49683
2503.0 0.000400 2422.10107 2493.70386
2556.0 0.000391 2417.89404 2474.79810
2392.0 0.000418 2413.70020 2462.00488
2397.0 0.000417 2409.51807 2453.62500
2429.0 0.000412 2405.34912 2448.46753
2424.0 0.000413 2401.19263 2448.41919
2469.0 0.000405 2397.04810 2448.32129
2393.0 0.000418 2392.91602 2450.78101
2458.0 0.000407 2388.79614 2456.09619
2403.0 0.000416 2384.68848 2464.55615
2548.0 0.000392 2380.59229 2476.13013
2517.0 0.000397 2376.50806 2489.85010
2513.0 0.000398 2372.43628 2502.92188
2508.0 0.000399 2368.37573 2510.48022
2574.0 0.000389 2364.32739 2507.74902
2577.0 0.000388 2360.29028 2493.92041
2551.0 0.000392 2356.26489 2472.92480
2514.0 0.000398 2352.25073 2449.92969
2534.0 0.000395 2348.24829 2428.35278
2455.0 0.000407 2344.25684 2409.55933
2411.0 0.000415 2340.27686 2393.70654
2372.0 0.000422 2336.30762 2380.45337
2330.0 0.000429 2332.34937 2369.32373
2295.0 0.000436 2328.40259 2359.85864
2470.0 0.000405 2324.46631 2351.66064
2420.0 0.000413 2320.54150 2344.41528
2352.0 0.000425 2316.62671 2337.88037
2337.0 0.000428 2312.72314 2331.87939
2377.0 0.000421 2308.82983 2326.28418
2364.0 0.000423 2304.94727 2321.00317
2283.0 0.000438 2301.07495 2315.97046
2397.0 0.000417 2297.21289 2311.13818
2387.0 0.000419 2293.36182 2306.47095
2389.0 0.000419 2289.52026 2301.93970
2431.0 0.000411 2285.68921 2297.52490
2437.0 0.000410 2281.86792 2293.20825
2324.0 0.000430 2278.05737 2288.97827
2411.0 0.000415 2274.25610 2284.82202
2291.0 0.000436 2270.46533 2280.73218
2304.0 0.000434 2266.68359 2276.70020
2350.0 0.000426 2262.91235 2272.72168
2264.0 0.000442 2259.15063 2268.79028
2268.0 0.000441 2255.39819 2264.90259
2273.0 0.000440 2251.65576 2261.05518
2345.0 0.000426 2247.92236 2257.24487
2288.0 0.000437 2244.19897 2253.47021
2269.0 0.000441 2240.48438 2249.72778
2349.0 0.000426 2236.77979 2246.01758
2211.0 0.000452 2233.08398 2242.33716
2330.0 0.000429 2229.39746 2238.68530
2248.0 0.000445 2225.72021 2235.06177
2189.0 0.000457 2222.05200 2231.46509
2238.0 0.000447 2218.39331 2227.89575
2205.0 0.000454 2214.74292 2224.35229
2273.0 0.000440 2211.10205 2220.83545
2149.0 0.000465 2207.46973 2217.34448
2274.0 0.000440 2203.84668 2213.87964
2215.0 0.000451 2200.23193 2210.44043
2279.0 0.000439 2196.62646 2207.02832
2178.0 0.000459 2193.02930 2203.64233
2217.0 0.000451 2189.44092 2200.28369
2237.0 0.000447 2185.86133 2196.95264
2201.0 0.000454 2182.29028 2193.65015
2258.0 0.000443 2178.72803 2190.37720
2173.0 0.000460 2175.17407 2187.13403
2111.0 0.000474 2171.62866 2183.92261
2193.0 0.000456 2168.09155 2180.74316
2204.0 0.000454 2164.56323 2177.59790
2208.0 0.000453 2161.04297 2175.65454
2217.0 0.000451 2157.53125 2172.60596
2189.0 0.000457 2154.02808 2169.59741
2203.0 0.000454 2150.53271 2166.63037
2138.0 0.000468 2147.04590 2163.70801
2167.0 0.000461 2143.56714 2160.83276
2137.0 0.000468 2140.09741 2158.00854
2194.0 0.000456 2136.63501 2155.23682
2189.0 0.000457 2133.18140 2152.52368
2178.0 0.000459 2129.73535 2149.87109
2165.0 0.000462 2126.29761 2147.28589
2144.0 0.000466 2122.86816 2144.77197
2173.0 0.000460 2119.44702 2142.33667
2183.0 0.000458 2116.03394 2139.98560
2048.0 0.000488 2112.62866 2137.72705
2160.0 0.000463 2109.23169 2135.56958
2099.0 0.000476 2105.84253 2133.52319
2153.0 0.000464 2102.46191 2131.59912
2158.0 0.000463 2099.08911 2129.81006
2143.0 0.000467 2095.72363 2128.17090
2140.0 0.000467 2092.36719 2126.69946
2144.0 0.000466 2089.01807 2125.41406
2198.0 0.000455 2085.67749 2124.33887
2103.0 0.000476 2082.34473 2123.49976
2157.0 0.000464 2079.02002 2122.92822
2039.0 0.000490 2075.70361 2122.66089
2132.0 0.000469 2072.39478 2122.74048
2093.0 0.000478 2069.09424 2123.46240
2023.0 0.000494 2065.80151 2124.40552
2161.0 0.000463 2062.51660 2125.88354
2172.0 0.000460 2059.23975 2127.98462
2109.0 0.000474 2055.97144 2130.81909
2115.0 0.000473 2052.71094 2134.52100
2078.0 0.000481 2049.45825 2139.25732
2098.0 0.000477 2046.21423 2145.24121
2132.0 0.000469 2042.97766 2152.74341
2046.0 0.000489 2039.74951 2162.12256
2038.0 0.000491 2036.52905 2173.85278
2165.0 0.000462 2033.31677 2197.87354
2174.0 0.000460 2030.11292 2216.65210
2092.0 0.000478 2026.91711 2240.47046
2064.0 0.000484 2023.72949 2270.88525
2231.0 0.000448 2020.54968 2309.91187
2248.0 0.000445 2017.37854 2359.66602
2334.0 0.000428 2014.21509 2423.98633
2436.0 0.000411 2011.06042 2505.83447
2512.0 0.000398 2007.91357 2608.54980
2549.0 0.000392 2004.77515 2734.44873
2884.0 0.0003467 2001.64478 2882.65869
2977.0 0.0003359 1998.52258 3044.99976
3221.0 0.0003105 1995.40918 3200.76440
3297.0 0.0003033 1992.30383 3315.36890
3525.0 0.0002837 1989.20703 3352.31348
3518.0 0.0002843 1986.11829 3297.00757
3400.0 0.0002941 1983.03833 3168.67896
3130.0 0.0003195 1979.96643 3004.94189
2788.0 0.000359 1976.90344 2838.66846
2645.0 0.000378 1973.84851 2688.42529
2410.0 0.000415 1970.80212 2560.98218
2355.0 0.000425 1967.76453 2456.53418
2242.0 0.000446 1964.73511 2372.51611
2111.0 0.000474 1961.71472 2305.54590
2191.0 0.000456 1958.70276 2252.28906
2049.0 0.000488 1955.69971 2209.80420
2087.0 0.000479 1952.70483 2175.65137
2009.0 0.000498 1949.71899 2147.89404
2184.0 0.000458 1946.74170 2125.04663
2017.0 0.000496 1943.77319 2105.99438
2059.0 0.000486 1940.81384 2089.91943
1994.0 0.000502 1937.86279 2076.21875
1983.0 0.000504 1934.92102 2064.45068
2094.0 0.000478 1931.98779 2054.28809
2034.0 0.000492 1929.06384 2045.48779
1971.0 0.000507 1926.14868 2037.86572
1966.0 0.000509 1923.24255 2031.28589
1991.0 0.000502 1920.34521 2025.64819
2010.0 0.000498 1917.45691 2020.88330
2088.0 0.000479 1914.57800 2016.94983
2050.0 0.000488 1911.70801 2013.82971
2030.0 0.000493 1908.84741 2011.53149
2024.0 0.000494 1905.99548 2010.08948
2029.0 0.000493 1903.15332 2009.57202
2106.0 0.000475 1900.31995 2010.08484
2089.0 0.000479 1897.49609 2011.78979
1996.0 0.000501 1894.68152 2014.92664
2068.0 0.000484 1891.87634 2019.84998
2014.0 0.000497 1889.08020 2027.08545
2082.0 0.000480 1886.29358 2037.39722
2058.0 0.000486 1883.51648 2051.86890
2230.0 0.000448 1880.74890 2071.96826
2165.0 0.000462 1877.99084 2099.56958
2185.0 0.000458 1875.24207 2136.88794
2284.0 0.000438 1872.50305 2186.25439
2326.0 0.000430 1869.77332 2249.70337
2308.0 0.000433 1867.05347 2326.98315
2386.0 0.000419 1864.34326 2413.59326
2400.0 0.000417 1861.64246 2495.88550
2483.0 0.000403 1858.95166 2550.11548
2545.0 0.000393 1856.27026 2553.82446
2481.0 0.000403 1853.59900 2505.23730
2488.0 0.000402 1850.93738 2425.08496
2440.0 0.000410 1848.28564 2338.00342
2295.0 0.000436 1845.64343 2259.18481
2229.0 0.000449 1843.01135 2194.29053
2212.0 0.000452 1840.38892 2143.74536
2148.0 0.000466 1837.77661 2105.87842
2099.0 0.000476 1835.17432 2078.45142
2109.0 0.000474 1832.58167 2059.29272
2052.0 0.000487 1829.99939 2046.56689
2046.0 0.000489 1827.42676 2038.85754
2039.0 0.000490 1824.86438 2035.15881
2077.0 0.000481 1822.31213 2034.81580
2058.0 0.000486 1819.76990 2037.45313
1999.0 0.000500 1817.23755 2042.91187
1999.0 0.000500 1814.71533 2051.20093
1994.0 0.000502 1812.20349 2062.47144
2048.0 0.000488 1809.70178 2077.01074
2010.0 0.000498 1807.21033 2095.24927
2068.0 0.000484 1804.72876 2117.78906
2046.0 0.000489 1802.25769 2145.45654
2125.0 0.000471 1799.79700 2179.38403
2112.0 0.000473 1797.34607 2221.15112
2197.0 0.000455 1794.90588 2273.00659
2298.0 0.000435 1792.47546 2338.20020
2478.0 0.000404 1790.05603 2421.37891
2544.0 0.000393 1787.64600 2529.23730
2660.0 0.000376 1785.24744 2670.84790
2949.0 0.0003391 1782.85840 2858.22314
3240.0 0.0003086 1780.47913 3106.11450
3572.0 0.0002800 1778.11145 3430.87598
3867.0 0.0002586 1775.75330 3848.81006
4517.0 0.0002214 1773.40637 4369.84961
4850.0 0.0002062 1771.06897 4986.22900
5589.0 0.0001789 1768.74280 5647.52637
5884.0 0.0001700 1766.42615 6233.77588
6198.0 0.0001613 1764.12085 6565.30322
6366.0 0.0001571 1761.82495 6507.83496
6061.0 0.0001650 1759.54053 6092.24951
5697.0 0.0001755 1757.26563 5484.55664
4963.0 0.0002015 1755.00183 4851.30322
4503.0 0.0002221 1752.74780 4285.28516
3882.0 0.0002576 1750.50500 3815.88452
3616.0 0.0002765 1748.27173 3438.88037
3278.0 0.0003051 1746.04980 3140.67358
2902.0 0.0003446 1743.83752 2907.50903
2593.0 0.000386 1741.63635 2726.67017
2578.0 0.000388 1739.44543 2585.33789
2377.0 0.000421 1737.26416 2469.35938
2193.0 0.000456 1735.09436 2365.41626
2076.0 0.000482 1732.93408 2271.19043
2023.0 0.000494 1730.78503 2190.77368
1982.0 0.000505 1728.64575 2125.08716
1969.0 0.000508 1726.51746 2072.34033
1960.0 0.000510 1724.39893 2029.81055
1853.0 0.000540 1722.29150 1994.94287
1919.0 0.000521 1720.19360 1965.68311
1879.0 0.000532 1718.10681 1940.62817
1810.0 0.000552 1716.02979 1918.81775
1832.0 0.000546 1713.96375 1899.62158
1821.0 0.000549 1711.90723 1882.56519
1871.0 0.000534 1709.86182 1867.30676
1799.0 0.000556 1707.82605 1853.56006
1796.0 0.000557 1705.80115 1841.10938
1755.0 0.000570 1703.78577 1829.76465
1792.0 0.000558 1701.78149 1819.38220
1813.0 0.000552 1699.78699 1809.83130
1876.0 0.000533 1697.80200 1801.00598
1778.0 0.000562 1695.82837 1790.31543
1675.0 0.000597 1693.86414 1782.73779
1750.0 0.000571 1691.91064 1775.66077
1773.0 0.000564 1689.96667 1769.02478
1731.0 0.000578 1688.03345 1762.78638
1692.0 0.000591 1686.10962 1756.90039
1867.0 0.000536 1684.19666 1751.33484
1796.0 0.000557 1682.29297 1746.05457
1717.0 0.000582 1680.39990 1741.03552
1763.0 0.000567 1678.51636 1740.37927
1716.0 0.000583 1676.64307 1735.89563
1774.0 0.000564 1674.77954 1731.60913
1742.0 0.000574 1672.92603 1727.50488
1722.0 0.000581 1671.08215 1723.56677
1774.0 0.000564 1669.24841 1719.78308
1707.0 0.000586 1667.42432 1716.14063
1683.0 0.000594 1665.60999 1712.63013
1711.0 0.000584 1663.80566 1709.24146
1730.0 0.000578 1662.01025 1705.96509
1789.0 0.000559 1660.22534 1702.79602
1721.0 0.000581 1658.44958 1699.72498
1766.0 0.000566 1656.68396 1696.74744
1778.0 0.000562 1654.92737 1693.85620
1707.0 0.000586 1653.18079 1691.04773
1697.0 0.000589 1651.44324 1688.31580
1781.0 0.000561 1649.71582 1691.00330
1768.0 0.000566 1647.99707 1688.52478
1721.0 0.000581 1646.28833 1686.11646
1697.0 0.000589 1644.58850 1682.60400
1726.0 0.000579 1642.89844 1680.34949
1731.0 0.000578 1641.21716 1678.15491
1769.0 0.000565 1639.54565 1676.01978
1741.0 0.000574 1637.88281 1673.94067
1751.0 0.000571 1636.22961 1671.91699
1596.0 0.000627 1634.58496 1669.94629
1618.0 0.000618 1632.95007 1668.02832
1637.0 0.000611 1631.32385 1666.72864
1691.0 0.000591 1629.70630 1664.93347
1689.0 0.000592 1628.09790 1663.18921
1702.0 0.000588 1626.49854 1661.49524
1653.0 0.000605 1624.90808 1659.85144
1665.0 0.000601 1623.32617 1658.25720
1667.0 0.000600 1621.75342 1656.71301
1653.0 0.000605 1620.18896 1655.21826
1796.0 0.000557 1618.63354 1653.77429
1617.0 0.000618 1617.08655 1652.38098
1641.0 0.000609 1615.54822 1651.03918
1635.0 0.000612 1614.01843 1649.75000
1625.0 0.000615 1612.49731 1648.51428
1693.0 0.000591 1610.98413 1647.33289
1616.0 0.000619 1609.47986 1646.20862
1653.0 0.000605 1607.98340 1645.14172
1684.0 0.000594 1606.49573 1644.13538
1660.0 0.000602 1605.01587 1643.19128
1676.0 0.000597 1603.54468 1642.31274
1805.0 0.000554 1602.08130 1641.50171
1850.0 0.000541 1600.62585 1640.76270
1804.0 0.000554 1599.17883 1640.09900
1854.0 0.000539 1597.73950 1639.51526
1786.0 0.000560 1596.30859 1639.01611
1748.0 0.000572 1594.88501 1638.60693
1765.0 0.000567 1593.46997 1638.29456
1693.0 0.000591 1592.06213 1638.08545
1665.0 0.000601 1590.66235 1637.98840
1667.0 0.000600 1589.27002 1638.01245
1608.0 0.000622 1587.88574 1638.16809
1631.0 0.000613 1586.50867 1638.46790
1626.0 0.000615 1585.13940 1638.92566
1679.0 0.000596 1583.77734 1639.55884
1602.0 0.000624 1582.42322 1640.38611
1692.0 0.000591 1581.07593 1641.43115
1689.0 0.000592 1579.73645 1642.72131
1591.0 0.000629 1578.40381 1644.29053
1679.0 0.000596 1577.07886 1646.17957
1539.0 0.000650 1575.76099 1648.43994
1578.0 0.000634 1574.44983 1651.13745
1639.0 0.000610 1573.14636 1654.35510
1678.0 0.000596 1571.84949 1658.21082
1667.0 0.000600 1570.55994 1662.87671
1641.0 0.000609 1569.27698 1668.64868
1585.0 0.000631 1568.00134 1676.06958
1682.0 0.000595 1566.73206 1686.18591
1713.0 0.000584 1565.46997 1700.85925
1742.0 0.000574 1564.21423 1723.04504
1820.0 0.000549 1562.96570 1756.55774
1882.0 0.000531 1561.72314 1804.83936
1924.0 0.000520 1560.48779 1867.68762
1900.0 0.000526 1559.25854 1937.37878
2146.0 0.000466 1558.03613 1999.75647
2080.0 0.000481 1556.81982 2035.60669
2051.0 0.000488 1555.61035 2019.93530
2083.0 0.000480 1554.40674 1976.61902
2008.0 0.000498 1553.20984 1930.31897
1901.0 0.000526 1552.01880 1900.27820
2050.0 0.000488 1550.83374 1892.43652
1979.0 0.000505 1549.65540 1906.29712
2048.0 0.000488 1548.48279 1939.56628
2145.0 0.000466 1547.31665 1990.82568
2106.0 0.000475 1546.15601 2060.58325
2306.0 0.000434 1545.00171 2150.89355
2404.0 0.000416 1543.85303 2264.70288
2431.0 0.000411 1542.71057 2404.55518
2642.0 0.000379 1541.57373 2571.23462
2685.0 0.000372 1540.44287 2760.61963
2969.0 0.0003368 1539.31738 2959.62109
2898.0 0.0003451 1538.19775 3141.44653
3001.0 0.0003332 1537.08374 3268.25171
3152.0 0.0003173 1535.97534 3306.84351
2999.0 0.0003334 1534.87256 3251.46631
2902.0 0.0003446 1533.77527 3129.01831
2878.0 0.0003475 1532.68323 2980.57397
2778.0 0.000360 1531.59692 2841.25684
2700.0 0.000370 1530.51587 2733.27588
2571.0 0.000389 1529.43982 2669.32495
2612.0 0.000383 1528.36951 2657.52490
2852.0 0.0003506 1527.30420 2704.60815
2984.0 0.0003351 1526.24451 2817.13525
3075.0 0.0003252 1525.18945 3001.05469
3370.0 0.0002967 1524.14001 3259.01929
3701.0 0.0002702 1523.09534 3585.23560
4204.0 0.0002379 1522.05591 3953.75293
4397.0 0.0002274 1521.02124 4303.41846
4425.0 0.0002260 1519.99194 4534.05176
4398.0 0.0002274 1518.96729 4550.35400
4337.0 0.0002306 1517.94775 4336.93555
4009.0 0.0002494 1516.93286 3972.22778
3722.0 0.0002687 1515.92310 3560.30322
3192.0 0.0003133 1514.91785 3172.11719
2802.0 0.000357 1513.91760 2839.56152
2497.0 0.000400 1512.92175 2569.60791
2243.0 0.000446 1511.93103 2357.99243
2147.0 0.000466 1510.94482 2195.64282
1890.0 0.000529 1509.96289 2075.37549
1932.0 0.000518 1508.98596 1982.19714
1815.0 0.000551 1508.01343 1910.93372
1732.0 0.000577 1507.04553 1855.50708
1721.0 0.000581 1506.08203 1811.42114
1609.0 0.000622 1505.12317 1775.58264
1654.0 0.000605 1504.16870 1745.84021
1720.0 0.000581 1503.21851 1720.75745
1643.0 0.000609 1502.27283 1699.31079
1557.0 0.000642 1501.33154 1680.78821
1594.0 0.000627 1500.39441 1664.64246
1585.0 0.000631 1499.46191 1650.47144
1604.0 0.000623 1498.53333 1637.94458
1598.0 0.000626 1497.60925 1626.81189
1624.0 0.000616 1496.68933 1616.85889
1667.0 0.000600 1495.77368 1607.92139
1584.0 0.000631 1494.86194 1599.85461
1582.0 0.000632 1493.95471 1593.97522
1616.0 0.000619 1493.05139 1587.36328
1612.0 0.000620 1492.15198 1581.33142
1580.0 0.000633 1491.25696 1575.81494
1672.0 0.000598 1490.36584 1570.75305
1598.0 0.000626 1489.47888 1566.09912
1517.0 0.000659 1488.59595 1561.80945
1631.0 0.000613 1487.71704 1557.85095
1609.0 0.000622 1486.84204 1554.19116
1544.0 0.000648 1485.97107 1550.80615
1476.0 0.000678 1485.10388 1547.67249
1604.0 0.000623 1484.24097 1544.77332
1459.0 0.000685 1483.38147 1542.09119
1591.0 0.000629 1482.52625 1539.61511
1536.0 0.000651 1481.67468 1537.33313
1507.0 0.000664 1480.82727 1535.23816
1528.0 0.000654 1479.98328 1533.32288
1481.0 0.000675 1479.14355 1531.58484
1535.0 0.000651 1478.30737 1530.02075
1521.0 0.000657 1477.47510 1528.63184
1547.0 0.000646 1476.64648 1527.42004
1511.0 0.000662 1475.82166 1526.39050
1498.0 0.000668 1475.00085 1525.55115
1542.0 0.000649 1474.18347 1524.91223
1539.0 0.000650 1473.37012 1524.48853
1522.0 0.000657 1472.56030 1524.29797
1565.0 0.000639 1471.75427 1524.36475
1458.0 0.000686 1470.95190 1524.71826
1512.0 0.000661 1470.15344 1525.39612
1651.0 0.000606 1469.35828 1528.79529
1543.0 0.000648 1468.56714 1530.34839
1619.0 0.000618 1467.77954 1532.41235
1498.0 0.000668 1466.99561 1535.08301
1491.0 0.000671 1466.21533 1538.48816
1455.0 0.000687 1465.43872 1542.79321
1542.0 0.000649 1464.66565 1548.23315
1539.0 0.000650 1463.89661 1558.42236
1616.0 0.000619 1463.13062 1567.39160
1665.0 0.000601 1462.36877 1579.18079
1650.0 0.000606 1461.61023 1595.13611
1633.0 0.000612 1460.85522 1617.35876
1624.0 0.000616 1460.10425 1648.94788
1744.0 0.000573 1459.35657 1694.12097
1954.0 0.000512 1458.61267 1757.87463
1900.0 0.000526 1457.87219 1845.29810
2026.0 0.000494 1457.13550 1959.93701
2184.0 0.000458 1456.40210 2101.43604
2206.0 0.000453 1455.67273 2260.53394
2365.0 0.000423 1454.94666 2411.77808
2484.0 0.000403 1454.22437 2539.54175
2440.0 0.000410 1453.50562 2542.78442
2410.0 0.000415 1452.79053 2448.87695
2279.0 0.000439 1452.07886 2299.71753
2208.0 0.000453 1451.37097 2141.07837
1962.0 0.000510 1450.66650 1999.37878
1911.0 0.000523 1449.96582 1880.32263
1789.0 0.000559 1449.26855 1792.97681
1642.0 0.000609 1448.57495 1729.69519
1662.0 0.000602 1447.88501 1685.44995
1737.0 0.000576 1447.19849 1655.24988
1650.0 0.000606 1446.51575 1634.89514
1546.0 0.000647 1445.83655 1621.26721
1559.0 0.000641 1445.16113 1613.04407
1589.0 0.000629 1444.48901 1607.43872
1567.0 0.000638 1443.82080 1604.44568
1587.0 0.000630 1443.15601 1603.66650
1645.0 0.000608 1442.49500 1604.93896
1560.0 0.000641 1441.83740 1608.29102
1658.0 0.000603 1441.18372 1613.93848
1581.0 0.000633 1440.53345 1622.33716
1598.0 0.000626 1439.88696 1634.23865
1644.0 0.000608 1439.24390 1645.31433
1648.0 0.000607 1438.60474 1668.14807
1657.0 0.000604 1437.96899 1699.09448
1811.0 0.000552 1437.33716 1740.26050
1843.0 0.000543 1436.70862 1793.65100
1930.0 0.000518 1436.08411 1860.47144
2042.0 0.000490 1435.46301 1940.16895
2158.0 0.000463 1434.84570 2028.29834
2261.0 0.000442 1434.23206 2113.61670
2235.0 0.000447 1433.62207 2177.11694
2222.0 0.000450 1433.01587 2199.39380
2351.0 0.000425 1432.41321 2175.91968
2245.0 0.000445 1431.81445 2121.72437
2133.0 0.000469 1431.21912 2058.69824
2008.0 0.000498 1430.62756 2003.58813
2036.0 0.000491 1430.03992 1966.36450
2029.0 0.000493 1429.45581 1952.58435
1883.0 0.000531 1428.87549 1967.48120
1993.0 0.000502 1428.29895 2016.25256
2062.0 0.000485 1427.72595 2103.88428
2208.0 0.000453 1427.15698 2233.11719
2306.0 0.000434 1426.59143 2401.16431
2522.0 0.000397 1426.02991 2593.34668
2838.0 0.000352 1425.47192 2776.26074
2965.0 0.0003373 1424.91785 2888.31128
2951.0 0.0003389 1424.36731 2887.17700
2857.0 0.0003500 1423.82068 2788.79883
2843.0 0.000352 1423.27783 2651.75293
2562.0 0.000390 1422.73865 2525.95776
2388.0 0.000419 1422.20349 2437.36035
2290.0 0.000437 1421.67175 2395.70605
2364.0 0.000423 1421.14417 2403.43799
2349.0 0.000426 1420.62012 2461.66675
2430.0 0.000412 1420.09998 2575.34766
2699.0 0.000371 1419.58362 2758.54028
2969.0 0.0003368 1419.07104 3038.92603
3496.0 0.0002860 1418.56226 3461.53564
4189.0 0.0002387 1418.05725 4087.28809
4958.0 0.0002017 1417.55591 4986.10303
6166.0 0.0001622 1417.05872 6217.93750
7554.0 0.0001324 1416.56506 7806.54590
9637.0 0.0001038 1416.07532 9691.77246
11504.0 0.0000869 1415.58923 11657.45898
13119.0 0.0000762 1415.10718 13242.36816
13951.0 0.0000717 1414.62878 13838.68457
13437.0 0.0000744 1414.15417 13149.26855
11947.0 0.0000837 1413.68359 11520.48047
9743.0 0.0001026 1413.21667 9558.55664
7560.0 0.0001323 1412.75354 7704.43652
5860.0 0.0001706 1412.29419 6158.44238
4572.0 0.0002187 1411.83887 4972.73389
3811.0 0.0002624 1411.38696 4120.38525
3263.0 0.0003065 1410.93921 3541.68872
3248.0 0.0003079 1410.49512 3169.10107
2959.0 0.0003380 1410.05505 2944.99731
2773.0 0.000361 1409.61841 2827.34204
3012.0 0.0003320 1409.18591 2789.70972
2866.0 0.0003489 1408.75684 2816.68823
2971.0 0.0003366 1408.33191 2898.50586
3002.0 0.0003331 1407.91052 3025.24976
3082.0 0.0003245 1407.49304 3179.98071
3214.0 0.0003111 1407.07935 3331.73413
3227.0 0.0003099 1406.66943 3433.38647
3217.0 0.0003108 1406.26306 3437.68506
3221.0 0.0003105 1405.86060 3327.95581
3108.0 0.0003218 1405.46191 3131.33203
2894.0 0.0003455 1405.06689 2895.63086
2875.0 0.0003478 1404.67566 2660.93042
2669.0 0.000375 1404.28809 2449.45776
2476.0 0.000404 1403.90442 2269.99854
2382.0 0.000420 1403.52429 2123.36523
2195.0 0.000456 1403.14795 2006.74243
2133.0 0.000469 1402.77527 1915.86560
2088.0 0.000479 1402.40625 1845.14685
2013.0 0.000497 1402.04102 1790.23413
1974.0 0.000507 1401.67932 1747.21289
1814.0 0.000551 1401.32117 1712.95007
1836.0 0.000545 1400.96692 1685.15894
1769.0 0.000565 1400.61609 1662.18372
1722.0 0.000581 1400.26892 1642.90222
1648.0 0.000607 1399.92529 1626.52185
1648.0 0.000607 1399.58533 1612.50989
1582.0 0.000632 1399.24878 1600.47424
1671.0 0.000598 1398.91589 1590.14099
1647.0 0.000607 1398.58667 1581.30725
1597.0 0.000626 1398.26074 1573.81775
1651.0 0.000606 1397.93848 1567.56946
1620.0 0.000617 1397.61951 1562.49011
1589.0 0.000629 1397.30408 1558.54858
1612.0 0.000620 1396.99219 1555.74817
1618.0 0.000618 1396.68372 1554.14172
1596.0 0.000627 1396.37842 1550.11646
1609.0 0.000622 1396.07678 1551.43054
1629.0 0.000614 1395.77832 1554.59290
1659.0 0.000603 1395.48328 1560.13550
1689.0 0.000592 1395.19165 1568.86218
1639.0 0.000610 1394.90320 1581.89722
1671.0 0.000598 1394.61804 1600.73669
1626.0 0.000615 1394.33618 1627.16833
1740.0 0.000575 1394.05750 1663.16333
1715.0 0.000583 1393.78210 1710.51501
1807.0 0.000553 1393.50977 1770.44128
1857.0 0.000539 1393.24060 1842.95874
1873.0 0.000534 1392.97461 1924.36157
1948.0 0.000513 1392.71167 2006.70715
2041.0 0.000490 1392.45178 2075.05005
2009.0 0.000498 1392.19495 2111.59448
1972.0 0.000507 1391.94116 2106.70117
2045.0 0.000489 1391.69043 2067.05908
1951.0 0.000513 1391.44263 2009.32019
1922.0 0.000520 1391.19751 1947.62781
1919.0 0.000521 1390.95557 1888.24609
1873.0 0.000534 1390.71631 1831.60352
1776.0 0.000563 1390.47998 1777.36292
1819.0 0.000550 1390.24634 1727.07495
1651.0 0.000606 1390.01563 1683.24731
1761.0 0.000568 1389.78748 1647.34790
1655.0 0.000604 1389.56213 1619.51416
1676.0 0.000597 1389.33936 1599.02979
1597.0 0.000626 1389.11926 1584.95276
1613.0 0.000620 1388.90161 1576.37695
1554.0 0.000644 1388.68652 1572.60474
1639.0 0.000610 1388.47412 1573.18994
1655.0 0.000604 1388.26404 1577.97571
1584.0 0.000631 1388.05652 1587.10657
1625.0 0.000615 1387.85132 1601.03833
1628.0 0.000614 1387.64844 1620.49951
1589.0 0.000629 1387.44788 1646.48743
1737.0 0.000576 1387.24963 1680.15674
1722.0 0.000581 1387.05359 1722.78247
1692.0 0.000591 1386.85986 1775.52783
1771.0 0.000565 1386.66797 1839.29871
1923.0 0.000520 1386.47852 1914.20325
1976.0 0.000506 1386.29089 1998.97034
2033.0 0.000492 1386.10535 2089.63770
2127.0 0.000470 1385.92175 2178.36694
2165.0 0.000462 1385.74023 2252.66504
2157.0 0.000464 1385.56042 2297.73413
2235.0 0.000447 1385.38245 2302.20874
2154.0 0.000464 1385.20630 2264.58032
2131.0 0.000469 1385.03186 2194.09766
2120.0 0.000472 1384.85913 2105.39478
1990.0 0.000503 1384.68799 2011.83289
1909.0 0.000524 1384.51843 1922.53296
1914.0 0.000522 1384.35059 1842.24207
1821.0 0.000549 1384.18408 1772.84119
1780.0 0.000562 1384.01904 1714.40979
1645.0 0.000608 1383.85547 1666.20789
1641.0 0.000609 1383.69312 1627.02441
1582.0 0.000632 1383.53198 1595.56274
1523.0 0.000657 1383.37231 1570.51270
1518.0 0.000659 1383.21362 1550.72021
1571.0 0.000637 1383.05615 1535.18628
1424.0 0.000702 1382.89978 1523.13391
1495.0 0.000669 1382.74438 1513.97766
1563.0 0.000640 1382.58997 1507.33923
1527.0 0.000655 1382.43652 1503.01282
1508.0 0.000663 1382.28381 1500.96204
1556.0 0.000643 1382.13196 1501.29871
1608.0 0.000622 1381.98083 1504.25769
1572.0 0.000636 1381.83044 1497.28113
1536.0 0.000651 1381.68054 1506.66565
1655.0 0.000604 1381.53137 1519.48096
1630.0 0.000613 1381.38257 1535.60754
1683.0 0.000594 1381.23438 1554.43970
1618.0 0.000618 1381.08643 1574.86609
1619.0 0.000618 1380.93896 1595.20935
1742.0 0.000574 1380.79163 1612.99536
1787.0 0.000560 1380.64465 1624.54346
1723.0 0.000580 1380.49780 1625.81299
1694.0 0.000590 1380.35095 1615.01160
1671.0 0.000598 1380.20422 1594.46326
1610.0 0.000621 1380.05750 1569.11694
1685.0 0.000593 1379.91052 1543.61133
1583.0 0.000632 1379.76355 1520.96338
1584.0 0.000631 1379.61633 1502.70007
1542.0 0.000649 1379.46875 1489.46875
1522.0 0.000657 1379.32092 1481.44641
1543.0 0.000648 1379.17261 1478.52747
1521.0 0.000657 1379.02393 1480.41553
1524.0 0.000656 1378.87476 1486.59265
1495.0 0.000669 1378.72498 1496.16821
1576.0 0.000635 1378.57446 1507.58716
1576.0 0.000635 1378.42334 1518.22083
1464.0 0.000683 1378.27124 1524.46423
1494.0 0.000669 1378.11853 1523.14294
1492.0 0.000670 1377.96472 1513.72217
1574.0 0.000635 1377.81006 1498.67090
1508.0 0.000663 1377.65430 1481.43188
1471.0 0.000680 1377.49744 1464.63171
1426.0 0.000701 1377.33936 1449.66614
1457.0 0.000686 1377.18005 1437.08020
1452.0 0.000689 1377.01953 1426.90112
1440.0 0.000694 1376.85754 1418.90149
1403.0 0.000713 1376.69421 1412.71899
1495.0 0.000669 1376.52930 1407.96484
1392.0 0.000718 1376.36292 1404.28296
1496.0 0.000668 1376.19470 1401.42761
1420.0 0.000704 1376.02490 1399.07153
1482.0 0.000675 1375.85339 1397.10608
1423.0 0.000703 1375.67993 1395.42346
1413.0 0.000708 1375.50464 1393.95068
1426.0 0.000701 1375.32739 1392.64050
1480.0 0.000676 1375.14807 1391.45898
1434.0 0.000697 1374.96667 1390.38354
1474.0 0.000678 1374.78308 1389.39575
1460.0 0.000685 1374.59729 1388.48315
1414.0 0.000707 1374.40906 1387.63354
1391.0 0.000719 1374.21863 1386.83923
1438.0 0.000695 1374.02563 1386.09216
1390.0 0.000719 1373.83032 1385.38684
1305.0 0.000766 1373.63220 1384.71729
1421.0 0.000704 1373.43152 1384.07959
1393.0 0.000718 1373.22815 1383.47009
1361.0 0.000735 1373.02197 1382.88513
1456.0 0.000687 1372.81311 1382.32251
1475.0 0.000678 1372.60107 1381.77881
1457.0 0.000686 1372.38623 1381.25305
1412.0 0.000708 1372.16833 1380.74243
1430.0 0.000699 1371.94739 1380.24585
1437.0 0.000696 1371.72314 1379.76123
1395.0 0.000717 1371.49573 1378.35339
1422.0 0.000703 1371.26501 1377.90576
1355.0 0.000738 1371.03101 1377.46680
1426.0 0.000701 1370.79346 1377.03503
1381.0 0.000724 1370.55249 1377.52051
1420.0 0.000704 1370.30774 1377.11670
1367.0 0.000732 1370.05957 1376.71863
1341.0 0.000746 1369.80762 1376.32532
1333.0 0.000750 1369.55200 1375.93616
1423.0 0.000703 1369.29236 1375.55054
1424.0 0.000702 1369.02905 1375.16821
1436.0 0.000696 1368.76172 1374.78870
1416.0 0.000706 1368.49023 1374.41125
1387.0 0.000721 1368.21484 1374.03601
1458.0 0.000686 1367.93518 1373.66211
1380.0 0.000725 1367.65137 1373.28955
1450.0 0.000690 1367.36328 1372.91797
1393.0 0.000718 1367.07092 1373.58789
1434.0 0.000697 1366.77405 1373.24951
1381.0 0.000724 1366.47290 1372.91296
1422.0 0.000703 1366.16699 1372.57776
1446.0 0.000692 1365.85669 1372.24414
1476.0 0.000678 1365.54163 1371.91187
1397.0 0.000716 1365.22205 1371.58093
1376.0 0.000727 1364.89746 1371.25110
1371.0 0.000729 1364.56824 1370.92261
1421.0 0.000704 1364.23401 1370.59534
1404.0 0.000712 1363.89502 1370.26978
1404.0 0.000712 1363.55078 1369.94507
1387.0 0.000721 1363.20166 1369.62219
1497.0 0.000668 1362.84741 1369.30078
1467.0 0.000682 1362.48792 1366.92969
1513.0 0.000661 1362.12329 1366.64734
1466.0 0.000682 1361.75317 1366.36621
1507.0 0.000664 1361.37805 1366.08679
1461.0 0.000684 1360.99731 1365.80933
1441.0 0.000694 1360.61121 1365.53418
1465.0 0.000683 1360.21948 1365.26172
1342.0 0.000745 1359.82239 1365.01038
1382.0 0.000724 1359.41943 1364.74536
1353.0 0.000739 1359.01111 1364.48511
1455.0 0.000687 1358.59680 1364.23010
1423.0 0.000703 1358.17688 1363.98096
1331.0 0.000751 1357.75110 1363.73901
1368.0 0.000731 1357.31946 1363.50500
1414.0 0.000707 1356.88184 1363.28040
1319.0 0.000758 1356.43835 1363.06641
1391.0 0.000719 1355.98877 1362.86475
1396.0 0.000716 1355.53308 1362.67664
1434.0 0.000697 1355.07141 1362.50476
1408.0 0.000710 1354.60339 1362.35120
1394.0 0.000717 1354.12927 1362.21875
1359.0 0.000736 1353.64880 1362.11047
1371.0 0.000729 1353.16223 1362.02991
1409.0 0.000710 1352.66907 1361.98120
1373.0 0.000728 1352.16968 1361.96960
1350.0 0.000741 1351.66382 1362.00073
1453.0 0.000688 1351.15149 1362.08154
1345.0 0.000743 1350.63257 1362.21997
1417.0 0.000706 1350.10718 1361.87769
1412.0 0.000708 1349.57507 1362.17383
1374.0 0.000728 1349.03638 1362.56311
1380.0 0.000725 1348.49097 1363.06396
1371.0 0.000729 1347.93884 1363.69714
1381.0 0.000724 1347.37988 1364.49072
1392.0 0.000718 1346.81433 1365.47827
1365.0 0.000733 1346.24170 1366.70471
1312.0 0.000762 1345.66235 1368.23071
1314.0 0.000761 1345.07605 1370.14478
1437.0 0.000696 1344.48267 1372.58789
1358.0 0.000736 1343.88245 1375.79712
1358.0 0.000736 1343.27515 1380.19934
1355.0 0.000738 1342.66089 1386.53589
1418.0 0.000705 1342.03943 1396.05017
1417.0 0.000706 1341.41101 1410.63220
1375.0 0.000727 1340.77527 1432.87354
1416.0 0.000706 1340.13257 1465.77100
1453.0 0.000688 1339.48242 1512.27063
1479.0 0.000676 1338.82520 1573.46765
1616.0 0.000619 1338.16077 1648.29956
1675.0 0.000597 1337.48889 1731.16284
1728.0 0.000579 1336.80981 1810.31750
1832.0 0.000546 1336.12354 1866.99573
1935.0 0.000517 1335.42957 1881.80090
1948.0 0.000513 1334.72852 1849.12329
1980.0 0.000505 1334.01978 1782.63062
1817.0 0.000550 1333.30383 1702.98962
1723.0 0.000580 1332.58032 1625.92419
1636.0 0.000611 1331.84912 1560.04846
1528.0 0.000654 1331.11084 1508.54602
1451.0 0.000689 1330.36475 1470.83533
1422.0 0.000703 1329.61145 1444.31750
1429.0 0.000700 1328.85022 1425.76233
1431.0 0.000699 1328.08179 1412.39209
1442.0 0.000693 1327.30554 1402.34314
1375.0 0.000727 1326.52185 1394.53760
1382.0 0.000724 1325.73035 1388.39209
1302.0 0.000768 1324.93152 1383.60718
1420.0 0.000704 1324.12476 1380.02051
1376.0 0.000727 1323.31055 1377.55334
1328.0 0.000753 1322.48853 1376.16272
1404.0 0.000712 1321.65906 1375.85425
1313.0 0.000762 1320.82166 1376.67053
1382.0 0.000724 1319.97681 1378.70349
1396.0 0.000716 1319.12402 1382.10535
1392.0 0.000718 1318.26379 1387.09082
1409.0 0.000710 1317.39563 1393.94604
1405.0 0.000712 1316.51990 1403.01599
1404.0 0.000712 1315.63647 1414.68958
1389.0 0.000720 1314.74524 1429.38806
1414.0 0.000707 1313.84644 1447.49866
1489.0 0.000672 1312.93970 1469.34766
1532.0 0.000653 1312.02551 1495.06738
1494.0 0.000669 1311.10327 1524.49683
1541.0 0.000649 1310.17371 1556.89172
1546.0 0.000647 1309.23608 1590.66406
1563.0 0.000640 1308.29102 1622.97461
1569.0 0.000637 1307.33789 1649.74792
1594.0 0.000627 1306.37756 1666.28430
1582.0 0.000632 1305.40906 1668.91907
1602.0 0.000624 1304.43323 1656.75903
1576.0 0.000635 1303.44934 1632.18970
1488.0 0.000672 1302.45813 1599.64270
1468.0 0.000681 1301.45886 1563.66248
1517.0 0.000659 1300.45227 1527.77502
1474.0 0.000678 1299.43774 1494.14844
1409.0 0.000710 1298.41565 1463.91614
1412.0 0.000708 1297.38623 1437.49707
1333.0 0.000750 1296.34875 1414.85901
1340.0 0.000746 1295.30408 1395.75659
1313.0 0.000762 1294.25159 1379.79346
1415.0 0.000707 1293.19165 1366.54089
1404.0 0.000712 1292.12402 1355.55115
1291.0 0.000775 1291.04919 1346.41797
1307.0 0.000765 1289.96643 1338.76929
1358.0 0.000736 1288.87646 1332.29895
1269.0 0.000788 1287.77869 1326.74951
1267.0 0.000789 1286.67383 1321.92249
1296.0 0.000772 1285.56128 1317.65942
1353.0 0.000739 1284.44141 1313.84338
1291.0 0.000775 1283.31409 1310.38330
1244.0 0.000804 1282.17957 1307.21289
1252.0 0.000799 1281.03748 1304.49463
1309.0 0.000764 1279.88818 1301.76746
1261.0 0.000793 1278.73157 1299.20789
1292.0 0.000774 1277.56750 1296.79236
1287.0 0.000777 1276.39648 1294.50159
1272.0 0.000786 1275.21802 1292.31836
1224.0 0.000817 1274.03271 1290.23035
1260.0 0.000794 1272.83984 1288.22498
1305.0 0.000766 1271.64026 1286.29407
1269.0 0.000788 1270.43323 1284.42871
1291.0 0.000775 1269.21948 1282.62280
1274.0 0.000785 1267.99841 1280.87085
1259.0 0.000794 1266.77063 1279.16919
1249.0 0.000801 1265.53552 1277.51514
1225.0 0.000816 1264.29407 1275.90906
1251.0 0.000799 1263.04517 1274.35229
1275.0 0.000784 1261.78979 1272.84900
1293.0 0.000773 1260.52722 1271.40454
1303.0 0.000767 1259.25842 1270.02502
1309.0 0.000764 1257.98230 1268.71155
1268.0 0.000789 1256.70007 1267.66467
1287.0 0.000777 1255.41064 1266.46777
1269.0 0.000788 1254.11475 1265.29395
1282.0 0.000780 1252.81262 1264.10205
1271.0 0.000787 1251.50366 1262.84473
1235.0 0.000810 1250.18848 1261.50122
1263.0 0.000792 1248.86658 1260.09595
1260.0 0.000794 1247.53857 1258.68030
1245.0 0.000803 1246.20398 1257.30164
1246.0 0.000803 1244.86328 1255.99402
1289.0 0.000776 1243.51611 1254.77893
1262.0 0.000792 1242.16296 1253.67175
1274.0 0.000785 1240.80347 1252.68457
1203.0 0.000831 1239.43811 1251.83423
1270.0 0.000787 1238.06653 1251.14526
1221.0 0.000819 1236.68921 1250.65857
1172.0 0.000853 1235.30542 1250.43970
1221.0 0.000819 1233.91626 1250.57202
1187.0 0.000842 1232.52087 1251.17932
1236.0 0.000809 1231.12000 1252.41492
1254.0 0.000797 1229.71289 1254.46167
1224.0 0.000817 1228.30017 1257.51709
1295.0 0.000772 1226.88232 1261.77148
1236.0 0.000809 1225.45837 1267.38269
1279.0 0.000782 1224.02942 1274.42456
1247.0 0.000802 1222.59448 1282.83850
1255.0 0.000797 1221.15454 1292.33130
1279.0 0.000782 1219.70911 1302.26331
1333.0 0.000750 1218.25842 1311.48328
1296.0 0.000772 1216.80225 1318.35156
1305.0 0.000766 1215.34143 1321.12646
1262.0 0.000792 1213.87488 1318.81287
1297.0 0.000771 1212.40369 1311.93103
1306.0 0.000766 1210.92712 1301.77783
1326.0 0.000754 1209.44617 1290.35864
1345.0 0.000743 1207.95984 1279.24146
1279.0 0.000782 1206.46887 1269.57617
1274.0 0.000785 1204.97302 1262.22375
1188.0 0.000842 1203.47302 1257.95825
1295.0 0.000772 1201.96777 1257.54163
1264.0 0.000791 1200.45789 1261.68933
1343.0 0.000745 1198.94385 1270.85742
1381.0 0.000724 1197.42505 1284.93237
1270.0 0.000787 1195.90271 1302.84229
1261.0 0.000793 1194.37524 1322.20129
1341.0 0.000746 1192.84387 1339.27051
1287.0 0.000777 1191.30811 1348.98938
1294.0 0.000773 1189.76880 1347.25537
1338.0 0.000747 1188.22485 1333.40479
1311.0 0.000763 1186.67725 1311.42896
1260.0 0.000794 1185.12537 1286.36365
1291.0 0.000775 1183.57043 1262.13440
1270.0 0.000787 1182.01099 1241.04419
1249.0 0.000801 1180.44824 1224.07788
1196.0 0.000836 1178.88147 1211.20959
1193.0 0.000838 1177.31189 1201.82788
1251.0 0.000799 1175.73804 1195.07019
1250.0 0.000800 1174.16125 1190.54895
1233.0 0.000811 1172.58105 1186.74731
1178.0 0.000849 1170.99731 1183.64587
1125.0 0.000889 1169.41064 1180.96582
1224.0 0.000817 1167.82043 1178.54480
1192.0 0.000839 1166.22791 1176.29651
1229.0 0.000814 1164.63184 1174.16980
1185.0 0.000844 1163.03308 1172.13721
1128.0 0.000887 1161.43115 1170.18066
1212.0 0.000825 1159.82715 1168.28882
1124.0 0.000890 1158.21973 1166.45203
1140.0 0.000877 1156.61011 1164.66504
1157.0 0.000864 1154.99756 1162.92249
1172.0 0.000853 1153.38318 1161.22314
1135.0 0.000881 1151.76587 1158.43579
1156.0 0.000865 1150.14636 1156.83447
1173.0 0.000853 1148.52441 1155.27271
1152.0 0.000868 1146.90088 1153.75232
1130.0 0.000885 1145.27454 1152.27502
1141.0 0.000876 1143.64661 1150.84607
1198.0 0.000835 1142.01624 1149.47046
1151.0 0.000869 1140.38416 1148.15796
1208.0 0.000828 1138.75085 1146.92139
1119.0 0.000894 1137.11511 1145.77795
1103.0 0.000907 1135.47815 1144.75708
1200.0 0.000833 1133.83911 1143.89661
1145.0 0.000873 1132.19946 1143.25452
1072.0 0.000933 1130.55750 1142.90686
1096.0 0.000912 1128.91455 1142.95654
1138.0 0.000879 1127.27051 1143.53247
1139.0 0.000878 1125.62512 1144.78296
1166.0 0.000858 1123.97827 1146.87305
1078.0 0.000928 1122.33069 1149.95996
1152.0 0.000868 1120.68213 1154.17566
1141.0 0.000876 1119.03271 1159.58545
1153.0 0.000867 1117.38196 1166.19470
1125.0 0.000889 1115.73096 1173.71948
1172.0 0.000853 1114.07922 1181.73950
1136.0 0.000880 1112.42688 1189.41809
1159.0 0.000863 1110.77368 1195.51306
1138.0 0.000879 1109.12012 1198.56189
1187.0 0.000842 1107.46667 1197.45459
1139.0 0.000878 1105.81238 1192.05103
1163.0 0.000860 1104.15808 1183.27954
1148.0 0.000871 1102.50342 1172.56604
1077.0 0.000929 1100.84937 1161.25183
1124.0 0.000890 1099.19446 1150.26318
1094.0 0.000914 1097.54016 1140.15479
1102.0 0.000907 1095.88550 1131.16858
1164.0 0.000859 1094.23181 1123.38477
1172.0 0.000853 1092.57776 1116.75244
1092.0 0.000916 1090.92432 1111.15674
1057.0 0.000946 1089.27100 1106.44055
1061.0 0.000943 1087.61890 1102.44385
1045.0 0.000957 1085.96680 1099.00891
1095.0 0.000913 1084.31555 1096.00439
1079.0 0.000927 1082.66479 1093.32129
1055.0 0.000948 1081.01550 1090.87756
1055.0 0.000948 1079.36633 1088.61133
1153.0 0.000867 1077.71814 1086.48035
1013.0 0.000987 1076.07129 1084.45691
1096.0 0.000912 1074.42566 1082.51978
1029.0 0.000972 1072.78101 1080.65662
1067.0 0.000937 1071.13745 1078.85840
1068.0 0.000936 1069.49536 1077.12061
1107.0 0.000903 1067.85474 1075.44031
1056.0 0.000947 1066.21558 1073.81726
1037.0 0.000964 1064.57751 1072.25195
1023.0 0.000978 1062.94177 1070.75037
1079.0 0.000927 1061.30701 1069.31885
1109.0 0.000902 1059.67432 1067.97058
1051.0 0.000951 1058.04297 1066.72546
1120.0 0.000893 1056.41443 1065.61523
1092.0 0.000916 1054.78687 1064.68274
1074.0 0.000931 1053.16174 1063.99451
1043.0 0.000959 1051.53870 1063.63733
1039.0 0.000962 1049.91711 1063.82227
1060.0 0.000943 1048.29871 1064.48376
1039.0 0.000962 1046.68201 1065.87134
1093.0 0.000915 1045.06787 1068.11511
1041.0 0.000961 1043.45581 1071.33557
1081.0 0.000925 1041.84692 1075.58386
1057.0 0.000946 1040.23987 1080.81799
1128.0 0.000887 1038.63574 1086.83862
1093.0 0.000915 1037.03381 1093.22778
1119.0 0.000894 1035.43555 1099.24719
1097.0 0.000912 1033.83923 1103.82556
1113.0 0.000898 1032.24609 1105.74426
1048.0 0.000954 1030.65552 1103.98523
1062.0 0.000942 1029.06873 1098.87964
1109.0 0.000902 1027.48425 1091.12244
1069.0 0.000935 1025.90308 1081.93567
1112.0 0.000899 1024.32483 1072.38574
1057.0 0.000946 1022.75049 1063.20947
1030.0 0.000971 1021.17908 1054.82202
1078.0 0.000928 1019.61029 1047.41724
1024.0 0.000977 1018.04596 1041.04382
1047.0 0.000955 1016.48438 1035.64172
1022.0 0.000978 1014.92664 1031.10022
1025.0 0.000976 1013.37213 1027.27551
1006.0 0.000994 1011.82190 1024.02380
1034.0 0.000967 1010.27472 1021.21002
977.0 0.001024 1008.73163 1019.53699
1040.0 0.000962 1007.19202 1017.31409
997.0 0.001003 1005.65686 1015.26703
963.0 0.001038 1004.12488 1013.40326
947.0 0.001056 1002.59735 1011.58380
1006.0 0.000994 1001.07336 1009.84064
993.0 0.001007 999.55414 1008.16083
1013.0 0.000987 998.03845 1006.53394
1015.0 0.000985 996.52716 1004.95428
1027.0 0.000974 995.01984 1003.41730
1007.0 0.000993 993.51733 1001.92151
1066.0 0.000938 992.01855 1000.46393
935.0 0.001070 990.52411 999.73450
979.0 0.001021 989.03448 998.36554
1024.0 0.000977 987.54889 997.04071
1022.0 0.000978 986.06854 995.76770
1035.0 0.000966 984.59210 994.55469
1043.0 0.000959 983.12054 993.41675
996.0 0.001004 981.65332 992.37329
1015.0 0.000985 980.19147 991.44989
1025.0 0.000976 978.73370 990.67603
997.0 0.001003 977.28101 990.08600
1012.0 0.000988 975.83325 989.71405
990.0 0.001010 974.39020 989.58807
1019.0 0.000981 972.95190 989.72656
1003.0 0.000997 971.51880 990.12677
1000.0 0.001000 970.09070 990.75818
965.0 0.001036 968.66760 991.54315
1000.0 0.001000 967.24927 992.34338
967.0 0.001034 965.83649 992.94159
992.0 0.001008 964.42871 993.06165
998.0 0.001002 963.02594 992.44867
1030.0 0.000971 961.62860 990.99530
967.0 0.001034 960.23621 988.80695
1011.0 0.000989 958.84985 986.14166
938.0 0.001066 957.46820 983.27850
1009.0 0.000991 956.09216 980.23792
992.0 0.001008 954.72119 977.57751
991.0 0.001009 953.35638 975.34991
953.0 0.001049 951.99634 973.23950
956.0 0.001046 950.64215 971.43164
985.0 0.001015 949.29321 969.91571
976.0 0.001025 947.95038 968.67279
906.0 0.001104 946.61267 967.67883
1018.0 0.000982 945.28076 966.91315
1008.0 0.000992 943.95428 966.35944
971.0 0.001030 942.63409 966.00916
1009.0 0.000991 941.31897 965.85809
968.0 0.001033 940.00989 965.90912
998.0 0.001002 938.70660 966.16730
975.0 0.001026 937.40881 966.63788
1086.0 0.000921 936.11713 967.32178
1015.0 0.000985 934.83099 968.21631
1066.0 0.000938 933.55103 969.30811
1019.0 0.000981 932.27692 970.57843
994.0 0.001006 931.00873 972.01038
1039.0 0.000962 929.74622 973.61725
1039.0 0.000962 928.48993 975.45636
1006.0 0.000994 927.23962 977.62915
958.0 0.001044 925.99530 980.24994
1016.0 0.000984 924.75677 983.56903
1002.0 0.000998 923.52472 987.40778
978.0 0.001022 922.29828 991.98450
1041.0 0.000961 921.07813 997.36304
1081.0 0.000925 919.86377 1003.60199
1086.0 0.000921 918.65613 1010.74365
1111.0 0.000900 917.45404 1018.83301
1023.0 0.000978 916.25830 1027.91431
1145.0 0.000873 915.06873 1038.07092
1110.0 0.000901 913.88477 1049.45886
1230.0 0.000813 912.70782 1062.36255
1217.0 0.000822 911.53656 1077.30347
1267.0 0.000789 910.37170 1095.06140
1237.0 0.000808 909.21283 1116.68469
1229.0 0.000814 908.06067 1143.28845
1209.0 0.000827 906.91418 1175.81262
1365.0 0.000733 905.77429 1214.58069
1328.0 0.000753 904.64032 1258.96057
1328.0 0.000753 903.51312 1306.83142
1398.0 0.000715 902.39166 1354.21423
1466.0 0.000682 901.27679 1394.97913
1493.0 0.000670 900.16785 1421.92517
1473.0 0.000679 899.06573 1429.59119
1522.0 0.000657 897.96942 1417.58447
1466.0 0.000682 896.87964 1391.17529
1437.0 0.000696 895.79590 1357.15833
1330.0 0.000752 894.71893 1321.87939
1318.0 0.000759 893.64801 1289.66394
1231.0 0.000812 892.58295 1262.63745
1298.0 0.000770 891.52484 1241.51038
1352.0 0.000740 890.47266 1226.13037
1304.0 0.000767 889.42694 1215.92346
1385.0 0.000722 888.38727 1209.99304
1436.0 0.000696 887.35437 1206.96985
1513.0 0.000661 886.32733 1205.24731
1457.0 0.000686 885.30688 1202.98108
1543.0 0.000648 884.29236 1198.48315
1463.0 0.000684 883.28473 1190.51953
1492.0 0.000670 882.28284 1178.55322
1463.0 0.000684 881.28748 1162.80884
1315.0 0.000760 880.29816 1144.07837
1251.0 0.000799 879.31561 1123.46277
1168.0 0.000856 878.33881 1102.04858
1094.0 0.000914 877.36853 1081.08569
1056.0 0.000947 876.40424 1060.91577
1079.0 0.000927 875.44672 1041.69629
1049.0 0.000953 874.49487 1023.95599
975.0 0.001026 873.54932 1007.79596
929.0 0.001076 872.61029 993.23322
965.0 0.001036 871.67706 980.20300
977.0 0.001024 870.75061 968.62231
939.0 0.001065 869.82983 958.37146
890.0 0.001124 868.91547 949.33392
933.0 0.001072 868.00708 941.37830
990.0 0.001010 867.10522 934.38544
930.0 0.001075 866.20911 928.23236
917.0 0.001091 865.31927 922.81274
910.0 0.001099 864.43561 918.02435
921.0 0.001086 863.55804 913.78033
908.0 0.001101 862.68628 910.10376
916.0 0.001092 861.82086 906.72559
898.0 0.001114 860.96149 903.69476
968.0 0.001033 860.10809 900.95569
918.0 0.001089 859.26050 898.47345
924.0 0.001082 858.41919 896.21832
897.0 0.001115 857.58380 894.16376
854.0 0.001171 856.75421 892.28967
878.0 0.001139 855.93073 890.58118
890.0 0.001124 855.11298 890.49896
841.0 0.001189 854.30151 889.13147
902.0 0.001109 853.49561 887.90179
910.0 0.001099 852.69574 886.80585
924.0 0.001082 851.90149 885.83960
869.0 0.001151 851.11346 885.00195
931.0 0.001074 850.33087 884.29120
879.0 0.001138 849.55420 883.70776
876.0 0.001142 848.78308 883.25275
887.0 0.001127 848.01819 882.92761
872.0 0.001147 847.25854 882.73450
892.0 0.001121 846.50482 882.67737
864.0 0.001157 845.75653 882.76257
834.0 0.001199 845.01428 883.00232
900.0 0.001111 844.27728 883.41852
919.0 0.001088 843.54608 884.04932
973.0 0.001028 842.82043 884.95679
851.0 0.001175 842.10010 886.23035
924.0 0.001082 841.38550 887.98480
857.0 0.001167 840.67621 890.35565
909.0 0.001100 839.97260 893.48065
866.0 0.001155 839.27429 897.48730
852.0 0.001174 838.58148 902.46295
867.0 0.001153 837.89392 908.44165
940.0 0.001064 837.21185 915.36530
902.0 0.001109 836.53510 923.06268
902.0 0.001109 835.86365 931.19025
923.0 0.001083 835.19733 939.20441
966.0 0.001035 834.53650 946.35040
964.0 0.001037 833.88062 951.82855
963.0 0.001038 833.23004 955.10339
937.0 0.001067 832.58453 956.23224
966.0 0.001035 831.94440 955.87781
918.0 0.001089 831.30902 955.01855
948.0 0.001055 830.67889 954.59351
949.0 0.001054 830.05383 955.36371
938.0 0.001066 829.43347 957.78717
956.0 0.001046 828.81842 962.18555
941.0 0.001063 828.20807 968.69360
933.0 0.001072 827.60284 977.28503
938.0 0.001066 827.00226 987.78589
958.0 0.001044 826.40680 999.85339
1033.0 0.000968 825.81592 1013.03113
1007.0 0.000993 825.22992 1026.82397
1041.0 0.000961 824.64856 1040.92126
970.0 0.001031 824.07214 1055.38037
991.0 0.001009 823.50018 1070.76196
1094.0 0.000914 822.93292 1087.98889
1077.0 0.000929 822.37018 1108.12720
1069.0 0.000935 821.81232 1132.07214
1134.0 0.000882 821.25873 1160.40076
1190.0 0.000840 820.70972 1193.20264
1297.0 0.000771 820.16510 1230.07361
1418.0 0.000705 819.62518 1270.00293
1485.0 0.000673 819.08942 1311.50671
1534.0 0.000652 818.55804 1352.78650
1669.0 0.000599 818.03125 1392.23682
1696.0 0.000590 817.50848 1429.85352
1758.0 0.000569 816.99017 1464.74536
1790.0 0.000559 816.47595 1499.76074
1675.0 0.000597 815.96606 1537.84070
1721.0 0.000581 815.46021 1581.67200
1708.0 0.000585 814.95862 1632.32385
1681.0 0.000595 814.46100 1688.24023
1693.0 0.000591 813.96759 1744.24866
1705.0 0.000587 813.47803 1791.19336
1744.0 0.000573 812.99261 1816.58582
1674.0 0.000597 812.51099 1808.39453
1708.0 0.000585 812.03357 1761.35547
1613.0 0.000620 811.55969 1680.62488
1638.0 0.000611 811.08990 1578.65259
1460.0 0.000685 810.62372 1468.84351
1421.0 0.000704 810.16156 1362.07434
1238.0 0.000808 809.70294 1265.60828
1234.0 0.000810 809.24799 1183.60217
1151.0 0.000869 808.79688 1117.55444
1098.0 0.000911 808.34924 1066.92615
1025.0 0.000976 807.90540 1029.99207
1048.0 0.000954 807.46490 1004.40955
1029.0 0.000972 807.02808 987.84442
1003.0 0.000997 806.59467 978.23914
1000.0 0.001000 806.16479 973.98120
1030.0 0.000971 805.73828 973.85815
1001.0 0.000999 805.31512 976.95917
983.0 0.001017 804.89539 982.52759
1033.0 0.000968 804.47894 989.79834
966.0 0.001035 804.06567 997.87018
982.0 0.001018 803.65576 1005.59552
1021.0 0.000979 803.24902 1011.61310
1076.0 0.000929 802.84540 1014.53070
988.0 0.001012 802.44489 1013.30859
1029.0 0.000972 802.04755 1007.62238
1004.0 0.000996 801.65326 997.97028
1029.0 0.000972 801.26190 985.44122
980.0 0.001020 800.87360 971.29425
910.0 0.001099 800.48816 956.60486
892.0 0.001121 800.10583 942.14313
931.0 0.001074 799.72626 928.35199
862.0 0.001160 799.34955 915.46179
862.0 0.001160 798.97565 903.55981
853.0 0.001172 798.60455 892.69287
864.0 0.001157 798.23615 882.87543
866.0 0.001155 797.87048 874.11713
875.0 0.001143 797.50745 866.38977
865.0 0.001156 797.14722 859.93213
868.0 0.001152 796.78943 854.08148
833.0 0.001200 796.43420 849.02881
814.0 0.001229 796.08154 844.66833
822.0 0.001217 795.73145 840.90289
879.0 0.001138 795.38367 837.63989
828.0 0.001208 795.03845 834.80396
857.0 0.001167 794.69550 832.32465
815.0 0.001227 794.35504 830.14819
832.0 0.001202 794.01691 828.22791
773.0 0.001294 793.68097 826.74933
768.0 0.001302 793.34735 825.23639
825.0 0.001212 793.01599 823.88306
819.0 0.001221 792.68683 822.66919
787.0 0.001271 792.35974 821.57672
792.0 0.001263 792.03491 820.59222
762.0 0.001312 791.71210 819.70428
790.0 0.001266 791.39136 818.90399
797.0 0.001255 791.07263 818.34418
782.0 0.001279 790.75604 817.70239
810.0 0.001235 790.44128 817.13129
785.0 0.001274 790.12848 816.62823
732.0 0.001366 789.81750 816.19080
863.0 0.001159 789.50861 815.91833
780.0 0.001282 789.20142 815.60675
822.0 0.001217 788.89606 815.36237
779.0 0.001284 788.59241 815.18250
810.0 0.001235 788.29053 815.06873
797.0 0.001255 787.99048 815.02362
827.0 0.001209 787.69196 815.04968
821.0 0.001218 787.39526 815.15155
849.0 0.001178 787.10004 815.33411
860.0 0.001163 786.80652 815.60309
839.0 0.001192 786.51453 815.96631
809.0 0.001236 786.22406 816.43182
852.0 0.001174 785.93506 817.00922
776.0 0.001289 785.64771 817.70898
835.0 0.001198 785.36163 818.54108
817.0 0.001224 785.07709 820.03308
823.0 0.001215 784.79382 821.16650
784.0 0.001276 784.51202 822.45923
898.0 0.001114 784.23151 823.78003
780.0 0.001282 783.95227 825.44873
854.0 0.001171 783.67432 827.26764
824.0 0.001214 783.39764 829.29340
826.0 0.001211 783.12219 831.57379
792.0 0.001263 782.84790 834.18140
834.0 0.001199 782.57483 837.21680
828.0 0.001208 782.30286 840.80933
799.0 0.001252 782.03204 845.11377
828.0 0.001208 781.76227 850.34357
816.0 0.001225 781.49365 856.69745
840.0 0.001190 781.22601 864.47253
893.0 0.001120 780.95929 874.00482
856.0 0.001168 780.69366 885.68164
903.0 0.001107 780.42902 899.91217
833.0 0.001200 780.16516 917.12964
909.0 0.001100 779.90234 937.72443
979.0 0.001021 779.64032 962.03723
894.0 0.001119 779.37927 990.25916
982.0 0.001018 779.11902 1022.41913
945.0 0.001058 778.85956 1058.32813
1024.0 0.000977 778.60083 1097.19092
1080.0 0.000926 778.34296 1137.90662
1105.0 0.000905 778.08575 1178.63147
1160.0 0.000862 777.82922 1216.66748
1207.0 0.000829 777.57349 1248.18396
1319.0 0.000758 777.31836 1270.52576
1354.0 0.000739 777.06396 1280.57068
1401.0 0.000714 776.81012 1277.45203
1473.0 0.000679 776.55688 1262.34363
1375.0 0.000727 776.30420 1237.84851
1447.0 0.000691 776.05219 1207.09534
1311.0 0.000763 775.80060 1172.99536
1213.0 0.000824 775.54962 1137.99890
1178.0 0.000849 775.29907 1103.95776
1075.0 0.000930 775.04901 1072.23755
1089.0 0.000918 774.79944 1043.66455
1020.0 0.000980 774.55023 1018.70544
983.0 0.001017 774.30145 997.43744
983.0 0.001017 774.05310 979.68146
938.0 0.001066 773.80505 965.01843
950.0 0.001053 773.55743 952.89349
932.0 0.001073 773.31018 942.64282
952.0 0.001050 773.06311 933.59418
930.0 0.001075 772.81647 925.13910
871.0 0.001148 772.57001 916.81012
891.0 0.001122 772.32391 908.35217
935.0 0.001070 772.07794 899.70709
849.0 0.001178 771.83221 890.98334
838.0 0.001193 771.58667 882.36237
878.0 0.001139 771.34143 874.04950
795.0 0.001258 771.09625 866.20844
848.0 0.001179 770.85126 858.96436
846.0 0.001182 770.60632 852.38501
836.0 0.001196 770.36169 846.50610
804.0 0.001244 770.11694 841.32709
820.0 0.001220 769.87238 836.83221
868.0 0.001152 769.62787 832.98566
770.0 0.001299 769.38348 829.74493
778.0 0.001285 769.13904 827.05286
844.0 0.001185 768.89465 824.84735
843.0 0.001186 768.65021 823.05334
851.0 0.001175 768.40588 821.58966
837.0 0.001195 768.16138 820.37030
833.0 0.001200 767.91693 819.31335
862.0 0.001160 767.67236 818.35718
832.0 0.001202 767.42780 817.47388
795.0 0.001258 767.18311 816.68140
785.0 0.001274 766.93823 816.04443
829.0 0.001206 766.69342 815.66669
801.0 0.001248 766.44836 815.67615
808.0 0.001238 766.20319 816.21423
856.0 0.001168 765.95782 817.31219
886.0 0.001129 765.71240 819.33215
826.0 0.001211 765.46667 822.28632
847.0 0.001181 765.22083 826.27277
872.0 0.001147 764.97467 831.35736
897.0 0.001115 764.72845 837.55060
840.0 0.001190 764.48193 844.79730
910.0 0.001099 764.23511 852.93976
945.0 0.001058 763.98804 861.69916
934.0 0.001071 763.74072 870.61786
861.0 0.001161 763.49316 879.03754
934.0 0.001071 763.24524 886.12042
939.0 0.001065 762.99707 890.96100
881.0 0.001135 762.74847 892.84454
872.0 0.001147 762.49976 891.50134
902.0 0.001109 762.25055 887.21405
869.0 0.001151 762.00104 880.67719
897.0 0.001115 761.75110 872.71600
842.0 0.001188 761.50098 864.07800
852.0 0.001174 761.25031 855.33606
827.0 0.001209 760.99933 846.93030
847.0 0.001181 760.74786 839.19781
862.0 0.001160 760.49615 832.41284
845.0 0.001183 760.24384 826.77191
803.0 0.001245 759.99115 822.40979
886.0 0.001129 759.73810 819.40051
840.0 0.001190 759.48450 817.77856
803.0 0.001245 759.23047 817.55273
832.0 0.001202 758.97595 818.71210
888.0 0.001126 758.72107 821.23071
860.0 0.001163 758.46558 825.06903
836.0 0.001196 758.20966 830.15973
897.0 0.001115 757.95319 836.40363
928.0 0.001078 757.69635 843.64063
892.0 0.001121 757.43884 851.63837
953.0 0.001049 757.18085 860.04388
966.0 0.001035 756.92224 868.37329
988.0 0.001012 756.66327 875.98657
942.0 0.001062 756.40356 882.17151
1006.0 0.000994 756.14343 886.29010
970.0 0.001031 755.88269 888.02197
1026.0 0.000975 755.62146 887.52020
1008.0 0.000992 755.35950 885.40814
929.0 0.001076 755.09705 882.59906
992.0 0.001008 754.83398 880.07550
941.0 0.001063 754.57019 878.74530
959.0 0.001043 754.30603 879.38434
986.0 0.001014 754.04108 882.63196
993.0 0.001007 753.77557 888.97980
936.0 0.001068 753.50946 898.79352
991.0 0.001009 753.24261 912.29138
977.0 0.001024 752.97528 929.47699
925.0 0.001081 752.70715 950.17297
1008.0 0.000992 752.43854 973.88257
1029.0 0.000972 752.16907 999.78229
1004.0 0.000996 751.89893 1026.57959
1030.0 0.000971 751.62830 1052.40674
1056.0 0.000947 751.35693 1074.11743
1010.0 0.000990 751.08490 1090.67224
1075.0 0.000930 750.81201 1098.92444
1060.0 0.000943 750.53864 1097.60681
997.0 0.001003 750.26453 1087.02441
990.0 0.001010 749.98962 1068.88953
1058.0 0.000945 749.71399 1045.63428
951.0 0.001052 749.43774 1019.77014
971.0 0.001030 749.16077 993.34613
995.0 0.001005 748.88312 967.95728
932.0 0.001073 748.60449 944.68945
958.0 0.001044 748.32544 924.30219
888.0 0.001126 748.04547 907.25671
946.0 0.001057 747.76483 893.75568
915.0 0.001093 747.48328 883.65576
946.0 0.001057 747.20123 876.97296
921.0 0.001086 746.91827 873.50519
948.0 0.001055 746.63452 873.01495
844.0 0.001185 746.35010 875.23218
949.0 0.001054 746.06470 879.87396
883.0 0.001133 745.77887 886.63318
904.0 0.001106 745.49200 895.19171
894.0 0.001119 745.20447 905.16498
923.0 0.001083 744.91595 916.09827
995.0 0.001005 744.62695 927.38776
911.0 0.001098 744.33704 938.31244
1014.0 0.000986 744.04626 947.98444
986.0 0.001014 743.75458 955.46387
947.0 0.001056 743.46240 959.86847
989.0 0.001011 743.16919 960.59692
990.0 0.001010 742.87518 957.46173
953.0 0.001049 742.58032 950.74646
964.0 0.001037 742.28479 941.13562
982.0 0.001018 741.98828 929.49750
941.0 0.001063 741.69104 916.74048
912.0 0.001096 741.39294 903.64575
878.0 0.001139 741.09387 890.83118
916.0 0.001092 740.79425 878.75366
907.0 0.001103 740.49359 867.68976
826.0 0.001211 740.19220 857.82629
862.0 0.001160 739.88971 849.24554
855.0 0.001170 739.58667 841.98419
878.0 0.001139 739.28265 836.00812
854.0 0.001171 738.97784 831.26141
850.0 0.001176 738.67194 827.64703
852.0 0.001174 738.36548 825.04773
850.0 0.001176 738.05798 823.31122
875.0 0.001143 737.74976 822.26599
867.0 0.001153 737.44037 821.71674
873.0 0.001145 737.13049 821.45789
834.0 0.001199 736.81952 821.28552
833.0 0.001200 736.50775 821.02258
821.0 0.001218 736.19489 820.54041
851.0 0.001175 735.88147 819.77966
836.0 0.001196 735.56689 818.74969
875.0 0.001143 735.25153 817.52258
843.0 0.001186 734.93536 816.20636
874.0 0.001144 734.61810 814.91400
830.0 0.001205 734.30017 813.74524
858.0 0.001166 733.98120 812.75751
844.0 0.001185 733.66144 811.96057
830.0 0.001205 733.34058 811.30713
823.0 0.001215 733.01904 810.69354
867.0 0.001153 732.69641 809.96515
863.0 0.001159 732.37311 808.94061
847.0 0.001181 732.04858 807.44189
897.0 0.001115 731.72345 805.34192
870.0 0.001149 731.39722 802.59131
847.0 0.001181 731.07019 799.24017
823.0 0.001215 730.74200 795.41302
870.0 0.001149 730.41321 791.28741
855.0 0.001170 730.08337 787.03595
865.0 0.001156 729.75256 782.81976
733.0 0.001364 729.42078 778.75995
753.0 0.001328 729.08807 774.96716
801.0 0.001248 728.75470 771.46252
779.0 0.001284 728.42017 768.30060
718.0 0.001393 728.08472 765.51276
768.0 0.001302 727.74823 763.16931
794.0 0.001259 727.41119 761.21198
758.0 0.001319 727.07288 759.75891
774.0 0.001292 726.73376 758.83276
830.0 0.001205 726.39349 758.55530
772.0 0.001295 726.05261 759.04761
813.0 0.001230 725.71063 760.44189
856.0 0.001168 725.36774 762.85931
809.0 0.001236 725.02374 766.40344
821.0 0.001218 724.67914 771.17755
813.0 0.001230 724.33331 776.85431
795.0 0.001258 723.98669 783.35284
787.0 0.001271 723.63892 790.33234
782.0 0.001279 723.29047 797.27441
800.0 0.001250 722.94086 803.47180
821.0 0.001218 722.59039 808.16028
846.0 0.001182 722.23895 810.47357
870.0 0.001149 721.88647 809.83990
830.0 0.001205 721.53333 806.23932
808.0 0.001238 721.17896 800.09656
799.0 0.001252 720.82373 792.26923
833.0 0.001200 720.46741 783.61792
770.0 0.001299 720.11047 774.89905
804.0 0.001244 719.75232 766.66742
778.0 0.001285 719.39325 758.99072
835.0 0.001198 719.03320 752.65033
792.0 0.001263 718.67236 747.43561
770.0 0.001299 718.31042 743.20984
787.0 0.001271 717.94763 739.87640
775.0 0.001290 717.58356 737.27344
789.0 0.001267 717.21899 735.25055
742.0 0.001348 716.85321 733.67383
774.0 0.001292 716.48663 732.44696
710.0 0.001408 716.11890 731.50433
732.0 0.001366 715.75018 730.81305
710.0 0.001408 715.38068 730.36115
771.0 0.001297 715.01013 730.15466
702.0 0.001425 714.63879 730.21216
735.0 0.001361 714.26624 730.55566
800.0 0.001250 713.89294 730.81543
772.0 0.001295 713.51855 731.78979
811.0 0.001233 713.14343 733.08557
733.0 0.001364 712.76703 734.68634
720.0 0.001389 712.39001 736.91010
755.0 0.001325 712.01184 738.96600
777.0 0.001287 711.63281 741.09644
742.0 0.001348 711.25262 743.14227
721.0 0.001387 710.87177 744.89099
736.0 0.001359 710.48981 746.10345
716.0 0.001397 710.10706 746.54858
716.0 0.001397 709.72314 746.07751
751.0 0.001332 709.33844 744.67804
721.0 0.001387 708.95270 742.47699
746.0 0.001340 708.56610 739.69299
732.0 0.001366 708.17853 736.56769
703.0 0.001422 707.78992 733.31097
755.0 0.001325 707.40063 730.09247
725.0 0.001379 707.01013 727.02374
708.0 0.001412 706.61890 724.18341
707.0 0.001414 706.22650 721.61139
769.0 0.001300 705.83350 719.32886
762.0 0.001312 705.43939 717.32935
712.0 0.001404 705.04437 715.62933
720.0 0.001389 704.64825 714.13715
736.0 0.001359 704.25159 712.85413
720.0 0.001389 703.85376 711.74518
709.0 0.001410 703.45502 710.77838
691.0 0.001447 703.05530 709.92468
703.0 0.001422 702.65497 709.15973
710.0 0.001408 702.25348 708.46252
670.0 0.001493 701.85114 707.81696
774.0 0.001292 701.44781 707.21082
731.0 0.001368 701.04352 706.63477
709.0 0.001410 700.63867 706.08289
724.0 0.001381 700.23267 705.54938
775.0 0.001290 699.82587 705.03107
706.0 0.001416 699.41797 704.52533
700.0 0.001429 699.00952 704.03107
687.0 0.001456 698.60004 703.54584
721.0 0.001387 698.18964 703.06952
724.0 0.001381 697.77820 702.60059
709.0 0.001410 697.36633 702.13959
717.0 0.001395 696.95325 701.69006
703.0 0.001422 696.53943 701.24194
751.0 0.001332 696.12451 700.79987
663.0 0.001508 695.70917 700.57751
734.0 0.001362 695.29266 700.15625
680.0 0.001471 694.87537 699.73602
651.0 0.001536 694.45709 699.32196
726.0 0.001377 694.03833 698.91406
683.0 0.001464 693.61847 698.63092
675.0 0.001481 693.19775 698.23822
706.0 0.001416 692.77643 697.85370
698.0 0.001433 692.35382 697.47827
724.0 0.001381 691.93097 697.11493
682.0 0.001466 691.50696 696.76593
678.0 0.001475 691.08234 696.43561
769.0 0.001300 690.65656 696.12964
685.0 0.001460 690.23041 695.85760
717.0 0.001395 689.80322 695.63007
725.0 0.001379 689.37537 695.46185
695.0 0.001439 688.94653 695.59015
738.0 0.001355 688.51715 695.60138
721.0 0.001387 688.08679 695.73389
715.0 0.001399 687.65588 696.01166
728.0 0.001374 687.22388 696.45435
698.0 0.001433 686.79150 697.07550
703.0 0.001422 686.35809 697.89154
689.0 0.001451 685.92413 698.87036
690.0 0.001449 685.48926 699.99463
686.0 0.001458 685.05353 701.21729
706.0 0.001416 684.61743 702.46179
754.0 0.001326 684.18042 703.69366
707.0 0.001414 683.74274 704.65247
701.0 0.001427 683.30420 705.26105
677.0 0.001477 682.86523 705.39160
691.0 0.001447 682.42542 704.97583
664.0 0.001506 681.98492 704.03088
663.0 0.001508 681.54358 702.65253
712.0 0.001404 681.10187 700.98364
689.0 0.001451 680.65936 699.16687
683.0 0.001464 680.21619 697.32806
713.0 0.001403 679.77216 695.56537
686.0 0.001458 679.32788 693.95422
697.0 0.001435 678.88269 692.54358
669.0 0.001495 678.43695 691.42139
730.0 0.001370 677.99036 690.50336
694.0 0.001441 677.54358 689.85315
723.0 0.001383 677.09583 689.47339
709.0 0.001410 676.64758 689.36499
697.0 0.001435 676.19873 689.52594
663.0 0.001508 675.74915 689.95215
678.0 0.001475 675.29932 690.63385
670.0 0.001493 674.84875 691.55566
673.0 0.001486 674.39758 692.68939
691.0 0.001447 673.94568 693.99298
666.0 0.001502 673.49371 695.40302
723.0 0.001383 673.04083 696.83911
687.0 0.001456 672.58752 698.19727
649.0 0.001541 672.13354 699.36047
684.0 0.001462 671.67938 700.25195
663.0 0.001508 671.22443 700.65448
666.0 0.001502 670.76910 700.54382
703.0 0.001422 670.31305 699.91394
713.0 0.001403 669.85693 698.86670
676.0 0.001479 669.40009 697.46954
676.0 0.001479 668.94281 695.89691
705.0 0.001418 668.48499 694.35095
697.0 0.001435 668.02661 692.80273
718.0 0.001393 667.56824 691.40546
713.0 0.001403 667.10913 690.21832
692.0 0.001445 666.64978 689.28760
683.0 0.001464 666.18964 688.27374
661.0 0.001513 665.72955 687.94678
682.0 0.001466 665.26886 687.95831
665.0 0.001504 664.80798 688.31335
685.0 0.001460 664.34625 689.04279
682.0 0.001466 663.88470 690.17596
682.0 0.001466 663.42249 691.75482
734.0 0.001362 662.96014 693.83081
714.0 0.001401 662.49707 696.48291
674.0 0.001484 662.03418 699.75397
668.0 0.001497 661.57068 703.74176
735.0 0.001361 661.10706 708.52350
736.0 0.001359 660.64270 714.17883
735.0 0.001361 660.17859 720.76025
732.0 0.001366 659.71399 728.31274
733.0 0.001364 659.24902 736.88519
742.0 0.001348 658.78400 746.32977
758.0 0.001319 658.31848 756.60437
772.0 0.001295 657.85303 767.52789
843.0 0.001186 657.38715 778.87372
787.0 0.001271 656.92120 790.30127
822.0 0.001217 656.45477 801.38330
859.0 0.001164 655.98853 811.55005
872.0 0.001147 655.52185 819.89966
842.0 0.001188 655.05518 826.25104
811.0 0.001233 654.58807 829.74683
825.0 0.001212 654.12109 830.04370
836.0 0.001196 653.65387 827.18732
835.0 0.001198 653.18658 821.61865
850.0 0.001176 652.71887 814.06116
839.0 0.001192 652.25146 805.37830
770.0 0.001299 651.78375 796.38458
798.0 0.001253 651.31592 787.88379
765.0 0.001307 650.84808 780.28021
767.0 0.001304 650.37994 774.08032
786.0 0.001272 649.91223 769.59503
769.0 0.001300 649.44415 767.00964
729.0 0.001372 648.97607 766.41931
770.0 0.001299 648.50781 767.81903
793.0 0.001261 648.04004 771.14990
834.0 0.001199 647.57178 776.12262
774.0 0.001292 647.10376 782.47070
807.0 0.001239 646.63544 789.78418
825.0 0.001212 646.16766 797.54138
767.0 0.001304 645.69958 805.17590
817.0 0.001224 645.23169 812.09076
879.0 0.001138 644.76361 817.73749
836.0 0.001196 644.29602 821.64215
823.0 0.001215 643.82819 823.44592
841.0 0.001189 643.36060 822.98560
808.0 0.001238 642.89294 820.33203
810.0 0.001235 642.42535 815.73376
831.0 0.001203 641.95837 809.80365
793.0 0.001261 641.49103 803.03131
858.0 0.001166 641.02405 795.77234
839.0 0.001192 640.55707 788.33563
797.0 0.001255 640.09058 780.83014
786.0 0.001272 639.62402 773.21484
777.0 0.001287 639.15771 765.43237
769.0 0.001300 638.69141 757.48309
773.0 0.001294 638.22571 749.51941
785.0 0.001274 637.75995 741.77972
713.0 0.001403 637.29449 734.55762
736.0 0.001359 636.82916 728.10052
725.0 0.001379 636.36444 722.60034
731.0 0.001368 635.89960 718.15521
757.0 0.001321 635.43536 714.80365
736.0 0.001359 634.97089 712.53479
728.0 0.001374 634.50726 711.24622
723.0 0.001383 634.04370 710.85419
722.0 0.001385 633.58032 711.22595
685.0 0.001460 633.11755 712.24390
718.0 0.001393 632.65479 713.79584
780.0 0.001282 632.19269 715.78149
788.0 0.001269 631.73077 718.11462
787.0 0.001271 631.26935 720.69696
831.0 0.001203 630.80804 723.36383
758.0 0.001319 630.34747 726.07373
812.0 0.001232 629.88702 728.61597
829.0 0.001206 629.42712 730.81866
794.0 0.001259 628.96747 732.53027
858.0 0.001166 628.50842 733.63953
836.0 0.001196 628.04968 734.10614
830.0 0.001205 627.59155 733.96313
773.0 0.001294 627.13361 733.31384
771.0 0.001297 626.67639 732.30908
763.0 0.001311 626.21942 731.11536
749.0 0.001335 625.76318 729.89178
747.0 0.001339 625.30725 728.76953
712.0 0.001404 624.85162 727.85358
736.0 0.001359 624.39685 727.23322
705.0 0.001418 623.94250 726.99414
717.0 0.001395 623.48871 727.22186
719.0 0.001391 623.03522 727.98907
668.0 0.001497 622.58270 729.33533
658.0 0.001520 622.13037 731.26080
673.0 0.001486 621.67877 733.71344
645.0 0.001550 621.22748 736.59259
652.0 0.001534 620.77716 739.73529
695.0 0.001439 620.32721 742.92493
695.0 0.001439 619.87793 745.87653
650.0 0.001538 619.42902 748.25629
670.0 0.001493 618.98114 749.80884
690.0 0.001449 618.53351 749.99139
706.0 0.001416 618.08667 748.68011
670.0 0.001493 617.64026 745.79974
630.0 0.001587 617.19489 741.46411
684.0 0.001462 616.74988 735.93188
664.0 0.001506 616.30548 729.56213
645.0 0.001550 615.86188 722.73883
687.0 0.001456 615.41876 715.80731
694.0 0.001441 614.97675 709.07141
664.0 0.001506 614.53503 702.74976
651.0 0.001536 614.09424 697.01465
621.0 0.001610 613.65381 691.97955
625.0 0.001600 613.21460 687.72858
664.0 0.001506 612.77582 684.30518
643.0 0.001555 612.33777 681.74371
665.0 0.001504 611.90033 680.06647
625.0 0.001600 611.46399 679.29376
631.0 0.001585 611.02802 679.43896
648.0 0.001543 610.59302 680.50067
672.0 0.001488 610.15851 682.46313
663.0 0.001508 609.72522 685.27734
655.0 0.001527 609.29236 688.86835
724.0 0.001381 608.86029 693.12201
664.0 0.001506 608.42908 697.87085
639.0 0.001565 607.99841 702.91968
642.0 0.001558 607.56897 708.03101
697.0 0.001435 607.14001 712.97205
681.0 0.001468 606.71216 717.52069
648.0 0.001543 606.28461 721.50513
677.0 0.001477 605.85840 724.78986
617.0 0.001621 605.43274 727.27588
651.0 0.001536 605.00806 728.86334
674.0 0.001484 604.58380 729.45990
622.0 0.001608 604.16095 729.00580
668.0 0.001497 603.73859 727.51477
706.0 0.001416 603.31726 725.10535
653.0 0.001531 602.89648 721.99548
693.0 0.001443 602.47687 718.47339
688.0 0.001453 602.05792 714.82648
663.0 0.001508 601.64008 711.30518
661.0 0.001513 601.22272 708.07184
691.0 0.001447 600.80658 705.19537
686.0 0.001458 600.39105 702.63190
698.0 0.001433 599.97650 700.24945
656.0 0.001524 599.56299 697.84515
684.0 0.001462 599.15002 695.19531
635.0 0.001575 598.73828 692.12592
703.0 0.001422 598.32733 688.59760
692.0 0.001445 597.91724 684.66138
729.0 0.001372 597.50800 680.52832
693.0 0.001443 597.09979 676.44617
666.0 0.001502 596.69244 672.63837
679.0 0.001473 596.28607 669.29028
671.0 0.001490 595.88025 666.51990
620.0 0.001613 595.47583 664.39124
661.0 0.001513 595.07208 662.90002
642.0 0.001558 594.66931 661.99152
675.0 0.001481 594.26733 661.56073
673.0 0.001486 593.86652 661.46735
653.0 0.001531 593.46643 661.55731
649.0 0.001541 593.06738 661.68555
636.0 0.001572 592.66919 661.73547
613.0 0.001631 592.27179 661.62964
625.0 0.001600 591.87573 661.32349
655.0 0.001527 591.48022 660.79163
671.0 0.001490 591.08588 660.01508
659.0 0.001517 590.69220 658.96637
672.0 0.001488 590.29987 657.61908
669.0 0.001495 589.90826 655.95099
667.0 0.001499 589.51764 653.96643
630.0 0.001587 589.12781 651.69934
622.0 0.001608 588.73920 649.21857
676.0 0.001479 588.35132 646.60504
634.0 0.001577 587.96454 643.94373
622.0 0.001608 587.57843 641.29950
589.0 0.001698 587.19366 638.71490
595.0 0.001681 586.80957 636.19427
599.0 0.001669 586.42657 633.73401
646.0 0.001548 586.04431 631.28247
625.0 0.001600 585.66339 628.83582
630.0 0.001587 585.28308 626.39789
619.0 0.001616 584.90381 624.01117
566.0 0.001767 584.52551 621.74139
611.0 0.001637 584.14801 619.66412
583.0 0.001715 583.77185 617.85730
560.0 0.001786 583.39636 616.38660
615.0 0.001626 583.02191 615.31342
550.0 0.001818 582.64819 614.68665
599.0 0.001669 582.27582 614.54993
639.0 0.001565 581.90411 614.94324
619.0 0.001616 581.53357 615.88403
636.0 0.001572 581.16357 617.39691
628.0 0.001592 580.79498 619.48956
606.0 0.001650 580.42719 622.16187
643.0 0.001555 580.06036 625.37518
655.0 0.001527 579.69427 629.14185
612.0 0.001634 579.32947 633.38019
641.0 0.001560 578.96533 638.01239
676.0 0.001479 578.60236 642.91974
627.0 0.001595 578.24017 647.94312
686.0 0.001458 577.87885 652.87701
680.0 0.001471 577.51868 657.46289
680.0 0.001471 577.15924 661.42004
684.0 0.001462 576.80096 664.45325
681.0 0.001468 576.44342 666.31378
664.0 0.001506 576.08698 666.84125
682.0 0.001466 575.73138 666.01758
619.0 0.001616 575.37689 663.92218
643.0 0.001555 575.02301 660.75940
631.0 0.001585 574.67035 656.77460
669.0 0.001495 574.31842 652.19818
665.0 0.001504 573.96759 647.23737
596.0 0.001678 573.61743 642.05206
594.0 0.001684 573.26849 636.78064
632.0 0.001582 572.92035 631.52271
632.0 0.001582 572.57312 626.37506
620.0 0.001613 572.22662 621.49280
602.0 0.001661 571.88135 616.78900
560.0 0.001786 571.53687 612.38641
589.0 0.001698 571.19318 608.31995
576.0 0.001736 570.85059 604.60547
563.0 0.001776 570.50861 601.24091
574.0 0.001742 570.16791 598.21985
622.0 0.001608 569.82794 595.51825
567.0 0.001764 569.48883 593.11511
566.0 0.001767 569.15057 590.98120
609.0 0.001642 568.81348 589.09326
562.0 0.001779 568.47699 587.42291
569.0 0.001757 568.14154 585.94867
552.0 0.001812 567.80682 584.64832
556.0 0.001799 567.47321 583.55225
540.0 0.001852 567.14032 582.55121
569.0 0.001757 566.80835 581.67841
554.0 0.001805 566.47717 580.92401
590.0 0.001695 566.14709 580.28064
572.0 0.001748 565.81769 579.74152
567.0 0.001764 565.48920 579.30298
558.0 0.001792 565.16156 578.96356
577.0 0.001733 564.83466 578.72119
566.0 0.001767 564.50891 578.57764
537.0 0.001862 564.18384 578.53479
526.0 0.001901 563.85962 578.59406
571.0 0.001751 563.53619 578.76038
574.0 0.001742 563.21387 579.03534
555.0 0.001802 562.89221 579.42310
554.0 0.001805 562.57141 579.87842
596.0 0.001678 562.25134 580.46625
548.0 0.001825 561.93237 581.19659
568.0 0.001761 561.61407 582.03638
586.0 0.001706 561.29657 582.97644
569.0 0.001757 560.97986 584.00397
556.0 0.001799 560.66425 585.09821
577.0 0.001733 560.34924 586.23352
572.0 0.001748 560.03516 587.43921
599.0 0.001669 559.72162 588.54034
559.0 0.001789 559.40930 589.55103
567.0 0.001764 559.09747 590.41907
617.0 0.001621 558.78656 591.09314
580.0 0.001724 558.47656 591.52948
583.0 0.001715 558.16718 591.70459
582.0 0.001718 557.85876 591.58905
583.0 0.001715 557.55103 591.18878
513.0 0.001949 557.24420 590.51917
612.0 0.001634 556.93793 589.60883
588.0 0.001701 556.63275 588.49628
550.0 0.001818 556.32819 587.22510
574.0 0.001742 556.02454 585.84338
622.0 0.001608 555.72144 584.39709
604.0 0.001656 555.41931 582.93365
550.0 0.001818 555.11792 581.56165
560.0 0.001786 554.81732 580.18054
558.0 0.001792 554.51733 578.88873
532.0 0.001880 554.21832 577.71503
615.0 0.001626 553.91992 576.68042
560.0 0.001786 553.62244 575.80664
589.0 0.001698 553.32562 575.11145
602.0 0.001661 553.02942 574.61316
577.0 0.001733 552.73419 574.32843
551.0 0.001815 552.43964 574.27319
566.0 0.001767 552.14587 574.46283
523.0 0.001912 551.85266 574.91248
565.0 0.001770 551.56049 575.63452
601.0 0.001664 551.26886 576.64160
548.0 0.001825 550.97803 577.94275
577.0 0.001733 550.68787 579.54535
569.0 0.001757 550.39862 581.44910
579.0 0.001727 550.10992 583.65656
577.0 0.001733 549.82196 586.14691
581.0 0.001721 549.53467 588.90558
582.0 0.001718 549.24835 591.89368
624.0 0.001603 548.96252 595.07013
564.0 0.001773 548.67749 598.35376
575.0 0.001739 548.39313 601.65405
584.0 0.001712 548.10968 604.84747
594.0 0.001684 547.82672 607.79352
612.0 0.001634 547.54449 610.32825
622.0 0.001608 547.26300 612.36383
594.0 0.001684 546.98212 613.59723
659.0 0.001517 546.70215 613.99518
599.0 0.001669 546.42267 613.50604
641.0 0.001560 546.14410 612.14667
555.0 0.001802 545.86591 609.98370
591.0 0.001692 545.58881 607.14526
583.0 0.001715 545.31213 603.77667
625.0 0.001600 545.03619 599.90381
571.0 0.001751 544.76086 595.94269
585.0 0.001709 544.48645 591.89691
574.0 0.001742 544.21246 588.01691
518.0 0.001931 543.93933 584.10455
616.0 0.001623 543.66663 580.36481
611.0 0.001637 543.39496 576.84930
569.0 0.001757 543.12372 573.58191
603.0 0.001658 542.85321 570.58221
550.0 0.001818 542.58337 567.85419
581.0 0.001721 542.31409 565.39520
560.0 0.001786 542.04565 563.19806
592.0 0.001689 541.77777 561.24438
533.0 0.001876 541.51062 559.51666
534.0 0.001873 541.24396 557.99060
531.0 0.001883 540.97821 556.64374
561.0 0.001783 540.71289 555.33295
577.0 0.001733 540.44836 554.26068
476.0 0.002101 540.18427 553.28497
567.0 0.001764 539.92114 552.38348
563.0 0.001776 539.65839 551.55737
553.0 0.001808 539.39655 550.74927
526.0 0.001901 539.13501 550.03577
559.0 0.001789 538.87439 549.26599
536.0 0.001866 538.61426 548.54590
530.0 0.001887 538.35492 547.85468
548.0 0.001825 538.09595 547.19299
497.0 0.002012 537.83783 546.84656
527.0 0.001898 537.58026 546.25250
523.0 0.001912 537.32330 545.68982
540.0 0.001852 537.06708 544.94415
508.0 0.001969 536.81128 544.44672
500.0 0.002000 536.55627 543.98016
546.0 0.001832 536.30188 543.54242
522.0 0.001916 536.04803 543.13263
527.0 0.001898 535.79480 542.74896
542.0 0.001845 535.54224 542.39026
530.0 0.001887 535.29028 542.05438
530.0 0.001887 535.03894 541.74060
575.0 0.001739 534.78802 541.72119
542.0 0.001845 534.53796 541.45160
549.0 0.001821 534.28845 541.19977
510.0 0.001961 534.03943 540.96582
540.0 0.001852 533.79102 540.74854
534.0 0.001873 533.54340 540.54810
523.0 0.001912 533.29620 540.36426
544.0 0.001838 533.04968 540.19788
533.0 0.001876 532.80365 540.04932
560.0 0.001786 532.55817 539.91919
545.0 0.001835 532.31354 539.80969
518.0 0.001931 532.06927 539.72241
500.0 0.002000 531.82562 539.65973
517.0 0.001934 531.58252 539.62946
494.0 0.002024 531.34015 539.62689
521.0 0.001919 531.09821 539.66168
526.0 0.001901 530.85693 539.74030
518.0 0.001931 530.61609 539.89612
529.0 0.001890 530.37604 540.08734
516.0 0.001938 530.13641 540.47314
511.0 0.001957 529.89740 540.82373
549.0 0.001821 529.65881 541.27527
528.0 0.001894 529.42108 541.84479
547.0 0.001828 529.18372 542.55292
545.0 0.001835 528.94690 543.41998
524.0 0.001908 528.71057 544.46924
540.0 0.001852 528.47504 545.63501
503.0 0.001988 528.23987 547.11713
551.0 0.001815 528.00525 548.84863
581.0 0.001721 527.77124 550.84735
586.0 0.001706 527.53760 553.12897
561.0 0.001783 527.30481 555.69800
512.0 0.001953 527.07233 558.55688
566.0 0.001767 526.84052 561.69116
587.0 0.001704 526.60907 565.07813
573.0 0.001745 526.37836 568.68921
567.0 0.001764 526.14801 572.43518
573.0 0.001745 525.91833 576.25537
569.0 0.001757 525.68890 580.06152
607.0 0.001647 525.46033 583.74634
575.0 0.001739 525.23212 587.20782
546.0 0.001832 525.00446 590.33954
616.0 0.001623 524.77716 593.05310
606.0 0.001650 524.55060 595.27441
578.0 0.001730 524.32440 596.95544
588.0 0.001701 524.09882 598.05713
562.0 0.001779 523.87360 598.55280
612.0 0.001634 523.64886 598.46411
627.0 0.001595 523.42474 597.73444
612.0 0.001634 523.20099 596.44659
557.0 0.001795 522.97784 594.81451
610.0 0.001639 522.75507 592.73462
563.0 0.001776 522.53290 590.48322
540.0 0.001852 522.31110 588.23645
593.0 0.001686 522.08990 586.09955
598.0 0.001672 521.86896 584.20520
557.0 0.001795 521.64868 582.63770
597.0 0.001675 521.42877 581.44110
519.0 0.001927 521.20941 580.62903
548.0 0.001825 520.99036 580.18628
533.0 0.001876 520.77191 580.05688
571.0 0.001751 520.55383 580.16870
473.0 0.002114 520.33624 580.42542
549.0 0.001821 520.11902 580.72272
507.0 0.001972 519.90222 580.96515
544.0 0.001838 519.68597 581.08722
549.0 0.001821 519.47009 581.07141
546.0 0.001832 519.25464 580.95081
533.0 0.001876 519.03955 580.79938
560.0 0.001786 518.82507 580.71161
555.0 0.001802 518.61084 580.77820
583.0 0.001715 518.39703 581.06659
611.0 0.001637 518.18359 581.61047
638.0 0.001567 517.97070 582.40137
606.0 0.001650 517.75806 583.39038
600.0 0.001667 517.54596 584.48413
587.0 0.001704 517.33405 585.55243
637.0 0.001570 517.12274 586.43469
647.0 0.001546 516.91174 586.95862
587.0 0.001704 516.70111 586.97943
608.0 0.001645 516.49072 586.41089
633.0 0.001580 516.28094 585.25964
629.0 0.001590 516.07135 583.62329
612.0 0.001634 515.86212 581.67334
612.0 0.001634 515.65332 579.61884
617.0 0.001621 515.44476 577.66467
577.0 0.001733 515.23676 576.00153
597.0 0.001675 515.02893 574.75574
581.0 0.001721 514.82147 574.03290
567.0 0.001764 514.61426 573.88654
558.0 0.001792 514.40759 574.32623
610.0 0.001639 514.20105 575.32172
583.0 0.001715 513.99500 576.80444
605.0 0.001653 513.78900 578.67322
625.0 0.001600 513.58362 580.80231
556.0 0.001799 513.37836 582.95892
586.0 0.001706 513.17346 585.23071
578.0 0.001730 512.96875 587.45898
564.0 0.001773 512.76447 589.67133
597.0 0.001675 512.56042 592.00848
626.0 0.001597 512.35669 594.70007
602.0 0.001661 512.15314 598.03723
592.0 0.001689 511.94977 602.32434
618.0 0.001618 511.74692 607.83588
605.0 0.001653 511.54416 614.80914
616.0 0.001623 511.34177 623.39948
627.0 0.001595 511.13950 633.69153
658.0 0.001520 510.93756 645.64764
637.0 0.001570 510.73587 659.15356
645.0 0.001550 510.53439 673.95831
701.0 0.001427 510.33304 689.66113
702.0 0.001425 510.13208 705.73523
701.0 0.001427 509.93124 721.57385
713.0 0.001403 509.73071 736.47375
793.0 0.001261 509.53024 749.79010
811.0 0.001233 509.33011 760.98651
811.0 0.001233 509.13013 769.77527
810.0 0.001235 508.93039 776.05621
790.0 0.001266 508.73071 779.88031
778.0 0.001285 508.53140 781.30988
837.0 0.001195 508.33209 780.37524
757.0 0.001321 508.13303 777.04639
744.0 0.001344 507.93420 771.30280
789.0 0.001267 507.73538 763.21057
764.0 0.001309 507.53690 753.01575
715.0 0.001399 507.33850 741.10504
729.0 0.001372 507.14026 727.99506
695.0 0.001439 506.94211 714.20258
719.0 0.001391 506.74426 700.22174
633.0 0.001580 506.54639 686.41644
652.0 0.001534 506.34872 673.08752
656.0 0.001524 506.15109 660.43353
622.0 0.001608 505.95377 648.62543
553.0 0.001808 505.75641 637.75555
611.0 0.001637 505.55923 627.91223
621.0 0.001610 505.36209 619.11108
596.0 0.001678 505.16522 611.37006
639.0 0.001565 504.96829 604.64337
627.0 0.001595 504.77151 598.87775
579.0 0.001727 504.57483 593.99585
569.0 0.001757 504.37814 589.92230
609.0 0.001642 504.18170 586.59290
582.0 0.001718 503.98529 583.87933
559.0 0.001789 503.78894 581.86963
623.0 0.001605 503.59259 580.45361
559.0 0.001789 503.39648 579.59204
618.0 0.001618 503.20029 579.23956
622.0 0.001608 503.00424 579.35150
604.0 0.001656 502.80820 579.88342
616.0 0.001623 502.61234 580.80267
605.0 0.001653 502.41638 582.10498
613.0 0.001631 502.22052 583.82635
649.0 0.001541 502.02463 586.05359
607.0 0.001647 501.82895 588.90613
615.0 0.001626 501.63324 592.52057
625.0 0.001600 501.43756 596.99945
648.0 0.001543 501.24182 602.27094
586.0 0.001706 501.04630 608.52539
601.0 0.001664 500.85062 615.50378
643.0 0.001555 500.65509 622.94690
574.0 0.001742 500.45959 630.48840
643.0 0.001555 500.26392 637.67377
627.0 0.001595 500.06851 643.95544
652.0 0.001534 499.87296 648.77252
695.0 0.001439 499.67755 651.58319
604.0 0.001656 499.48199 651.97913
671.0 0.001490 499.28665 649.76440
613.0 0.001631 499.09119 645.01068
613.0 0.001631 498.89578 638.03650
580.0 0.001724 498.70023 629.31799
629.0 0.001590 498.50497 619.42029
561.0 0.001783 498.30954 608.87982
563.0 0.001776 498.11420 598.20630
560.0 0.001786 497.91870 587.82111
597.0 0.001675 497.72333 578.08832
553.0 0.001808 497.52789 569.25861
604.0 0.001656 497.33261 561.53687
556.0 0.001799 497.13715 554.99164
490.0 0.002041 496.94165 549.67487
538.0 0.001859 496.74631 545.57324
536.0 0.001866 496.55087 542.62201
544.0 0.001838 496.35559 540.73865
530.0 0.001887 496.16010 539.82141
521.0 0.001919 495.96478 539.76550
502.0 0.001992 495.76935 540.46509
528.0 0.001894 495.57397 541.81860
528.0 0.001894 495.37857 543.75439
559.0 0.001789 495.18326 546.12720
525.0 0.001905 494.98788 548.86847
550.0 0.001818 494.79251 551.87518
561.0 0.001783 494.59708 555.03864
515.0 0.001942 494.40179 558.23029
536.0 0.001866 494.20654 561.30859
534.0 0.001873 494.01123 564.11523
536.0 0.001866 493.81583 566.48877
581.0 0.001721 493.62067 568.27081
525.0 0.001905 493.42535 569.33679
494.0 0.002024 493.23007 569.60559
560.0 0.001786 493.03497 569.06024
532.0 0.001880 492.83972 567.73749
533.0 0.001876 492.64468 565.73016
502.0 0.001992 492.44958 563.15350
539.0 0.001855 492.25452 560.13684
505.0 0.001980 492.05951 556.79779
523.0 0.001912 491.86465 553.24677
522.0 0.001916 491.66971 549.58893
485.0 0.002062 491.47485 545.86237
544.0 0.001838 491.28003 542.14801
532.0 0.001880 491.08539 538.50659
499.0 0.002004 490.89078 535.00891
495.0 0.002020 490.69626 531.64282
501.0 0.001996 490.50168 528.46582
514.0 0.001946 490.30740 525.50598
507.0 0.001972 490.11307 522.77478
541.0 0.001848 489.91895 520.28247
523.0 0.001912 489.72479 518.02802
474.0 0.002110 489.53073 516.00787
493.0 0.002028 489.33698 514.35217
484.0 0.002066 489.14319 512.77576
500.0 0.002000 488.94958 511.40195
502.0 0.001992 488.75610 510.21686
478.0 0.002092 488.56287 509.22452
495.0 0.002020 488.36963 508.38068
471.0 0.002123 488.17670 507.69070
487.0 0.002053 487.98370 507.14444
527.0 0.001898 487.79111 506.73596
474.0 0.002110 487.59863 506.48428
517.0 0.001934 487.40634 506.32852
488.0 0.002049 487.21411 506.29337
487.0 0.002053 487.02228 506.37665
510.0 0.001961 486.83057 506.57635
496.0 0.002016 486.63919 506.89197
508.0 0.001969 486.44778 507.32663
522.0 0.001916 486.25687 507.87433
527.0 0.001898 486.06604 508.53928
487.0 0.002053 485.87552 509.32236
481.0 0.002079 485.68530 510.22360
523.0 0.001912 485.49530 511.24417
491.0 0.002037 485.30566 512.38318
531.0 0.001883 485.11624 513.64252
519.0 0.001927 484.92715 515.03308
534.0 0.001873 484.73831 516.59808
541.0 0.001848 484.54996 518.24420
531.0 0.001883 484.36179 520.07336
485.0 0.002062 484.17404 522.02960
511.0 0.001957 483.98654 524.16913
522.0 0.001916 483.79953 526.50708
477.0 0.002096 483.61285 529.06427
513.0 0.001949 483.42657 531.85046
508.0 0.001969 483.24057 534.87622
564.0 0.001773 483.05511 538.14276
547.0 0.001828 482.87003 541.63171
489.0 0.002045 482.68536 545.32257
563.0 0.001776 482.50116 549.17957
581.0 0.001721 482.31729 553.14703
585.0 0.001709 482.13409 557.14746
572.0 0.001748 481.95120 561.09802
606.0 0.001650 481.76883 564.89496
637.0 0.001570 481.58694 568.43475
602.0 0.001661 481.40570 571.60620
599.0 0.001669 481.22485 574.31506
651.0 0.001536 481.04453 576.47296
632.0 0.001582 480.86469 578.03619
653.0 0.001531 480.68558 578.90729
636.0 0.001572 480.50696 579.09210
592.0 0.001689 480.32892 578.59760
603.0 0.001658 480.15137 577.45441
587.0 0.001704 479.97458 575.70935
535.0 0.001869 479.79831 573.41107
518.0 0.001931 479.62268 570.61182
495.0 0.002020 479.44769 567.36011
517.0 0.001934 479.27344 563.71735
469.0 0.002132 479.09976 559.76953
520.0 0.001923 478.92670 555.55334
510.0 0.001961 478.75439 551.18512
531.0 0.001883 478.58279 546.75696
491.0 0.002037 478.41199 542.36969
514.0 0.001946 478.24176 538.09045
525.0 0.001905 478.07233 533.99036
490.0 0.002041 477.90356 530.11304
474.0 0.002110 477.73575 526.49506
529.0 0.001890 477.56863 523.14771
495.0 0.002020 477.40225 520.07813
538.0 0.001859 477.23660 517.27997
477.0 0.002096 477.07193 514.74249
534.0 0.001873 476.90793 512.44342
487.0 0.002053 476.74493 510.36145
507.0 0.001972 476.58255 508.46942
495.0 0.002020 476.42123 506.74496
493.0 0.002028 476.26065 505.16238
510.0 0.001961 476.10104 503.70319
484.0 0.002066 475.94223 502.35049
552.0 0.001812 475.78430 501.09222
504.0 0.001984 475.62741 499.91858
552.0 0.001812 475.47134 498.81940
475.0 0.002105 475.31628 497.78778
503.0 0.001988 475.16205 496.81671
513.0 0.001949 475.00894 495.90271
513.0 0.001949 474.85669 495.04156
521.0 0.001919 474.70547 494.24646
511.0 0.001957 474.55511 493.49060
517.0 0.001934 474.40588 492.79321
489.0 0.002045 474.25766 492.15186
461.0 0.002169 474.11044 491.57349
480.0 0.002083 473.96414 491.06326
521.0 0.001919 473.81900 490.62811
503.0 0.001988 473.67484 490.27466
477.0 0.002096 473.53177 490.01318
469.0 0.002132 473.38977 489.85547
462.0 0.002165 473.24887 489.81601
479.0 0.002088 473.10895 489.91388
483.0 0.002070 472.97018 490.19131
491.0 0.002037 472.83252 490.63651
530.0 0.001887 472.69595 491.30197
490.0 0.002041 472.56055 492.22147
503.0 0.001988 472.42624 493.44318
502.0 0.001992 472.29303 494.99313
473.0 0.002114 472.16089 496.92075
491.0 0.002037 472.03006 499.26044
475.0 0.002105 471.90033 502.04593
497.0 0.002012 471.77170 505.29507
478.0 0.002092 471.64420 509.01495
541.0 0.001848 471.51797 513.23187
494.0 0.002024 471.39285 517.81799
543.0 0.001842 471.26892 522.74725
535.0 0.001869 471.14621 527.92200
509.0 0.001965 471.02472 533.19794
554.0 0.001805 470.90433 538.40704
542.0 0.001845 470.78519 543.33344
575.0 0.001739 470.66721 547.75018
612.0 0.001634 470.55048 551.38031
595.0 0.001681 470.43500 553.99054
577.0 0.001733 470.32065 555.39325
578.0 0.001730 470.20755 555.47589
611.0 0.001637 470.09561 554.22748
606.0 0.001650 469.98499 551.73633
561.0 0.001783 469.87558 548.16400
549.0 0.001821 469.76736 543.72650
507.0 0.001972 469.66034 538.65881
515.0 0.001942 469.55460 533.20703
505.0 0.001980 469.45001 527.58801
494.0 0.002024 469.34677 522.00653
537.0 0.001862 469.24463 516.62518
476.0 0.002101 469.14383 511.58676
503.0 0.001988 469.04413 506.98572
469.0 0.002132 468.94574 502.89569
508.0 0.001969 468.84854 499.35376
504.0 0.001984 468.75262 496.37875
501.0 0.001996 468.65784 493.95969
497.0 0.002012 468.56424 492.07004
523.0 0.001912 468.47195 490.67365
496.0 0.002016 468.38083 489.72211
505.0 0.001980 468.29095 489.16534
511.0 0.001957 468.20218 488.94876
486.0 0.002058 468.11469 489.01956
532.0 0.001880 468.02829 489.32605
521.0 0.001919 467.94318 489.81735
528.0 0.001894 467.85925 490.44644
477.0 0.002096 467.77646 491.16702
492.0 0.002033 467.69479 491.93845
524.0 0.001908 467.61435 492.73679
515.0 0.001942 467.53500 493.51114
537.0 0.001862 467.45688 494.25784
455.0 0.002198 467.37985 494.97345
488.0 0.002049 467.30399 495.66351
515.0 0.001942 467.22919 496.34134
501.0 0.001996 467.15552 497.01926
493.0 0.002028 467.08292 497.70682
490.0 0.002041 467.01147 498.40442
512.0 0.001953 466.94110 499.10043
520.0 0.001923 466.87177 499.77496
539.0 0.001855 466.80353 500.38663
525.0 0.001905 466.73627 500.89200
533.0 0.001876 466.67010 501.26178
505.0 0.001980 466.60501 501.40015
473.0 0.002114 466.54089 501.28769
552.0 0.001812 466.47772 500.90271
534.0 0.001873 466.41559 500.24710
530.0 0.001887 466.35440 499.34348
537.0 0.001862 466.29419 498.23444
476.0 0.002101 466.23495 496.97070
532.0 0.001880 466.17664 495.60889
552.0 0.001812 466.11920 494.19995
529.0 0.001890 466.06265 492.79120
531.0 0.001883 466.00699 491.42078
477.0 0.002096 465.95224 490.12167
493.0 0.002028 465.89835 488.91614
515.0 0.001942 465.84525 487.82266
495.0 0.002020 465.79297 486.85388
476.0 0.002101 465.74146 486.01782
496.0 0.002016 465.69080 485.32062
527.0 0.001898 465.64093 484.76288
500.0 0.002000 465.59174 484.34402
496.0 0.002016 465.54324 484.05981
521.0 0.001919 465.49554 483.90448
505.0 0.001980 465.44846 483.86902
491.0 0.002037 465.40213 483.94501
520.0 0.001923 465.35635 484.12012
506.0 0.001976 465.31128 484.38287
520.0 0.001923 465.26675 484.72052
522.0 0.001916 465.22281 485.11902
511.0 0.001957 465.17950 485.56348
532.0 0.001880 465.13672 486.03125
489.0 0.002045 465.09442 486.50171
527.0 0.001898 465.05264 486.94766
481.0 0.002079 465.01129 487.34109
455.0 0.002198 464.97049 487.65198
502.0 0.001992 464.93008 487.85199
492.0 0.002033 464.89008 487.91916
487.0 0.002053 464.85043 487.83978
509.0 0.001965 464.81119 487.61093
520.0 0.001923 464.77228 487.24161
534.0 0.001873 464.73367 486.74954
471.0 0.002123 464.69547 486.16107
491.0 0.002037 464.65738 485.50363
493.0 0.002028 464.61963 484.80627
458.0 0.002183 464.58203 484.09402
473.0 0.002114 464.54471 483.38870
490.0 0.002041 464.50751 482.70633
493.0 0.002028 464.47049 482.06033
511.0 0.001957 464.43356 481.45746
457.0 0.002188 464.39673 480.90311
488.0 0.002049 464.35995 480.39908
498.0 0.002008 464.32327 479.94644
467.0 0.002141 464.28662 479.54462
462.0 0.002165 464.24991 479.19424
499.0 0.002004 464.21323 478.89807
469.0 0.002132 464.17645 478.65952
467.0 0.002141 464.13959 478.48505
494.0 0.002024 464.10269 478.38193
479.0 0.002088 464.06561 478.35837
471.0 0.002123 464.02835 478.42148
475.0 0.002105 463.99094 478.57785
498.0 0.002008 463.95331 478.83124
461.0 0.002169 463.91544 479.20074
460.0 0.002174 463.87735 479.64767
478.0 0.002092 463.83899 480.18332
446.0 0.002242 463.80023 480.79880
481.0 0.002079 463.76120 481.47943
439.0 0.002278 463.72180 482.20746
466.0 0.002146 463.68207 482.95923
420.0 0.002381 463.64185 483.70953
472.0 0.002119 463.60120 484.42828
483.0 0.002070 463.56009 485.08441
472.0 0.002119 463.51849 485.64944
476.0 0.002101 463.47644 486.09750
436.0 0.002294 463.43384 486.41440
432.0 0.002315 463.39066 486.59491
448.0 0.002232 463.34683 486.64490
486.0 0.002058 463.30249 486.57739
457.0 0.002188 463.25748 486.40094
493.0 0.002028 463.21185 486.15787
510.0 0.001961 463.16550 485.85846
489.0 0.002045 463.11847 485.52524
479.0 0.002088 463.07071 485.17789
449.0 0.002227 463.02219 484.83679
524.0 0.001908 462.97293 484.52036
494.0 0.002024 462.92288 484.24509
493.0 0.002028 462.87198 484.02295
471.0 0.002123 462.82025 483.86487
460.0 0.002174 462.76764 483.77628
474.0 0.002110 462.71414 483.75912
513.0 0.001949 462.65988 483.81165
455.0 0.002198 462.60458 483.92749
447.0 0.002237 462.54834 484.09775
504.0 0.001984 462.49115 484.30963
478.0 0.002092 462.43301 484.54709
515.0 0.001942 462.37384 484.79346
477.0 0.002096 462.31375 485.03058
430.0 0.002326 462.25250 485.24274
466.0 0.002146 462.19028 485.41724
497.0 0.002012 462.12692 485.54825
462.0 0.002165 462.06250 485.61368
508.0 0.001969 461.99701 485.66806
473.0 0.002114 461.93042 485.70316
482.0 0.002075 461.86264 485.73865
489.0 0.002045 461.79370 485.79623
478.0 0.002092 461.72357 485.89774
521.0 0.001919 461.65234 486.06335
455.0 0.002198 461.57996 486.31070
506.0 0.001976 461.50626 486.65271
527.0 0.001898 461.43140 487.09866
497.0 0.002012 461.35522 487.65427
488.0 0.002049 461.27789 488.31931
506.0 0.001976 461.19931 489.09048
477.0 0.002096 461.11945 489.95914
512.0 0.001953 461.03827 490.90979
517.0 0.001934 460.95584 491.92258
487.0 0.002053 460.87210 492.97943
487.0 0.002053 460.78708 494.04022
495.0 0.002020 460.70074 495.07748
456.0 0.002193 460.61310 496.05600
519.0 0.001927 460.52408 496.94354
529.0 0.001890 460.43378 497.71198
486.0 0.002058 460.34207 498.34619
539.0 0.001855 460.24918 498.83148
494.0 0.002024 460.15479 499.18161
483.0 0.002070 460.05911 499.40280
473.0 0.002114 459.96204 499.52441
518.0 0.001931 459.86359 499.57507
468.0 0.002137 459.76385 499.58459
493.0 0.002028 459.66278 499.58203
537.0 0.001862 459.56030 499.59354
501.0 0.001996 459.45639 499.64297
505.0 0.001980 459.35120 499.75183
465.0 0.002151 459.24463 499.93951
503.0 0.001988 459.13678 500.22424
506.0 0.001976 459.02744 500.62106
541.0 0.001848 458.91687 501.14011
501.0 0.001996 458.80484 501.78748
525.0 0.001905 458.69150 502.56125
496.0 0.002016 458.57684 503.45279
531.0 0.001883 458.46091 504.44299
508.0 0.001969 458.34354 505.50836
492.0 0.002033 458.22488 506.61395
540.0 0.001852 458.10486 507.71378
491.0 0.002037 457.98361 508.76984
510.0 0.001961 457.86108 509.72491
470.0 0.002128 457.73718 510.52249
518.0 0.001931 457.61203 511.10696
453.0 0.002208 457.48557 511.43048
462.0 0.002165 457.35794 511.45432
505.0 0.001980 457.22897 511.15698
436.0 0.002294 457.09891 510.60184
515.0 0.001942 456.96747 509.67288
481.0 0.002079 456.83493 508.47223
491.0 0.002037 456.70114 507.04477
520.0 0.001923 456.56616 505.44632
493.0 0.002028 456.43005 503.73148
475.0 0.002105 456.29285 501.96387
478.0 0.002092 456.15442 500.17142
504.0 0.001984 456.01489 498.40381
469.0 0.002132 455.87421 496.70624
429.0 0.002331 455.73257 495.07397
507.0 0.001972 455.58987 493.55246
460.0 0.002174 455.44608 492.11926
483.0 0.002070 455.30124 490.79337
493.0 0.002028 455.15533 489.57370
505.0 0.001980 455.00861 488.45737
468.0 0.002137 454.86087 487.43393
479.0 0.002088 454.71219 486.49585
516.0 0.001938 454.56247 485.63394
526.0 0.001901 454.41202 484.84100
490.0 0.002041 454.26062 484.10889
489.0 0.002045 454.10843 483.43350
509.0 0.001965 453.95532 482.81091
490.0 0.002041 453.80154 482.24026
448.0 0.002232 453.64688 481.72733
481.0 0.002079 453.49155 481.25858
458.0 0.002183 453.33533 480.84015
483.0 0.002070 453.17868 480.47241
497.0 0.002012 453.02118 480.15219
494.0 0.002024 452.86310 479.87732
471.0 0.002123 452.70428 479.64163
508.0 0.001969 452.54501 479.44125
496.0 0.002016 452.38510 479.26370
474.0 0.002110 452.22470 479.10904
467.0 0.002141 452.06381 478.94946
558.0 0.001792 451.90231 478.78128
501.0 0.001996 451.74051 478.59201
498.0 0.002008 451.57819 478.37003
495.0 0.002020 451.41562 478.13934
527.0 0.001898 451.25250 477.82385
515.0 0.001942 451.08917 477.45239
496.0 0.002016 450.92551 477.02325
507.0 0.001972 450.76157 476.53876
498.0 0.002008 450.59738 476.00385
470.0 0.002128 450.43301 475.42679
460.0 0.002174 450.26843 474.81741
439.0 0.002278 450.10367 474.18716
418.0 0.002392 449.93872 473.54721
446.0 0.002242 449.77380 472.90967
505.0 0.001980 449.60880 472.28455
432.0 0.002315 449.44379 471.68152
431.0 0.002320 449.27869 471.10904
450.0 0.002222 449.11359 470.57471
463.0 0.002160 448.94867 470.08209
435.0 0.002299 448.78375 469.63635
471.0 0.002123 448.61905 469.24164
459.0 0.002179 448.45435 468.90036
438.0 0.002283 448.28998 468.61606
467.0 0.002141 448.12570 468.39102
480.0 0.002083 447.96170 468.22806
449.0 0.002227 447.79794 468.12827
491.0 0.002037 447.63455 468.09708
445.0 0.002247 447.47141 468.12430
489.0 0.002045 447.30862 468.21231
492.0 0.002033 447.14615 468.35733
465.0 0.002151 446.98425 468.55194
482.0 0.002075 446.82272 468.78967
493.0 0.002028 446.66162 469.05624
479.0 0.002088 446.50095 469.34006
468.0 0.002137 446.34094 469.62415
488.0 0.002049 446.18137 469.89063
435.0 0.002299 446.02240 470.11884
480.0 0.002083 445.86401 470.28830
469.0 0.002132 445.70621 470.37930
446.0 0.002242 445.54916 470.39581
419.0 0.002387 445.39267 470.27975
425.0 0.002353 445.23691 470.04449
464.0 0.002155 445.08185 469.68729
427.0 0.002342 444.92761 469.21393
456.0 0.002193 444.77405 468.62924
441.0 0.002268 444.62131 467.94897
438.0 0.002283 444.46924 467.03317
472.0 0.002119 444.31815 466.21545
437.0 0.002288 444.16788 465.36328
435.0 0.002299 444.01846 464.51932
445.0 0.002247 443.86978 463.62512
447.0 0.002237 443.72220 462.73624
435.0 0.002299 443.57541 461.86151
482.0 0.002075 443.42966 461.01105
425.0 0.002353 443.28476 460.19110
409.0 0.002445 443.14078 459.40646
426.0 0.002347 442.99786 458.66174
508.0 0.001969 442.85587 457.96271
418.0 0.002392 442.71494 457.30258
434.0 0.002304 442.57495 456.68649
461.0 0.002169 442.43607 456.11456
430.0 0.002326 442.29816 455.58658
451.0 0.002217 442.16132 455.10242
428.0 0.002336 442.02545 454.66220
406.0 0.002463 441.89081 454.26755
441.0 0.002268 441.75711 453.91864
453.0 0.002208 441.62454 453.64880
461.0 0.002169 441.49295 453.39935
471.0 0.002123 441.36255 453.20508
471.0 0.002123 441.23322 453.06894
434.0 0.002304 441.10498 452.99771
436.0 0.002294 440.97772 452.94138
493.0 0.002028 440.85165 453.02039
473.0 0.002114 440.72665 453.18823
457.0 0.002188 440.60269 453.46783
442.0 0.002262 440.47992 453.85086
436.0 0.002294 440.35812 454.36359
431.0 0.002320 440.23752 455.02316
463.0 0.002160 440.11789 455.84937
482.0 0.002075 439.99936 456.86130
470.0 0.002128 439.88190 458.07990
464.0 0.002155 439.76553 459.52087
500.0 0.002000 439.65012 461.20148
500.0 0.002000 439.53583 463.13177
442.0 0.002262 439.42242 465.31790
444.0 0.002252 439.31021 467.75272
455.0 0.002198 439.19894 470.42578
507.0 0.001972 439.08862 473.30942
501.0 0.001996 438.97922 476.37091
479.0 0.002088 438.87091 479.55203
474.0 0.002110 438.76343 482.79611
483.0 0.002070 438.65692 486.02579
499.0 0.002004 438.55133 489.15771
475.0 0.002105 438.44653 492.09869
523.0 0.001912 438.34274 494.73978
497.0 0.002012 438.23969 496.98517
471.0 0.002123 438.13748 498.73593
470.0 0.002128 438.03610 499.91479
507.0 0.001972 437.93552 500.47110
483.0 0.002070 437.83560 500.39685
505.0 0.001980 437.73648 499.72781
470.0 0.002128 437.63797 498.54050
490.0 0.002041 437.54025 496.94409
512.0 0.001953 437.44315 495.05899
508.0 0.001969 437.34662 493.01627
497.0 0.002012 437.25064 490.91852
470.0 0.002128 437.15530 488.87369
425.0 0.002353 437.06042 486.95905
464.0 0.002155 436.96613 485.23358
505.0 0.001980 436.87216 483.73141
473.0 0.002114 436.77875 482.46799
473.0 0.002114 436.68564 481.43970
436.0 0.002294 436.59290 480.61038
482.0 0.002075 436.50049 479.94446
485.0 0.002062 436.40836 479.38681
452.0 0.002212 436.31653 478.87454
456.0 0.002193 436.22482 478.33893
471.0 0.002123 436.13336 477.71564
450.0 0.002222 436.04196 476.94913
470.0 0.002128 435.95078 476.00443
475.0 0.002105 435.85953 474.86694
510.0 0.001961 435.76837 473.54791
418.0 0.002392 435.67712 472.07562
445.0 0.002247 435.58585 470.49548
482.0 0.002075 435.49451 468.85547
471.0 0.002123 435.40298 467.20444
457.0 0.002188 435.31122 465.59116
473.0 0.002114 435.21927 464.05704
478.0 0.002092 435.12701 462.63721
493.0 0.002028 435.03445 461.36240
481.0 0.002079 434.94159 460.25211
441.0 0.002268 434.84821 459.35852
446.0 0.002242 434.75446 458.61612
437.0 0.002288 434.66019 458.06180
486.0 0.002058 434.56537 457.69156
446.0 0.002242 434.47000 457.49567
460.0 0.002174 434.37402 457.46048
454.0 0.002203 434.27734 457.56882
444.0 0.002252 434.17996 457.80130
490.0 0.002041 434.08176 458.13693
433.0 0.002309 433.98285 458.55588
458.0 0.002183 433.88312 459.03616
445.0 0.002247 433.78241 459.55899
469.0 0.002132 433.68076 460.10730
440.0 0.002273 433.57822 460.66772
489.0 0.002045 433.47461 461.21704
418.0 0.002392 433.36993 461.74231
472.0 0.002119 433.26416 462.22781
453.0 0.002208 433.15732 462.65677
457.0 0.002188 433.04919 463.01379
498.0 0.002008 432.93985 463.28427
511.0 0.001957 432.82925 463.45670
475.0 0.002105 432.71738 463.52332
477.0 0.002096 432.60419 463.48004
418.0 0.002392 432.48953 463.32764
430.0 0.002326 432.37347 463.07162
448.0 0.002232 432.25589 462.72006
444.0 0.002252 432.13693 462.28549
472.0 0.002119 432.01642 461.78033
467.0 0.002141 431.89429 461.21841
466.0 0.002146 431.77051 460.61349
444.0 0.002252 431.64517 459.97998
475.0 0.002105 431.51810 459.32904
455.0 0.002198 431.38940 458.67365
439.0 0.002278 431.25885 458.02484
468.0 0.002137 431.12665 457.39429
414.0 0.002415 430.99255 456.79089
413.0 0.002421 430.85669 456.22372
429.0 0.002331 430.71893 455.69916
402.0 0.002488 430.57925 455.22198
394.0 0.002538 430.43781 454.79636
437.0 0.002288 430.29431 454.42139
491.0 0.002037 430.14893 454.09692
391.0 0.002558 430.00146 453.82251
427.0 0.002342 429.85217 453.59149
440.0 0.002273 429.70071 453.40494
428.0 0.002336 429.54733 453.25995
465.0 0.002151 429.39172 453.15952
428.0 0.002336 429.23425 453.11020
443.0 0.002257 429.07462 453.08911
423.0 0.002364 428.91293 453.16830
438.0 0.002283 428.74896 453.32941
482.0 0.002075 428.58310 453.58414
440.0 0.002273 428.41501 453.94724
419.0 0.002387 428.24481 454.41614
402.0 0.002488 428.07245 454.99881
472.0 0.002119 427.89801 455.69284
436.0 0.002294 427.72134 456.49243
472.0 0.002119 427.54251 457.38489
454.0 0.002203 427.36163 458.35168
460.0 0.002174 427.17853 459.37018
481.0 0.002079 426.99338 460.41003
419.0 0.002387 426.80597 461.46960
448.0 0.002232 426.61655 462.45422
444.0 0.002252 426.42490 463.36026
441.0 0.002268 426.23120 464.15491
470.0 0.002128 426.03549 464.81381
496.0 0.002016 425.83759 465.31638
452.0 0.002212 425.63754 465.64935
449.0 0.002227 425.43558 465.80435
439.0 0.002278 425.23154 465.77567
446.0 0.002242 425.02545 465.56232
455.0 0.002198 424.81735 465.16550
458.0 0.002183 424.60736 464.59052
458.0 0.002183 424.39539 463.84622
438.0 0.002283 424.18146 462.94843
433.0 0.002309 423.96564 461.91879
449.0 0.002227 423.74780 460.78522
461.0 0.002169 423.52838 459.58157
432.0 0.002315 423.30707 458.34042
450.0 0.002222 423.08395 457.09546
433.0 0.002309 422.85901 455.87558
404.0 0.002475 422.63260 454.70691
435.0 0.002299 422.40433 453.60574
453.0 0.002208 422.17462 452.58505
469.0 0.002132 421.94312 451.64877
455.0 0.002198 421.71017 450.79678
449.0 0.002227 421.47574 450.02161
475.0 0.002105 421.23990 449.31216
401.0 0.002494 421.00250 448.65329
430.0 0.002326 420.76401 448.02921
431.0 0.002320 420.52393 447.42316
444.0 0.002252 420.28284 446.82190
426.0 0.002347 420.04031 446.21579
441.0 0.002268 419.79684 445.60287
449.0 0.002227 419.55219 444.98456
453.0 0.002208 419.30649 444.36389
427.0 0.002342 419.05981 443.75323
466.0 0.002146 418.81210 443.16043
417.0 0.002398 418.56369 442.59683
427.0 0.002342 418.31442 442.06894
425.0 0.002353 418.06442 441.58347
404.0 0.002475 417.81360 441.13913
442.0 0.002262 417.56238 440.73651
446.0 0.002242 417.31049 440.37036
468.0 0.002137 417.05814 440.03369
413.0 0.002421 416.80521 439.71631
399.0 0.002506 416.55212 439.40564
391.0 0.002558 416.29852 439.08606
422.0 0.002370 416.04477 438.74005
417.0 0.002398 415.79080 438.34869
404.0 0.002475 415.53693 437.89395
458.0 0.002183 415.28290 437.35886
442.0 0.002262 415.02887 436.73172
441.0 0.002268 414.77487 436.00629
425.0 0.002353 414.52106 435.18375
432.0 0.002315 414.26764 434.27988
457.0 0.002188 414.01447 433.29367
397.0 0.002519 413.76163 432.25052
457.0 0.002188 413.50909 431.16885
443.0 0.002257 413.25732 430.06778
404.0 0.002475 413.00595 428.96814
472.0 0.002119 412.75528 427.88547
412.0 0.002427 412.50519 426.83301
403.0 0.002481 412.25610 425.82425
425.0 0.002353 412.00775 424.86673
387.0 0.002584 411.76031 423.96960
384.0 0.002604 411.51379 423.13770
403.0 0.002481 411.26846 422.37610
438.0 0.002283 411.02402 421.68619
376.0 0.002660 410.78082 421.06964
417.0 0.002398 410.53879 420.52579
407.0 0.002457 410.29828 420.05399
424.0 0.002358 410.05896 419.65073
418.0 0.002392 409.82092 419.31219
432.0 0.002315 409.58456 419.03455
412.0 0.002427 409.34943 418.81113
424.0 0.002358 409.11615 418.63666
439.0 0.002278 408.88446 418.50388
402.0 0.002488 408.65442 418.40491
437.0 0.002288 408.42596 418.33279
420.0 0.002381 408.19952 418.28589
410.0 0.002439 407.97467 418.24469
399.0 0.002506 407.75189 418.20889
460.0 0.002174 407.53079 418.17288
412.0 0.002427 407.31192 418.13242
421.0 0.002375 407.09494 418.08456
449.0 0.002227 406.87997 418.02768
398.0 0.002513 406.66705 417.96289
404.0 0.002475 406.45639 417.89178
395.0 0.002532 406.24765 417.81955
460.0 0.002174 406.04120 417.75092
398.0 0.002513 405.83694 417.69308
410.0 0.002439 405.63480 417.65366
390.0 0.002564 405.43515 417.64087
415.0 0.002410 405.23752 417.66525
397.0 0.002519 405.04242 417.72684
438.0 0.002283 404.84940 417.83392
421.0 0.002375 404.65878 417.99124
431.0 0.002320 404.47052 418.20123
423.0 0.002364 404.28464 418.46503
441.0 0.002268 404.10098 418.78262
410.0 0.002439 403.91983 419.15170
411.0 0.002433 403.74097 419.56964
416.0 0.002404 403.56442 420.03143
385.0 0.002597 403.39023 420.53430
370.0 0.002703 403.21838 421.06677
381.0 0.002625 403.04889 421.63885
392.0 0.002551 402.88168 422.20972
412.0 0.002427 402.71683 422.78384
454.0 0.002203 402.55417 423.34753
412.0 0.002427 402.39395 423.88403
415.0 0.002410 402.23581 424.37515
422.0 0.002370 402.07993 424.79980
419.0 0.002387 401.92621 425.13467
410.0 0.002439 401.77478 425.35587
403.0 0.002481 401.62546 425.44061
398.0 0.002513 401.47818 425.36945
421.0 0.002375 401.33292 425.12943
411.0 0.002433 401.18973 424.71567
413.0 0.002421 401.04843 424.13156
375.0 0.002667 400.90909 423.39050
379.0 0.002639 400.77167 422.51196
415.0 0.002410 400.63611 421.52054
385.0 0.002597 400.50223 420.44260
423.0 0.002364 400.37012 419.30518
409.0 0.002445 400.23953 418.13306
382.0 0.002618 400.11072 416.95010
404.0 0.002475 399.98334 415.77429
376.0 0.002660 399.85742 414.62292
393.0 0.002545 399.73294 413.50967
389.0 0.002571 399.60971 412.44434
391.0 0.002558 399.48785 411.43729
433.0 0.002309 399.36713 410.49130
410.0 0.002439 399.24750 409.61148
393.0 0.002545 399.12885 408.76559
400.0 0.002500 399.01129 408.02185
422.0 0.002370 398.89453 407.34387
388.0 0.002577 398.77863 406.72955
429.0 0.002331 398.66333 406.17508
431.0 0.002320 398.54877 405.67667
387.0 0.002584 398.43466 405.22961
406.0 0.002463 398.32111 404.82968
395.0 0.002532 398.20779 404.47156
394.0 0.002538 398.09491 404.15204
386.0 0.002591 397.98218 403.86578
378.0 0.002646 397.86951 403.60986
410.0 0.002439 397.75690 403.38095
385.0 0.002597 397.64420 403.17111
385.0 0.002597 397.53137 402.97928
358.0 0.002793 397.41830 402.80075
396.0 0.002525 397.30487 402.63306
402.0 0.002488 397.19095 402.47174
420.0 0.002381 397.07669 402.31470
423.0 0.002364 396.96170 402.16479
392.0 0.002551 396.84610 402.00995
404.0 0.002475 396.72968 401.80133
418.0 0.002392 396.61240 401.64487
436.0 0.002294 396.49417 401.48773
374.0 0.002674 396.37494 401.33170
439.0 0.002278 396.25458 401.17831
381.0 0.002625 396.13312 401.02969
415.0 0.002410 396.01025 400.88763
376.0 0.002660 395.88620 400.75607
380.0 0.002632 395.76059 400.63495
378.0 0.002646 395.63358 400.52798
401.0 0.002494 395.50507 400.43692
393.0 0.002545 395.37488 400.36435
351.0 0.002849 395.24298 400.31226
390.0 0.002564 395.10928 400.28317
391.0 0.002558 394.97397 400.27924
378.0 0.002646 394.83667 400.30264
410.0 0.002439 394.69745 400.35532
386.0 0.002591 394.55624 400.44003
389.0 0.002571 394.41315 400.55862
408.0 0.002451 394.26797 400.71335
401.0 0.002494 394.12070 400.90643
395.0 0.002532 393.97131 401.14011
393.0 0.002545 393.81985 401.41522
399.0 0.002506 393.66608 401.73370
384.0 0.002604 393.51019 402.09604
443.0 0.002257 393.35202 402.50278
431.0 0.002320 393.19180 402.95297
425.0 0.002353 393.02933 403.44556
402.0 0.002488 392.86459 403.97849
412.0 0.002427 392.69754 404.54858
395.0 0.002532 392.52832 405.15237
372.0 0.002688 392.35703 405.78796
409.0 0.002445 392.18353 406.44421
406.0 0.002463 392.00781 407.11847
425.0 0.002353 391.82990 407.80511
406.0 0.002463 391.65009 408.49588
417.0 0.002398 391.46802 409.15094
406.0 0.002463 391.28409 409.82639
393.0 0.002545 391.09808 410.47852
416.0 0.002404 390.91031 411.09363
427.0 0.002342 390.72067 411.65729
404.0 0.002475 390.52921 412.15549
415.0 0.002410 390.33597 412.56055
375.0 0.002667 390.14136 412.85556
399.0 0.002506 389.94498 413.02045
398.0 0.002513 389.74725 413.03693
402.0 0.002488 389.54807 412.89160
432.0 0.002315 389.34781 412.57788
433.0 0.002309 389.14633 412.09619
412.0 0.002427 388.94379 411.45566
428.0 0.002336 388.74045 410.67227
412.0 0.002427 388.53601 409.76547
420.0 0.002381 388.33124 408.76117
429.0 0.002331 388.12579 407.68188
399.0 0.002506 387.92001 406.58194
374.0 0.002674 387.71378 405.42355
396.0 0.002525 387.50769 404.25732
391.0 0.002558 387.30139 403.09766
378.0 0.002646 387.09546 401.96710
392.0 0.002551 386.88977 400.86490
383.0 0.002611 386.68460 399.80844
386.0 0.002591 386.48010 398.80496
388.0 0.002577 386.27643 397.86154
382.0 0.002618 386.07364 396.98199
374.0 0.002674 385.87225 396.17038
406.0 0.002463 385.67209 395.42688
403.0 0.002481 385.47354 394.75214
398.0 0.002513 385.27652 394.14377
384.0 0.002604 385.08139 393.59970
387.0 0.002584 384.88852 393.11688
453.0 0.002208 384.69778 392.69049
407.0 0.002457 384.50955 392.31540
355.0 0.002817 384.32376 391.98663
389.0 0.002571 384.14090 391.69873
388.0 0.002577 383.96100 391.44583
365.0 0.002740 383.78427 391.22260
393.0 0.002545 383.61084 391.02380
366.0 0.002732 383.44104 390.84476
409.0 0.002445 383.27487 390.68201
406.0 0.002463 383.11255 390.53241
421.0 0.002375 382.95422 390.39450
366.0 0.002732 382.80023 390.26813
388.0 0.002577 382.65054 390.15326
410.0 0.002439 382.50537 390.05176
388.0 0.002577 382.36484 389.96521
393.0 0.002545 382.22928 389.88959
422.0 0.002370 382.09863 389.84088
386.0 0.002591 381.97308 389.81479
395.0 0.002532 381.85281 389.81381
419.0 0.002387 381.73782 389.82010
420.0 0.002381 381.62848 389.87531
392.0 0.002551 381.52466 389.96100
437.0 0.002288 381.42654 390.08060
359.0 0.002786 381.33423 390.22903
405.0 0.002469 381.24783 390.40823
412.0 0.002427 381.16730 390.61758
403.0 0.002481 381.09283 390.85510
410.0 0.002439 381.02444 391.11789
352.0 0.002841 380.96216 391.40979
399.0 0.002506 380.90601 391.71295
399.0 0.002506 380.85602 392.03009
365.0 0.002740 380.81216 392.35590
403.0 0.002481 380.77457 392.68555
383.0 0.002611 380.74310 393.01413
389.0 0.002571 380.71774 393.33575
368.0 0.002717 380.69846 393.64548
412.0 0.002427 380.68512 393.93723
418.0 0.002392 380.67786 394.20563
390.0 0.002564 380.67642 394.44400
398.0 0.002513 380.68085 394.64575
391.0 0.002558 380.69089 394.80435
391.0 0.002558 380.70645 394.91263
369.0 0.002710 380.72745 394.96509
453.0 0.002208 380.75372 394.95615
393.0 0.002545 380.78513 394.88248
352.0 0.002841 380.82141 394.74377
375.0 0.002667 380.86243 394.54126
412.0 0.002427 380.90796 394.28006
375.0 0.002667 380.95779 393.96634
379.0 0.002639 381.01172 393.61020
413.0 0.002421 381.06949 393.22156
357.0 0.002801 381.13077 392.81113
389.0 0.002571 381.19543 392.38953
390.0 0.002564 381.26300 391.96790
395.0 0.002532 381.33337 391.55499
379.0 0.002639 381.40622 391.15970
408.0 0.002451 381.48111 390.79041
426.0 0.002347 381.55780 390.45172
393.0 0.002545 381.63593 390.15070
381.0 0.002625 381.71524 389.89069
351.0 0.002849 381.79529 389.67487
390.0 0.002564 381.87585 389.50528
392.0 0.002551 381.95645 389.38275
370.0 0.002703 382.03677 389.30692
424.0 0.002358 382.11649 389.27652
400.0 0.002500 382.19519 389.28949
427.0 0.002342 382.27249 389.34290
419.0 0.002387 382.34818 389.43268
392.0 0.002551 382.42172 389.55450
400.0 0.002500 382.49292 389.70337
392.0 0.002551 382.56134 389.87299
424.0 0.002358 382.62662 390.05692
367.0 0.002725 382.68854 390.24832
408.0 0.002451 382.74664 390.43951
391.0 0.002558 382.80072 390.62305
370.0 0.002703 382.85043 390.79034
402.0 0.002488 382.89551 390.93475
409.0 0.002445 382.93582 390.97632
430.0 0.002326 382.97089 391.05453
394.0 0.002538 383.00064 391.09201
388.0 0.002577 383.02487 391.08618
401.0 0.002494 383.04340 391.03659
408.0 0.002451 383.05609 390.94434
378.0 0.002646 383.06290 390.81223
380.0 0.002632 383.06360 390.64462
361.0 0.002770 383.05823 390.44687
378.0 0.002646 383.04678 390.22418
359.0 0.002786 383.02924 389.98257
393.0 0.002545 383.00571 389.72739
397.0 0.002519 382.97632 389.46381
390.0 0.002564 382.94107 389.19650
360.0 0.002778 382.90027 388.93076
386.0 0.002591 382.85410 388.66998
376.0 0.002660 382.80286 388.41837
367.0 0.002725 382.74689 388.17972
372.0 0.002688 382.68646 387.95740
418.0 0.002392 382.62210 387.75497
401.0 0.002494 382.55417 387.57541
393.0 0.002545 382.48325 387.42160
412.0 0.002427 382.40988 387.29678
392.0 0.002551 382.33469 387.20361
405.0 0.002469 382.25821 387.14465
381.0 0.002625 382.18127 387.12320
410.0 0.002439 382.10446 387.14200
371.0 0.002695 382.02875 387.20380
405.0 0.002469 381.95480 387.31213
373.0 0.002681 381.88348 387.47003
377.0 0.002653 381.81558 387.68118
413.0 0.002421 381.75226 387.94955
410.0 0.002439 381.69418 388.27866
378.0 0.002646 381.64236 388.67325
402.0 0.002488 381.59784 389.13742
405.0 0.002469 381.56143 389.67578
376.0 0.002660 381.53406 390.29269
416.0 0.002404 381.51669 390.99335
378.0 0.002646 381.51022 391.78198
377.0 0.002653 381.51550 392.66354
413.0 0.002421 381.53320 393.64038
399.0 0.002506 381.56415 394.71625
399.0 0.002506 381.60889 395.89127
403.0 0.002481 381.66803 397.16537
366.0 0.002732 381.74197 398.53271
383.0 0.002611 381.83087 399.98834
382.0 0.002618 381.93491 401.52124
394.0 0.002538 382.05399 403.11908
409.0 0.002445 382.18762 404.76254
386.0 0.002591 382.33557 406.43442
389.0 0.002571 382.49667 408.11038
382.0 0.002618 382.67014 409.76651
401.0 0.002494 382.85413 411.37317
379.0 0.002639 383.04691 412.90305
384.0 0.002604 383.24619 414.32431
371.0 0.002695 383.44919 415.60519
368.0 0.002717 383.65277 416.71469
383.0 0.002611 383.85269 417.62024
354.0 0.002825 384.04483 418.29428
410.0 0.002439 384.22388 418.71164
415.0 0.002410 384.38406 418.85373
354.0 0.002825 384.51837 418.70914
412.0 0.002427 384.61945 418.27603
370.0 0.002703 384.67868 417.56213
376.0 . . .
loop_
_refln_index_h
_refln_index_k
_refln_index_l
_refln_observed_status
_refln_F_squared_meas
_refln_F_squared_calc
_refln_phase_calc
_refln_d_spacing
_gsas_i100_meas
0 0 1 o 202.904 192.395 180.00 8.46837 23.44
0 1 0 o 27.449 0.062 180.00 7.20085 2.24
0 1 1 o 40.127 15.289 180.00 5.90386 2.20
1 0 0 o 66.877 35.681 180.00 5.04801 2.66
0 1 -1 o 55.039 32.847 180.00 5.14547 2.26
1 1 0 o 450.384 472.769 180.00 4.58016 14.80
1 0 1 o 216.426 205.466 180.00 4.40511 6.50
1 1 1 o 58.942 60.342 180.00 4.24784 1.63
1 0 -1 o 1686.922 1702.833 180.00 4.27019 47.64
0 0 2 o 16.221 18.733 0.00 4.23418 0.45
1 1 -1 o 825.480 818.992 0.00 3.84026 18.69
1 -1 0 o 1316.541 1314.694 0.00 3.79629 29.08
0 1 2 o 95.676 82.955 0.00 3.89300 2.21
0 2 0 o 458.075 452.154 180.00 3.60042 9.05
1 -1 -1 o 324.900 297.245 180.00 3.52573 6.18
0 2 1 o 460.602 454.221 0.00 3.49202 8.58
1 -1 1 o 1053.159 997.962 0.00 3.40566 18.47
0 1 -2 o 5545.488 5541.155 180.00 3.44738 100.00
1 1 2 o 371.657 358.181 0.00 3.31390 6.16
1 0 2 o 84.170 77.839 0.00 3.30206 1.39
1 2 0 o 768.534 726.725 180.00 3.25013 12.23
1 2 1 o 48.894 31.623 0.00 3.19639 0.75
1 0 -2 o 191.012 123.402 180.00 3.18905 2.90
0 2 -1 o 116.945 78.039 0.00 3.15964 1.74
1 1 -2 o 31.365 26.409 180.00 2.93819 0.40
1 2 -1 o 354.145 400.193 0.00 2.89465 4.38
0 2 2 o 370.560 324.486 180.00 2.95193 4.81
1 -1 -2 o 4.719 5.910 0.00 2.89409 0.06
1 2 2 o 85.516 100.161 0.00 2.78449 0.98
1 -1 2 o 10.102 9.381 0.00 2.76355 0.11
0 0 3 o 1.274 1.010 0.00 2.82279 0.01
0 1 3 o 98.841 96.284 180.00 2.76116 1.11
1 -2 0 o 45.336 98.636 0.00 2.69090 0.48
2 1 0 o 6.840 3.907 0.00 2.54379 0.06
2 0 0 o 236.230 160.197 180.00 2.52401 2.17
1 -2 -1 o 70.285 79.169 180.00 2.62957 0.71
2 1 1 o 765.029 550.021 180.00 2.49506 6.84
0 2 -2 o 27.193 21.416 180.00 2.57274 0.26
1 1 3 o 6.541 3.374 180.00 2.54340 0.06
2 0 1 o 6.854 6.579 180.00 2.44261 0.06
1 -2 1 o 98.106 72.681 0.00 2.50412 0.89
1 0 3 o 5.844 4.171 0.00 2.50171 0.05
0 1 -3 o 579.464 465.380 0.00 2.51255 5.27
2 1 -1 o 76.947 73.729 0.00 2.38142 0.62
2 0 -1 o 852.952 779.314 0.00 2.39578 7.00
1 2 -2 o 145.640 153.481 0.00 2.41182 1.22
1 0 -3 o 83.368 89.804 0.00 2.42747 0.71
1 3 1 o 281.660 287.345 180.00 2.36422 2.24
0 3 0 o 118.528 104.028 0.00 2.40028 0.98
1 3 0 o 26.692 30.696 180.00 2.35548 0.21
2 2 0 o 14.421 15.745 180.00 2.29008 0.10
0 3 1 o 182.532 156.963 180.00 2.39805 1.49
2 2 1 o 452.681 441.581 180.00 2.28079 3.32
2 1 2 o 167.232 172.690 0.00 2.26676 1.21
1 -2 -2 o 3.654 3.724 180.00 2.36341 0.03
0 2 3 o 836.599 823.642 0.00 2.38772 6.78
1 2 3 o 2.395 2.676 180.00 2.30655 0.02
2 -1 0 o 34.919 31.033 180.00 2.24748 0.25
1 -1 -3 o 0.064 0.058 0.00 2.31727 0.00
1 1 -3 o 655.226 637.891 0.00 2.28366 4.82
2 0 2 o 1.586 1.064 180.00 2.20255 0.01
2 -1 1 o 658.040 556.040 180.00 2.16599 4.29
1 -1 3 o 0.757 0.527 180.00 2.21651 0.01
2 -1 -1 o 0.009 0.007 0.00 2.17862 0.00
0 3 -1 o 251.511 206.551 180.00 2.22975 1.76
1 3 2 o 308.007 194.844 0.00 2.20613 2.09
2 2 -1 o 221.186 159.615 0.00 2.14665 1.41
1 -2 2 o 716.107 663.542 180.00 2.18879 4.79
1 3 -1 o 37.868 34.198 180.00 2.18502 0.25
0 3 2 o 15.085 12.986 180.00 2.22438 0.10
2 2 2 o 13.604 8.748 180.00 2.12392 0.08
2 0 -2 o 205.393 133.855 180.00 2.13509 1.29
2 1 -2 o 28.878 15.718 0.00 2.10346 0.18
0 0 4 o 12.621 7.567 0.00 2.11709 0.08
0 2 -3 o 92.069 71.363 0.00 2.08567 0.55
0 1 4 o 181.133 121.465 0.00 2.11178 1.12
2 -1 -2 o 44.388 41.048 180.00 1.99487 0.24
2 -1 2 o 123.554 113.013 0.00 1.97559 0.66
2 1 3 o 67.253 61.210 0.00 1.97452 0.36
1 1 4 o 25.610 36.711 180.00 2.01618 0.15
2 3 1 o 408.936 331.994 0.00 1.95216 2.09
1 -2 -3 o 37.765 36.836 0.00 2.03564 0.22
1 -3 0 o 6.652 9.003 180.00 2.01870 0.04
2 3 0 o 59.257 77.138 0.00 1.94116 0.30
1 -3 -1 o 1.198 1.322 180.00 2.01061 0.01
1 2 -3 o 514.135 477.666 180.00 1.99059 2.77
1 0 4 o 71.450 66.337 180.00 1.97744 0.38
2 2 -2 o 6.533 10.407 180.00 1.92013 0.03
0 3 -2 o 260.818 239.362 0.00 1.97415 1.38
1 3 3 o 11.759 9.467 180.00 1.96149 0.06
2 0 3 o 199.188 311.468 0.00 1.91549 1.00
1 3 -2 o 211.771 352.271 0.00 1.93687 1.09
0 1 -4 o 23.025 17.357 180.00 1.95906 0.12
0 3 3 o 105.780 92.922 180.00 1.96795 0.56
2 2 3 o 105.739 134.544 180.00 1.89317 0.51
2 -2 0 o 87.239 105.692 0.00 1.89815 0.42
2 3 2 o 55.560 85.413 180.00 1.86563 0.26
1 -3 1 o 64.151 108.462 0.00 1.91988 0.32
1 0 -4 o 5.740 10.700 180.00 1.92818 0.03
0 2 4 o 18.807 18.582 0.00 1.94650 0.09
1 2 4 o 97.954 117.095 180.00 1.90748 0.48
2 -2 -1 o 155.378 183.741 180.00 1.87080 0.73
2 3 -1 o 65.464 120.931 0.00 1.83723 0.30
1 -3 -2 o 9.125 10.669 0.00 1.89922 0.04
1 -2 3 o 86.272 98.704 180.00 1.87028 0.40
1 -1 -4 o 19.186 30.584 0.00 1.88661 0.09
2 0 -3 o 0.007 0.124 180.00 1.84933 0.00
2 -2 1 o 11.200 17.716 0.00 1.83412 0.05
2 1 -3 o 208.300 278.858 180.00 1.81494 0.92
1 4 1 o 1.472 2.178 180.00 1.83031 0.01
1 1 -4 o 4.714 9.343 180.00 1.83941 0.02
1 -1 4 o 4.730 5.846 0.00 1.81356 0.02
1 4 0 o 25.004 32.876 180.00 1.81257 0.11
3 1 0 o 48.956 48.834 0.00 1.71526 0.19
0 4 1 o 0.287 0.364 0.00 1.81264 0.00
0 4 0 o 1.203 8.641 180.00 1.80021 0.01
3 1 1 o 5.346 5.579 180.00 1.70416 0.02
2 -1 -3 o 20.954 27.337 0.00 1.76838 0.09
2 -2 -2 o 161.431 207.463 0.00 1.76286 0.66
2 -1 3 o 0.581 0.565 0.00 1.74829 0.00
1 4 2 o 86.853 107.146 0.00 1.76632 0.36
3 0 0 o 0.597 0.993 0.00 1.68267 0.00
1 -3 2 o 111.043 157.650 180.00 1.75384 0.45
2 3 3 o 26.425 25.628 0.00 1.71473 0.10
3 2 1 o 389.937 408.705 0.00 1.65504 1.37
3 0 1 o 17.647 19.296 180.00 1.66167 0.06
2 1 4 o 17.983 20.617 180.00 1.69942 0.07
3 1 -1 o 11.398 11.997 180.00 1.65899 0.04
1 4 -1 o 188.852 194.094 0.00 1.71971 0.73
3 2 0 o 13.733 14.439 0.00 1.65482 0.05
0 4 2 o 223.817 187.437 0.00 1.74601 0.89
2 -2 2 o 120.880 127.128 0.00 1.70283 0.45
2 2 -3 o 45.593 79.226 180.00 1.68230 0.17
1 -2 -4 o 154.464 145.932 180.00 1.73681 0.60
0 3 -3 o 55.950 54.229 180.00 1.71516 0.21
0 2 -4 o 634.826 644.365 0.00 1.72369 2.44
2 3 -2 o -0.002 0.001 180.00 1.67831 0.00
3 0 -1 o 41.947 39.108 0.00 1.63936 0.14
1 -3 -3 o 561.511 555.298 0.00 1.72776 2.17
0 4 -1 o 0.158 0.148 0.00 1.71329 0.00
3 1 2 o 24.404 23.639 180.00 1.62938 0.08
1 3 4 o 78.207 67.966 180.00 1.70934 0.30
1 3 -3 o 215.277 342.072 180.00 1.68656 0.80
2 2 4 o 89.769 86.514 0.00 1.65695 0.32
2 4 1 o 2.458 2.331 0.00 1.64146 0.01
2 0 4 o 142.727 168.539 180.00 1.65103 0.50
0 1 5 o 365.774 392.377 180.00 1.70203 1.37
0 3 4 o 50.784 42.967 180.00 1.70947 0.19
3 2 2 o 42.510 26.347 0.00 1.59543 0.14
0 0 5 o 0.005 0.008 180.00 1.69367 0.00
2 4 0 o 11.587 10.664 0.00 1.62507 0.04
1 2 -4 o 15.596 17.957 0.00 1.66501 0.06
3 2 -1 o 1.021 0.645 180.00 1.59484 0.00
1 1 5 o 64.862 61.852 0.00 1.65451 0.23
3 0 2 o 14.000 14.099 180.00 1.58304 0.04
1 4 3 o 19.194 18.876 180.00 1.64303 0.07
2 4 2 o 8.356 4.891 180.00 1.59819 0.03
3 -1 0 o 53.561 79.291 0.00 1.57126 0.17
1 0 5 o 3.052 2.734 0.00 1.62310 0.01
2 -2 -3 o 115.432 79.596 180.00 1.61012 0.38
3 1 -2 o 10.168 10.168 0.00 1.55291 0.03
2 0 -4 o 9.482 5.416 0.00 1.59452 0.03
3 3 1 o 132.888 134.320 0.00 1.53504 0.39
1 -2 4 o 0.344 0.197 180.00 1.59940 0.00
3 -1 1 o 24.674 27.289 180.00 1.54567 0.07
2 -3 0 o 132.982 90.392 180.00 1.58972 0.42
0 4 3 o 352.028 314.817 180.00 1.62310 1.18
0 2 5 o 66.155 59.723 0.00 1.62147 0.22
1 2 5 o 12.049 7.117 0.00 1.60209 0.04
3 3 0 o 188.743 188.604 180.00 1.52672 0.55
1 -4 0 o 14.276 8.111 0.00 1.59873 0.05
3 0 -2 o 43.654 48.862 180.00 1.54508 0.13
1 -4 -1 o 206.303 130.498 180.00 1.60399 0.67
3 -1 -1 o 10.660 12.242 0.00 1.54411 0.03
2 4 -1 o 165.980 163.423 180.00 1.55402 0.50
0 1 -5 o 0.236 0.135 180.00 1.60006 0.00
2 -3 -1 o 16.821 17.994 0.00 1.58247 0.05
1 4 -2 o 1.040 1.198 180.00 1.58157 0.00
3 1 3 o 104.275 197.127 180.00 1.51292 0.30
2 1 -4 o 75.072 84.544 0.00 1.56357 0.23
0 4 -2 o 0.201 0.290 0.00 1.57982 0.00
1 0 -5 o 14.744 10.261 0.00 1.58886 0.05
1 -3 3 o 1.771 2.322 0.00 1.56789 0.01
2 -2 3 o 55.692 68.548 0.00 1.54236 0.17
2 3 4 o 10.164 12.605 180.00 1.54160 0.03
3 3 2 o 42.569 46.338 180.00 1.49464 0.12
1 -1 -5 o 14.877 46.307 180.00 1.57414 0.05
3 2 3 o 49.826 54.570 180.00 1.49313 0.14
2 -3 1 o 151.333 183.502 0.00 1.54312 0.45
2 -1 4 o 0.378 0.330 180.00 1.53210 0.00
2 -1 -4 o 39.055 38.976 180.00 1.55014 0.12
3 2 -2 o 7.656 8.586 180.00 1.49231 0.02
1 -4 -2 o 37.584 35.740 180.00 1.55415 0.11
2 4 3 o 0.688 2.048 0.00 1.50797 0.00
2 3 -3 o 7.466 14.082 180.00 1.50470 0.02
3 3 -1 o 123.875 164.718 180.00 1.47194 0.33
1 -4 1 o 2.237 2.779 180.00 1.53992 0.01
2 -3 -2 o 2.538 3.057 180.00 1.52348 0.01
3 -1 2 o 3.261 3.941 180.00 1.47445 0.01
1 1 -5 o 0.047 0.037 180.00 1.52988 0.00
1 -1 5 o 4.648 6.622 180.00 1.52070 0.01
1 -3 -4 o 0.321 0.429 0.00 1.54187 0.00
3 0 3 o 1.017 1.698 0.00 1.46837 0.00
3 -1 -2 o 83.249 110.197 180.00 1.47175 0.23
0 3 -4 o 4.690 5.608 0.00 1.48879 0.01
1 5 1 o 20.080 22.224 0.00 1.47978 0.05
2 2 -4 o 8.804 13.916 0.00 1.46909 0.02
1 4 4 o 8.720 8.832 180.00 1.49366 0.02
2 1 5 o 9.323 16.613 0.00 1.46820 0.03
1 3 5 o 19.246 24.027 0.00 1.48663 0.05
1 3 -4 o 1.221 2.423 180.00 1.46735 0.00
1 -2 -5 o 263.544 289.558 180.00 1.49141 0.73
2 4 -2 o 26.839 42.906 180.00 1.44733 0.07
2 -3 2 o 54.171 84.853 180.00 1.45540 0.14
1 5 0 o 32.438 70.684 180.00 1.46319 0.09
3 3 3 o 1.538 5.088 0.00 1.41595 0.00
3 1 -3 o 24.860 49.568 180.00 1.42292 0.06
3 -2 0 o 5.095 13.363 0.00 1.42065 0.01
2 2 5 o 34.110 54.164 180.00 1.44738 0.09
0 3 5 o 120.723 145.409 0.00 1.48400 0.33
3 0 -3 o 4.838 9.094 0.00 1.42340 0.01
2 0 5 o 1.520 1.846 0.00 1.42997 0.00
0 4 4 o 13.418 14.537 0.00 1.47597 0.04
1 5 2 o 2.642 4.197 180.00 1.45225 0.01
0 2 -5 o 58.232 90.696 180.00 1.45686 0.15
1 -4 -3 o 2.992 7.573 0.00 1.46297 0.01
2 -2 -4 o 22.598 35.804 0.00 1.44704 0.06
3 4 1 o 6.085 5.704 180.00 1.38374 0.01
0 5 1 o 86.731 135.824 0.00 1.45343 0.23
1 -4 2 o 9.739 16.564 0.00 1.44332 0.02
0 5 0 o 74.293 127.600 180.00 1.44017 0.19
3 -2 -1 o 0.926 3.371 180.00 1.40677 0.00
1 4 -3 o 14.195 18.129 0.00 1.42956 0.04
3 -2 1 o 42.996 56.688 180.00 1.39544 0.10
3 3 -2 o 3.006 2.881 180.00 1.38414 0.01
3 4 0 o 20.061 17.606 0.00 1.37174 0.05
3 1 4 o 7.727 5.705 0.00 1.38014 0.02
0 4 -3 o 6.615 8.302 0.00 1.43069 0.02
2 -3 -3 o 18.413 23.117 180.00 1.42820 0.05
3 -1 3 o 68.643 56.182 0.00 1.37454 0.16
2 5 1 o 0.390 0.471 0.00 1.38881 0.00
3 2 4 o 17.941 16.262 0.00 1.37087 0.04
3 2 -3 o 16.114 14.186 0.00 1.36999 0.04
3 4 2 o 6.946 5.783 0.00 1.35960 0.02
1 2 -5 o 44.349 168.136 180.00 1.41855 0.11
0 5 2 o 0.109 0.166 0.00 1.42492 0.00
2 4 4 o 7.065 8.477 180.00 1.39224 0.02
1 5 -1 o 4.216 16.934 0.00 1.40666 0.01
0 1 6 o 0.568 1.224 180.00 1.42271 0.00
2 -2 4 o 22.008 17.053 180.00 1.38178 0.05
2 5 0 o 6.904 6.006 0.00 1.37293 0.02
0 0 6 o 0.700 3.885 180.00 1.41139 0.00
3 -1 -3 o 36.114 32.836 0.00 1.37126 0.08
2 5 2 o 1.934 1.635 0.00 1.36809 0.00
1 -3 4 o 146.426 176.275 0.00 1.39162 0.35
2 3 5 o 0.385 0.320 0.00 1.37444 0.00
1 1 6 o 4.754 5.654 0.00 1.39686 0.01
2 0 -5 o 0.170 0.161 180.00 1.38393 0.00
1 -2 5 o 6.685 4.947 0.00 1.38165 0.02
0 5 -1 o 7.628 9.642 0.00 1.38837 0.02
1 5 3 o 0.106 0.127 180.00 1.38739 0.00
3 -2 -2 o 9.331 8.227 180.00 1.35704 0.02
1 0 6 o 2.138 2.172 0.00 1.37190 0.00
2 1 -5 o 1.146 1.061 180.00 1.35783 0.00
1 2 6 o 29.028 30.947 0.00 1.37069 0.07
0 2 6 o 0.127 0.086 0.00 1.38058 0.00
2 -3 3 o 8.093 14.497 180.00 1.34579 0.02
2 -1 -5 o 53.289 43.102 0.00 1.36029 0.12
2 -1 5 o 33.756 76.215 180.00 1.34505 0.08
2 -4 0 o 1.835 3.679 180.00 1.34545 0.00
1 -3 -5 o 1.299 1.173 180.00 1.36824 0.00
0 5 3 o 14.279 10.117 180.00 1.36141 0.03
2 -4 -1 o 12.269 19.805 0.00 1.34656 0.03
0 1 -6 o 8.332 7.053 180.00 1.35021 0.02
1 4 5 o 6.396 24.346 0.00 1.34363 0.01
1 0 -6 o 13.177 22.350 180.00 1.34697 0.03
1 -4 -4 o 0.902 0.734 0.00 1.35045 0.00
1 -1 -6 o 40.337 188.184 0.00 1.34344 0.10
