#------------------------------------------------------------------------------
#$Date: 2016-11-04 03:10:44 +0200 (Fri, 04 Nov 2016) $
#$Revision: 187794 $
#$URL: file:///home/coder/svn-repositories/cod/cif/4/51/39/4513985.cif $
#------------------------------------------------------------------------------
#
# This file is available in the Crystallography Open Database (COD),
# http://www.crystallography.net/
#
# All data on this site have been placed in the public domain by the
# contributors.
#
data_4513985
loop_
_publ_author_name
'Lu, Zhiyao'
'Williams, Travis J.'
_publ_section_title
;
 Di(carbene)-Supported Nickel Systems for CO2Reduction Under Ambient
 Conditions
;
_journal_issue                   10
_journal_name_full               'ACS Catalysis'
_journal_page_first              6670
_journal_paper_doi               10.1021/acscatal.6b02101
_journal_volume                  6
_journal_year                    2016
_chemical_formula_moiety         'C16 H24 N8 Ni, 2(I)'
_chemical_formula_sum            'C16 H24 I2 N8 Ni'
_chemical_formula_weight         640.94
_chemical_name_common            Zhiyao100315
_space_group_crystal_system      triclinic
_space_group_IT_number           2
_space_group_name_Hall           '-P 1'
_space_group_name_H-M_alt        'P -1'
_symmetry_space_group_name_Hall  '-P 1'
_symmetry_space_group_name_H-M   'P -1'
_atom_sites_solution_hydrogens   mixed
_cell_angle_alpha                113.763(2)
_cell_angle_beta                 101.750(2)
_cell_angle_gamma                91.594(2)
_cell_formula_units_Z            1
_cell_length_a                   8.3462(2)
_cell_length_b                   8.4556(2)
_cell_length_c                   8.7960(2)
_cell_measurement_reflns_used    4907
_cell_measurement_temperature    100.(2)
_cell_measurement_theta_max      68.2152
_cell_measurement_theta_min      5.4552
_cell_volume                     552.02(2)
_computing_cell_refinement       'APEX3 v2016.1-0 (Bruker AXS, 2016)'
_computing_data_collection
'Bruker Instrument Service v2012.12.0.3 (Bruker AXS, 2012'
_computing_data_reduction        'SAINT V8.37A (Bruker AXS, 2013)'
_computing_molecular_graphics    'shelXle (C.B. Huebschle, rev 758)'
_computing_publication_material  'SHELXTL XL 2014/7 (Bruker AXS, 2014)'
_computing_structure_refinement  'SHELXTL XL 2014/7 (Bruker AXS, 2014)'
_computing_structure_solution    'SHELXTL XT 2014/4 (Bruker AXS, 2014)'
_diffrn_ambient_temperature      100.(2)
_diffrn_detector_area_resol_mean 8.3333
_diffrn_measured_fraction_theta_full 0.927
_diffrn_measured_fraction_theta_max 0.927
_diffrn_measurement_device_type  'Bruker APEX II CCD'
_diffrn_measurement_method       'omega- and phi-scans'
_diffrn_radiation_monochromator  'multi-layer optics'
_diffrn_radiation_type           'CuK\a '
_diffrn_radiation_wavelength     1.54184
_diffrn_reflns_av_R_equivalents  0.0448
_diffrn_reflns_av_unetI/netI     0.0400
_diffrn_reflns_limit_h_max       9
_diffrn_reflns_limit_h_min       -10
_diffrn_reflns_limit_k_max       10
_diffrn_reflns_limit_k_min       -10
_diffrn_reflns_limit_l_max       10
_diffrn_reflns_limit_l_min       -10
_diffrn_reflns_number            7157
_diffrn_reflns_theta_full        68.33
_diffrn_reflns_theta_max         68.33
_diffrn_reflns_theta_min         5.46
_diffrn_source                   'IuS microsource'
_exptl_absorpt_coefficient_mu    23.368
_exptl_absorpt_correction_T_max  0.65
_exptl_absorpt_correction_T_min  0.21
_exptl_absorpt_correction_type   multi-scan
_exptl_absorpt_process_details   'SADABS 2014/5 (Bruker AXS, 2014)'
_exptl_crystal_colour            'clear colourless'
_exptl_crystal_density_diffrn    1.928
_exptl_crystal_density_method    'not measured'
_exptl_crystal_description       prism
_exptl_crystal_F_000             310
_exptl_crystal_size_max          0.130
_exptl_crystal_size_mid          0.120
_exptl_crystal_size_min          0.020
_refine_diff_density_max         1.951
_refine_diff_density_min         -0.696
_refine_ls_extinction_method     none
_refine_ls_goodness_of_fit_ref   1.154
_refine_ls_hydrogen_treatment    mixed
_refine_ls_matrix_type           full
_refine_ls_number_parameters     132
_refine_ls_number_reflns         1874
_refine_ls_number_restraints     2
_refine_ls_restrained_S_all      1.153
_refine_ls_R_factor_all          0.0468
_refine_ls_R_factor_gt           0.0428
_refine_ls_shift/su_max          0.000
_refine_ls_shift/su_mean         0.000
_refine_ls_structure_factor_coef Fsqd
_refine_ls_weighting_details
'w=1/[\s^2^(Fo^2^)+(0.0762P)^2^+0.8108P] where P=(Fo^2^+2Fc^2^)/3'
_refine_ls_weighting_scheme      calc
_refine_ls_wR_factor_gt          0.1156
_refine_ls_wR_factor_ref         0.1189
_reflns_number_gt                1711
_reflns_number_total             1874
_reflns_threshold_expression     'I > 2\s(I)'
_cod_data_source_file            cs6b02101_si_006.cif
_cod_data_source_block           Zhiyao100315
_cod_database_code               4513985
_shelx_res_file
;


    cu_Zhiyao100315_0m_a.res created by SHELXL-2014/7


TITL cu_Zhiyao100315_0m_a.res in P-1
CELL  1.54184   8.3462   8.4556   8.7960  113.763  101.750   91.594
ZERR    1.000   0.0002   0.0002   0.0002    0.002    0.002    0.002
LATT  1
SFAC I NI C H N
UNIT 2 1 16 24 8
TEMP -173.130
SIZE 0.020 0.120 0.130
L.S. 10
ACTA
BOND $H
CONF
LIST 4
FMAP 2
PLAN 20
DFIX 0.9 N2 H1N N4 H2N
WGHT    0.076200    0.810800
FVAR       0.54292
I1    1    0.146787    0.243769   -0.019606    11.00000    0.03139    0.03054 =
         0.01771    0.00427    0.00244   -0.00180
NI1   2    0.500000    0.500000    0.500000    10.50000    0.01064    0.01304 =
         0.01446    0.00604    0.00395    0.00073
C1    3    0.599254    0.711616    0.514890    11.00000    0.01300    0.01576 =
         0.01896    0.00642    0.00460    0.00417
C2    3    0.683787    0.928617    0.450216    11.00000    0.02258    0.01730 =
         0.03553    0.01519    0.00620   -0.00308
AFIX  43
H2    4    0.695268    0.994662    0.386767    11.00000   -1.20000
AFIX   0
C3    3    0.756833    0.971393    0.613351    11.00000    0.01634    0.01565 =
         0.03569    0.00804    0.00387   -0.00361
AFIX  43
H3    4    0.830725    1.073011    0.688554    11.00000   -1.20000
AFIX   0
C4    3    0.486044    0.679986    0.218646    11.00000    0.02484    0.02702 =
         0.01627    0.00851    0.00264   -0.00025
AFIX 137
H4A   4    0.548419    0.683015    0.136551    11.00000   -1.50000
H4B   4    0.386993    0.737785    0.207314    11.00000   -1.50000
H4C   4    0.453901    0.558719    0.195789    11.00000   -1.50000
AFIX   0
C5    3    0.297944    0.597697    0.517440    11.00000    0.01631    0.01332 =
         0.01800    0.00704    0.00549    0.00004
C6    3    0.094694    0.747279    0.619696    11.00000    0.01332    0.02119 =
         0.03053    0.01139    0.00935    0.00613
AFIX  43
H6    4    0.035183    0.817476    0.698292    11.00000   -1.20000
AFIX   0
C7    3    0.045788    0.676648    0.450690    11.00000    0.01262    0.02517 =
         0.02786    0.01354    0.00296    0.00066
AFIX  43
H7    4   -0.055728    0.686244    0.384746    11.00000   -1.20000
AFIX   0
C8    3    0.340844    0.744404    0.834586    11.00000    0.02819    0.04538 =
         0.01481    0.00495    0.00482    0.01243
AFIX 137
H8A   4    0.338376    0.868136    0.904319    11.00000   -1.50000
H8B   4    0.455410    0.721561    0.835328    11.00000   -1.50000
H8C   4    0.290114    0.674109    0.881709    11.00000   -1.50000
AFIX   0
N1    5    0.587536    0.769121    0.390141    11.00000    0.01541    0.01996 =
         0.02161    0.01013    0.00322   -0.00031
N2    5    0.703358    0.837768    0.651420    11.00000    0.01657    0.01887 =
         0.01980    0.00866   -0.00073    0.00073
N3    5    0.249449    0.698844    0.659450    11.00000    0.01656    0.01868 =
         0.01732    0.00610    0.00380    0.00241
H1N   4    0.731997    0.816246    0.744447    11.00000   -1.20000
N4    5    0.170276    0.586813    0.389189    11.00000    0.01306    0.02309 =
         0.01843    0.00984    0.00249    0.00090
H2N   4    0.164412    0.532327    0.277441    11.00000   -1.20000
HKLF 4

REM  cu_Zhiyao100315_0m_a.res in P-1
REM R1 =  0.0428 for    1711 Fo > 4sig(Fo)  and  0.0468 for all    1874 data
REM    132 parameters refined using      2 restraints

END

WGHT      0.0762      0.8108

REM Highest difference peak  1.951,  deepest hole -0.696,  1-sigma level  0.227
Q1    1   0.2287  0.1971  0.0265  11.00000  0.05    1.95
Q2    1   0.0911  0.3440 -0.0196  11.00000  0.05    1.84
Q3    1   0.1485  0.3169  0.0962  11.00000  0.05    0.79
Q4    1   0.0000  0.5000  0.0000  10.50000  0.05    0.79
Q5    1   0.1691  0.7328  0.6299  11.00000  0.05    0.69
Q6    1   0.5579  0.7506  0.4584  11.00000  0.05    0.66
Q7    1   0.2971  0.7214  0.7561  11.00000  0.05    0.66
Q8    1   0.1569  0.1725 -0.1125  11.00000  0.05    0.65
Q9    1   0.7440  0.9141  0.4894  11.00000  0.05    0.64
Q10   1   0.6720  0.7440  0.5401  11.00000  0.05    0.64
Q11   1   0.1108  0.2321  0.0593  11.00000  0.05    0.64
Q12   1   0.2525  0.6391  0.5726  11.00000  0.05    0.58
Q13   1   0.0446  0.6695  0.5149  11.00000  0.05    0.58
Q14   1  -0.0551  0.3773 -0.0551  11.00000  0.05    0.58
Q15   1   0.0568  0.1949 -0.0429  11.00000  0.05    0.55
Q16   1   0.8086  1.0682  0.7447  11.00000  0.05    0.55
Q17   1   0.5533  0.7102  0.3073  11.00000  0.05    0.54
Q18   1   0.1249  0.6614  1.0046  11.00000  0.05    0.48
Q19   1   0.0772  0.9462  0.7908  11.00000  0.05    0.46
Q20   1   0.8434  0.9183  0.6989  11.00000  0.05    0.45
;
_shelx_res_checksum              64634
_shelx_hkl_file
;
  -1   0   0   40.81    2.66
  -1   0   0   35.91    3.86
   1   0   0   38.22    3.46
  -2   0   0  305.41   16.86
  -2   0   0  295.77   14.22
   2   0   0  302.24   15.36
  -3   0   0 1793.41   80.55
   3   0   0 1827.04   85.93
   3   0   0 1896.02   82.24
   4   0   0  369.70   20.46
   4   0   0  285.20   24.77
  -5   0   0  332.55   31.63
   5   0   0  266.83   19.13
   5   0   0  208.26   23.72
  -6   0   0  470.73   27.32
  -6   0   0  454.30   27.82
  -6   0   0  500.58   42.79
  -6   0   0  461.00   31.69
  -6   0   0  517.20   38.99
   6   0   0  445.64   36.85
  -7   0   0  327.39   26.46
  -7   0   0  329.77   33.59
  -7   0   0  298.36   37.99
  -7   0   0  333.51   21.90
  -7   0   0  298.78   21.91
  -8   0   0   90.85   13.23
  -8   0   0  105.25   16.75
  -8   0   0   79.32   17.77
  -8   0   0   95.81   12.74
  -9   0   0  153.84   16.78
  -9   0   0  150.72   12.86
  -9   0   0  165.20   13.07
   9   0   0   94.23   19.44
  -9   1   0  246.29   17.05
  -9   1   0  257.27   22.08
  -9   1   0  230.47   16.88
  -8   1   0  243.25   30.33
  -8   1   0  263.83   20.15
  -8   1   0  281.47   25.04
  -8   1   0  290.04   19.87
  -8   1   0  213.15   38.34
  -7   1   0   53.64   10.35
  -7   1   0   48.11   11.88
  -7   1   0   30.06   11.94
  -7   1   0   42.93    8.81
   6  -1   0  621.23   35.53
   6  -1   0  542.71   42.80
  -6   1   0  615.82   32.40
  -6   1   0  604.52   37.87
  -6   1   0  619.02   42.50
  -6   1   0  601.21   47.43
  -6   1   0  601.97   33.20
   5  -1   0  644.02   42.42
   5  -1   0  704.06   36.42
  -5   1   0  701.68   48.15
   4  -1   0 1315.32   61.26
  -4   1   0 1314.07   63.45
  -4   1   0 1351.18   69.90
   3  -1   0 1351.90   57.94
  -3   1   0 1314.61   59.69
  -3   1   0 1191.14   57.29
  -2   1   0   88.01    6.35
  -2   1   0   63.19    6.41
  -2   1   0   82.07    7.80
   1  -1   0 2135.95   94.75
  -1   1   0 2258.14   94.90
  -1   1   0 2182.08   95.66
   0  -1   0  339.43   15.65
   0   1   0  356.41   15.72
   0   1   0  328.49   15.89
  -1  -1   0  662.14   28.68
   1   1   0  575.99   29.09
   1   1   0  661.25   29.42
  -2  -1   0 2895.87  118.91
   2   1   0 2573.80  120.93
   2   1   0 2708.95  120.34
  -3  -1   0    6.32    3.33
   3   1   0    7.01    8.13
   3   1   0   14.85    6.08
   5   1   0 1388.44   68.23
   5   1   0 1377.78   70.94
  -6  -1   0  108.00   12.28
  -6  -1   0  103.82   21.60
  -6  -1   0  101.97   15.28
  -6  -1   0  115.87   11.88
  -6  -1   0   91.72   12.77
   6   1   0   87.28   10.20
  -8  -1   0  494.02   29.39
  -8  -1   0  507.26   44.21
  -8  -1   0  524.43   29.17
  -8  -1   0  503.96   33.33
  -9  -1   0    7.58    5.16
  -9  -1   0   10.92    6.41
  -9  -1   0   12.41    5.55
   9   1   0   11.40   14.88
  -9   2   0   15.71    8.56
  -9   2   0    9.66    5.91
  -9   2   0   20.73    6.80
  -8   2   0   -5.00    5.00
  -8   2   0   10.09    6.60
  -8   2   0   -5.86    6.34
  -8   2   0    2.48    8.33
  -7   2   0  346.58   23.80
  -7   2   0  398.91   30.42
  -7   2   0  330.23   22.49
  -7   2   0  334.61   42.03
  -6   2   0  106.91   13.43
  -6   2   0  101.91   23.13
  -6   2   0  100.87   16.96
  -6   2   0  101.20   11.21
   5  -2   0   15.62    5.72
  -5   2   0   26.32    8.26
   4  -2   0 2246.81  100.80
  -4   2   0 2183.22  109.75
  -4   2   0 2325.59  103.22
   3  -2   0  153.93    9.14
  -3   2   0  169.75   13.05
  -3   2   0  157.79   10.30
   2  -2   0  152.85    8.87
  -2   2   0  155.89    9.75
  -2   2   0  167.83   11.50
   1  -2   0   23.03    3.58
  -1   2   0   25.62    5.37
  -1   2   0   21.04    3.58
   0  -2   0 3964.26  179.35
   0   2   0 4283.62  179.41
   0   2   0 4188.45  179.90
  -1  -2   0 4052.91  172.04
   1   2   0 3915.10  172.55
   1   2   0 3922.39  172.27
  -2  -2   0  119.71    8.74
   2   2   0  111.63   10.12
   2   2   0  118.31    9.86
  -3  -2   0  932.92   44.34
   3   2   0  964.57   46.70
   3   2   0  946.78   47.08
  -4  -2   0 1368.65   65.77
   4   2   0 1451.20   70.11
   4   2   0 1473.78   69.14
   5   2   0   25.17    8.50
   5   2   0   19.76   10.69
  -6  -2   0    9.27    7.30
  -6  -2   0    7.85    6.65
  -6  -2   0   13.70    6.65
  -6  -2   0   13.28   12.68
   6   2   0   10.56    5.92
  -7  -2   0  778.99   45.78
  -7  -2   0  823.60   42.24
  -7  -2   0  805.89   58.39
  -7  -2   0  764.72   42.17
   7   2   0  805.26   41.16
  -8  -2   0   47.65    8.28
  -8  -2   0   70.13    9.42
  -8  -2   0   61.01   10.56
   8   2   0   41.87   15.40
   8   2   0   63.85    9.17
  -9  -2   0    7.10    4.57
  -9  -2   0   11.01    4.56
  -9   3   0  -19.57   10.95
  -9   3   0   25.83    6.81
  -9   3   0   29.42    6.50
  -8   3   0  503.48   28.68
  -8   3   0  468.23   28.99
  -8   3   0  504.37   36.24
  -7   3   0   13.80   10.38
  -7   3   0   21.88    7.26
  -7   3   0   18.84    7.99
  -6   3   0   23.61    5.75
  -6   3   0   30.47    8.28
  -6   3   0   20.81    6.45
  -6   3   0   15.56    9.85
   5  -3   0 1312.30   59.45
  -5   3   0 1138.01   69.07
   4  -3   0  860.99   41.46
  -4   3   0  812.12   43.15
  -3   3   0   39.97    6.10
  -3   3   0   45.15    8.60
   2  -3   0 1804.50   82.29
  -2   3   0 1865.55   84.31
  -2   3   0 1912.38   82.91
   1  -3   0  597.18   28.64
  -1   3   0  627.10   28.71
  -1   3   0  563.64   29.47
   0  -3   0    2.38    3.05
   0   3   0    1.47    3.43
   0   3   0    2.90    4.58
  -1  -3   0 1607.69   73.11
   1   3   0 1571.51   73.29
   1   3   0 1696.09   74.12
  -2  -3   0  885.42   41.06
   2   3   0  875.47   42.20
   2   3   0  800.49   41.45
  -3  -3   0  790.09   38.85
   3   3   0  793.93   41.20
   3   3   0  777.53   40.27
  -4  -3   0  606.76   30.78
   4   3   0  491.54   31.88
   4   3   0  583.85   34.46
  -5  -3   0  416.15   26.50
  -5  -3   0  415.17   25.62
   5   3   0  406.97   24.23
  -6  -3   0  564.22   34.16
  -6  -3   0  689.75   53.08
   6   3   0  565.79   32.89
  -7  -3   0    8.70    6.38
  -7  -3   0   14.83    7.09
   7   3   0   11.98    7.03
   7   3   0   -6.14   12.76
  -8  -3   0  323.56   19.25
  -8  -3   0  297.78   19.49
   8   3   0  320.97   20.16
  -9   4   0   94.24    9.74
  -9   4   0   80.70    9.93
  -8   4   0   68.36   21.42
  -8   4   0  147.76   13.46
  -8   4   0  135.71   14.15
  -7   4   0  116.34   11.56
  -7   4   0   53.98   15.56
  -7   4   0  103.58   12.27
  -7   4   0  104.40   14.00
  -6   4   0  255.87   15.94
  -6   4   0  250.58   17.77
  -6   4   0  185.04   25.41
  -6   4   0  245.18   18.70
  -5   4   0   65.52    8.14
  -5   4   0   65.11   13.84
  -5   4   0   59.38    8.67
  -5   4   0   53.34    7.73
  -5   4   0   53.50    8.72
  -5   4   0   41.39    8.09
  -4   4   0  408.61   22.14
  -4   4   0  397.20   23.16
  -4   4   0  402.90   25.80
  -3   4   0 1445.37   65.42
  -3   4   0 1381.10   66.13
  -3   4   0 1468.80   68.46
   2  -4   0   14.98    4.12
  -2   4   0   11.13    4.32
  -2   4   0    7.13    5.82
   1  -4   0   35.71    5.74
  -1   4   0   35.62    7.55
  -1   4   0   41.46    6.52
   0  -4   0 2623.84  119.89
   0   4   0 2773.15  120.20
   0   4   0 2690.57  120.69
  -1  -4   0  151.87   11.84
   1   4   0  143.50   12.96
   1   4   0  157.06   12.42
  -2  -4   0   59.40    8.82
   2   4   0   47.27    8.32
  -3  -4   0 1127.05   55.25
   3   4   0 1137.62   56.57
  -4  -4   0  350.47   24.87
  -4  -4   0  389.97   23.92
   4   4   0  353.72   20.19
   4   4   0  381.59   22.40
  -5  -4   0    2.81    7.26
  -5  -4   0   10.22    6.68
   5   4   0    9.58    6.36
   5   4   0    9.55    4.81
   5   4   0    0.16   13.59
  -6  -4   0  140.62   15.89
  -6  -4   0  147.72   15.62
   6   4   0  157.00   16.39
   6   4   0  273.69   44.02
  -7  -4   0  116.10   12.66
  -7  -4   0  121.63   13.36
   7   4   0  136.78   14.83
   7   4   0  224.34   44.35
  -8  -4   0  180.43   12.33
  -8  -4   0  177.34   11.86
   8   4   0  137.03   22.09
   8   4   0  189.88   13.57
  -7   5   0  136.81   14.64
  -7   5   0  172.57   38.39
  -7   5   0  121.55   11.52
  -7   5   0  121.75   13.76
  -6   5   0   79.18   33.49
  -6   5   0   96.45   13.04
  -6   5   0  103.65   11.18
  -6   5   0  101.33   13.14
  -5   5   0  113.26   12.44
  -5   5   0  115.52   10.58
  -5   5   0  116.28   12.95
  -5   5   0  122.85   13.21
  -5   5   0  122.18   11.22
  -4   5   0  718.56   34.77
  -4   5   0  655.01   35.00
  -4   5   0  686.97   32.88
  -4   5   0  671.23   34.09
  -4   5   0  654.73   32.44
  -4   5   0  643.77   35.64
  -3   5   0  135.59   11.54
  -3   5   0  113.19   11.30
  -3   5   0  122.96   11.24
  -3   5   0  124.77   10.14
  -3   5   0  131.73   15.43
  -2   5   0   96.36    9.15
  -2   5   0   91.43    9.96
   1  -5   0 1088.69   54.48
  -1   5   0 1177.08   55.02
  -1   5   0 1140.92   53.25
   0  -5   0   13.74    5.38
   0   5   0    8.11    4.07
   0   5   0    6.30    5.23
  -1  -5   0   96.60   11.29
   1   5   0  103.24   11.23
   1   5   0  102.08    9.85
  -2  -5   0 1256.66   57.88
  -2  -5   0 1072.47   58.61
   2   5   0 1105.84   53.26
   2   5   0 1156.74   57.41
   2   5   0 1158.43   57.72
  -3  -5   0   69.80   10.68
  -3  -5   0   91.82   12.76
   3   5   0   92.61   11.75
   3   5   0   81.91    9.42
  -4  -5   0   19.90    8.54
  -4  -5   0   19.39    7.47
   4   5   0    7.85    5.47
   4   5   0   18.22    7.70
  -5  -5   0  433.15   28.09
  -5  -5   0  460.91   27.73
   5   5   0  430.62   24.56
   5   5   0  461.72   28.03
  -6  -5   0   80.96   11.94
  -6  -5   0   89.96   12.00
   6   5   0   87.89   11.88
  -7  -5   0   61.75    8.73
  -7  -5   0   58.01    8.01
   7   5   0   50.34    8.58
  -8   6   0    0.86    4.98
  -8   6   0    0.21    5.57
  -7   6   0  314.42   19.68
  -7   6   0  288.32   17.36
  -7   6   0  291.75   19.20
  -6   6   0  119.35   11.86
  -6   6   0  107.42   13.90
  -6   6   0  108.12   11.29
  -6   6   0  110.25   13.24
  -6   6   0  105.89    9.97
  -5   6   0   18.54    5.65
  -5   6   0   22.53    6.66
  -5   6   0   13.89    5.81
  -5   6   0   21.27    7.70
  -5   6   0   20.58    6.82
  -5   6   0   11.70    7.54
  -4   6   0  703.78   36.56
  -4   6   0  660.38   36.85
  -4   6   0  713.72   34.78
  -4   6   0  693.40   34.34
  -4   6   0  742.89   36.13
  -4   6   0  685.85   37.84
  -3   6   0  185.23   16.42
  -3   6   0  174.06   14.77
  -3   6   0  172.65   15.82
  -3   6   0  167.62   13.02
  -3   6   0  178.56   14.92
  -3   6   0  176.44   14.13
  -3   6   0  180.03   12.78
  -2   6   0  382.96   21.95
  -2   6   0  365.30   20.24
  -2   6   0  422.15   22.98
  -2   6   0  358.26   23.82
  -2   6   0  369.83   22.87
  -2   6   0  350.05   22.41
  -2   6   0  361.54   20.62
  -1   6   0  148.80   14.63
  -1   6   0  126.05   11.96
  -1   6   0  112.50   12.63
  -1   6   0  114.49   11.98
  -1   6   0  132.16   12.53
  -1   6   0  121.93   10.31
  -1   6   0  120.42   11.52
  -1   6   0  119.41   10.20
   0  -6   0  407.91   25.69
   0   6   0  356.76   22.10
   0   6   0  383.72   23.14
   0   6   0  412.51   21.06
   0   6   0  399.39   21.48
   0   6   0  410.58   23.21
   0   6   0  421.03   25.93
   0   6   0  385.23   22.91
  -1  -6   0  603.82   36.06
   1   6   0  628.14   35.18
   1   6   0  647.67   36.87
   1   6   0  697.22   34.25
   1   6   0  683.81   33.35
   1   6   0  633.88   34.13
  -2  -6   0   52.04   10.41
  -2  -6   0   71.78   12.17
   2   6   0   67.92    8.77
   2   6   0   76.01   10.16
   2   6   0   55.79    8.61
   2   6   0   76.68   10.97
  -3  -6   0  215.65   19.02
  -3  -6   0  189.05   19.25
   3   6   0  216.55   15.45
   3   6   0  199.81   17.08
  -4  -6   0  818.93   45.33
  -4  -6   0  878.18   44.99
   4   6   0  846.30   44.59
   4   6   0  871.49   42.30
  -5  -6   0    7.81    6.46
  -5  -6   0    8.86    6.56
   5   6   0    1.13    6.78
   5   6   0    0.53    5.05
  -6  -6   0   40.12    6.63
  -6  -6   0   30.42    6.59
   6   6   0   36.57    7.90
  -7   7   0    1.10    4.67
  -7   7   0    3.74    4.47
  -6   7   0    1.45    4.21
  -6   7   0    1.45    5.12
  -6   7   0    5.01    5.33
  -6   7   0    0.64    5.91
  -6   7   0    2.81    4.84
  -5   7   0  226.63   16.93
  -5   7   0  257.31   16.35
  -5   7   0  233.47   16.73
  -5   7   0  235.67   15.37
  -5   7   0  241.33   15.28
  -5   7   0  230.57   18.45
  -4   7   0  149.37   15.61
  -4   7   0  110.62   13.43
  -4   7   0  123.37   13.11
  -4   7   0  127.31   13.04
  -4   7   0  151.48   12.12
  -4   7   0  153.78   12.15
  -3   7   0    9.00    6.59
  -3   7   0    0.91    5.09
  -3   7   0    4.25    7.22
  -3   7   0   -4.53    4.71
  -3   7   0   -1.26    6.71
  -3   7   0    2.04    5.89
  -3   7   0    1.37    6.24
  -2   7   0  603.37   31.81
  -2   7   0  585.85   30.15
  -2   7   0  607.10   34.16
  -2   7   0  570.12   32.08
  -2   7   0  582.07   29.96
  -2   7   0  548.05   31.64
  -2   7   0  588.14   32.74
   1  -7   0  100.20   13.30
  -1   7   0   99.21   11.53
  -1   7   0   88.88   11.19
  -1   7   0   64.11    8.09
  -1   7   0   83.18   11.35
  -1   7   0   86.49    9.55
  -1   7   0   90.66   11.57
  -1   7   0   82.53   12.58
   0  -7   0   51.80   10.99
   0   7   0   39.02    8.20
   0   7   0   37.39    8.37
   0   7   0   42.07   10.31
   0   7   0   48.77    7.49
   0   7   0   41.35    6.50
   0   7   0   38.50    8.10
   0   7   0   33.22    7.27
  -1  -7   0  137.96   16.60
   1   7   0  133.53   16.90
   1   7   0  147.45   13.79
   1   7   0  130.57   13.30
   1   7   0  164.78   14.84
  -2  -7   0  128.71   16.69
  -2  -7   0  148.86   16.89
   2   7   0  142.48   14.17
   2   7   0  125.92   12.73
   2   7   0  138.90   13.25
  -3  -7   0  292.45   20.56
  -3  -7   0  227.07   20.51
   3   7   0  244.55   18.20
   3   7   0  304.19   18.43
  -4  -7   0   83.16   11.78
  -4  -7   0   80.65   10.51
   4   7   0   85.94    9.50
   4   7   0   74.00    9.79
  -5  -7   0   71.41    8.92
   5   7   0   65.65    8.68
   5   7   0   68.45    7.74
  -5   8   0    2.74    4.43
  -5   8   0   -1.14    5.26
  -5   8   0   -2.74    4.91
  -5   8   0    0.87    4.23
  -4   8   0   57.53    8.17
  -4   8   0   50.09    6.96
  -4   8   0   65.32    9.71
  -4   8   0   61.44    8.77
  -4   8   0   59.35    7.47
  -3   8   0  329.62   18.91
  -3   8   0  335.32   22.05
  -3   8   0  351.32   20.19
  -3   8   0  281.34   20.16
  -3   8   0  284.56   21.42
  -3   8   0  343.40   19.21
  -2   8   0   19.90    8.12
  -2   8   0   32.12    7.82
  -2   8   0   33.80    8.56
  -2   8   0   23.50    5.86
  -2   8   0   18.35    6.71
  -2   8   0   20.17    6.05
  -1   8   0    2.70    5.96
  -1   8   0   -0.21    4.58
  -1   8   0    0.30    4.88
  -1   8   0    0.87    6.78
  -1   8   0   -9.90    5.65
  -1   8   0   13.33    6.97
  -1   8   0   -7.10    4.91
   0   8   0  267.46   16.88
   0   8   0  262.59   17.72
   0   8   0  284.96   19.65
   0   8   0  211.99   16.33
   0   8   0  281.58   20.87
   0   8   0  264.40   16.24
  -1  -8   0  115.07   14.67
   1   8   0  120.68   13.34
   1   8   0  113.09   11.14
   1   8   0  108.28   11.36
  -2  -8   0   23.16    7.02
   2   8   0   31.95    6.35
   2   8   0   32.48    7.30
  -3  -8   0  194.38   14.47
   3   8   0  194.03   12.94
  -3   9   0    9.61    4.83
  -3   9   0    2.93    3.73
  -3   9   0    5.66    5.50
  -3   9   0    5.38    3.81
  -3   9   0   -4.44    7.67
  -2   9   0  112.24    9.07
  -2   9   0   95.08    8.73
  -2   9   0  111.93   11.38
  -2   9   0  101.94   10.80
  -2   9   0  108.63    9.56
   1  -9   0  310.63   19.53
  -1   9   0  289.20   18.58
  -1   9   0  321.42   17.05
  -1   9   0  283.15   15.87
  -1   9   0  295.88   16.48
   0  -9   0    5.80    5.22
   0   9   0    4.15    3.82
   0   9   0   -3.60    4.94
   0   9   0   -0.58    3.78
  -1  -9   0   26.99    5.69
   1   9   0   14.66    5.38
   1   9   0   28.24    5.63
   2   9  -1  120.31    8.80
   2   9  -1  105.14   10.04
  -2  -9   1  105.74   10.23
  -2  -9   1   85.44   11.70
   1   9  -1  103.35   11.25
   1   9  -1  112.91    9.28
  -1  -9   1   91.11   11.77
  -1  -9   1  110.51   12.16
   0   9  -1  120.35   12.30
   0   9  -1  109.46   10.37
   0   9  -1  113.42    9.32
   0  -9   1  130.34   13.97
   0  -9   1  106.55   12.93
  -1   9  -1   35.91    7.70
  -1   9  -1   33.72    5.68
  -1   9  -1   33.61    5.53
  -1   9  -1   47.27    8.98
  -1   9  -1   42.82    6.87
   1  -9   1   41.12    8.47
  -2   9  -1  120.72   13.42
  -2   9  -1   92.96   11.72
  -2   9  -1  106.46    9.44
  -2   9  -1  103.17   10.56
  -2   9  -1  109.36    9.38
  -2   9  -1   87.41   12.78
   2  -9   1  110.53   12.70
  -3   9  -1    1.30    4.07
  -3   9  -1   -1.50    6.15
  -3   9  -1    1.16    3.94
  -3   9  -1   -4.40    4.51
  -3   9  -1   -3.10    5.36
   3  -9   1    1.27    5.60
  -4   9  -1   28.05    4.79
  -4   9  -1   19.41    4.49
  -4   9  -1   25.75    6.48
  -4   9  -1   21.14    5.13
   4  -9   1   23.46    9.05
   4   8  -1  161.81   12.35
  -4  -8   1  191.71   13.85
  -4  -8   1  185.87   14.19
   3   8  -1   64.72    8.67
   3   8  -1   59.46    7.91
  -3  -8   1   70.49   11.16
  -3  -8   1   75.61   10.43
   2   8  -1   54.14    7.79
   2   8  -1   62.93    9.08
  -2  -8   1   68.38   11.76
  -2  -8   1   58.71   10.80
   1   8  -1  203.47   15.59
   1   8  -1  192.05   14.73
  -1  -8   1  177.97   18.46
  -1  -8   1  147.57   17.52
   0   8  -1  327.19   20.52
   0   8  -1  339.90   21.51
   0   8  -1  315.07   18.36
   0   8  -1  293.86   19.70
   0   8  -1  318.88   23.60
   0  -8   1  322.62   23.73
  -1   8  -1  145.44   14.57
  -1   8  -1  118.34   15.40
  -1   8  -1  135.33   11.44
  -1   8  -1  124.25   11.35
  -1   8  -1  124.80   12.59
  -1   8  -1  115.82   12.68
   1  -8   1  121.21   15.04
  -2   8  -1  181.49   13.41
  -2   8  -1  180.10   15.10
  -2   8  -1  189.93   13.54
  -2   8  -1  186.18   14.94
  -2   8  -1  174.30   15.69
  -2   8  -1  187.10   16.08
  -2   8  -1  188.54   17.80
  -3   8  -1   29.70    6.12
  -3   8  -1   40.81    9.31
  -3   8  -1   21.46    7.45
  -3   8  -1   27.19    7.06
  -3   8  -1   22.60    5.78
  -3   8  -1   19.37    7.64
  -3   8  -1   33.90    7.64
  -4   8  -1  108.72   12.83
  -4   8  -1  101.01   13.40
  -4   8  -1  127.27   11.69
  -4   8  -1   94.34   11.07
  -4   8  -1  134.30   10.42
  -4   8  -1  122.12   10.70
  -5   8  -1    2.52    5.38
  -5   8  -1    8.17    5.30
  -5   8  -1    1.69    5.84
  -5   8  -1    7.03    4.95
  -5   8  -1    6.44    4.39
  -5   8  -1    3.87    4.29
  -6   8  -1    8.63    3.99
  -6   8  -1   20.56    5.58
  -6   8  -1   17.07    6.04
  -6   8  -1   15.56    4.58
   6   7  -1   96.19    9.95
  -6  -7   1  110.55    9.42
   5   7  -1  333.51   19.26
   5   7  -1  310.28   20.27
  -5  -7   1  364.26   21.25
  -5  -7   1  335.71   20.99
   4   7  -1    2.14    6.31
   4   7  -1    6.18    5.20
  -4  -7   1   -3.48    5.83
  -4  -7   1   -1.69    7.30
   3   7  -1   28.50    6.74
   3   7  -1   17.30    6.72
  -3  -7   1   28.98    8.97
  -3  -7   1   22.12    9.64
   2   7  -1  460.21   26.05
   2   7  -1  467.04   25.16
  -2  -7   1  453.48   29.96
  -2  -7   1  412.29   29.11
   1   7  -1  145.98   13.98
   1   7  -1  163.90   17.13
   1   7  -1  159.64   11.59
   1   7  -1  160.91   14.08
   1   7  -1  150.00   12.93
  -1  -7   1  120.31   16.54
   0   7  -1    1.75    6.76
   0   7  -1    0.89    5.61
   0   7  -1   -7.70    4.97
   0   7  -1   -3.65    3.90
   0   7  -1   -6.70    4.86
   0   7  -1    1.30    4.07
   0   7  -1   -2.88    4.58
   0  -7   1   -4.78    7.00
  -1   7  -1  761.35   39.20
  -1   7  -1  774.10   37.75
  -1   7  -1  797.37   37.58
  -1   7  -1  770.10   39.51
  -1   7  -1  755.74   40.28
  -1   7  -1  774.60   41.96
  -1   7  -1  813.02   40.05
  -2   7  -1  223.36   14.76
  -2   7  -1  218.89   16.00
  -2   7  -1  207.44   18.64
  -2   7  -1  219.42   16.76
  -2   7  -1  232.21   17.16
  -2   7  -1  234.10   14.57
  -2   7  -1  194.86   17.23
  -3   7  -1   20.17    7.71
  -3   7  -1   33.80    7.66
  -3   7  -1   46.10    8.36
  -3   7  -1   32.83    9.70
  -3   7  -1   35.38    8.71
  -3   7  -1   35.98    6.22
  -3   7  -1   25.67    5.85
  -4   7  -1  242.40   18.15
  -4   7  -1  280.74   16.76
  -4   7  -1  282.04   21.17
  -4   7  -1  278.92   18.15
  -4   7  -1  278.90   20.19
  -4   7  -1  238.19   16.05
  -5   7  -1  187.55   14.55
  -5   7  -1  179.25   17.18
  -5   7  -1  165.80   14.21
  -5   7  -1  181.98   12.84
  -5   7  -1  176.19   16.87
  -5   7  -1  179.73   13.07
  -6   7  -1  189.89   15.94
  -6   7  -1  178.47   11.95
  -6   7  -1  153.80   13.08
  -6   7  -1  168.77   13.20
  -6   7  -1  175.92   15.78
  -7   7  -1   33.22    6.99
  -7   7  -1   23.90    6.60
  -7   7  -1   26.95    5.47
   7   6  -1   96.91   10.06
  -7  -6   1  101.00    9.24
   6   6  -1  182.83   15.36
   6   6  -1  180.83   12.46
  -6  -6   1  163.28   14.39
  -6  -6   1  159.40   14.73
   5   6  -1  113.34   11.44
   5   6  -1   95.61   12.31
  -5  -6   1  118.53   16.16
  -5  -6   1   87.67   13.33
   4   6  -1  211.11   17.76
   4   6  -1  252.25   16.06
  -4  -6   1  210.38   18.50
  -4  -6   1  213.00   20.97
   3   6  -1  492.04   25.75
   3   6  -1  465.85   26.14
   3   6  -1  466.26   27.49
  -3  -6   1  487.63   30.20
  -3  -6   1  453.22   30.09
   2   6  -1    7.71    5.14
   2   6  -1   11.54    7.48
   2   6  -1   17.59    5.23
  -2  -6   1    9.45    8.26
   1   6  -1   44.95    7.20
   1   6  -1   74.24    9.55
   1   6  -1   64.08   10.91
   1   6  -1   49.63    5.98
   1   6  -1   55.27    7.43
  -1  -6   1   65.85   11.35
   0   6  -1  819.47   38.71
   0   6  -1  845.44   39.69
   0   6  -1  827.75   41.19
   0   6  -1  791.55   38.90
   0   6  -1  811.46   38.05
   0   6  -1  713.78   45.81
   0   6  -1  764.52   39.50
   0   6  -1  805.39   42.31
   0   6  -1  831.48   39.91
   0  -6   1  818.83   41.80
  -1   6  -1  149.22   13.61
  -1   6  -1  140.79   10.83
  -1   6  -1  130.03   13.91
  -1   6  -1  150.95   10.55
  -1   6  -1  132.93   11.64
  -1   6  -1  148.88   12.24
  -1   6  -1  133.64   14.01
  -1   6  -1  136.46   12.08
  -2   6  -1   28.16    7.42
  -2   6  -1   35.09    5.98
  -2   6  -1   38.06    7.54
  -2   6  -1   21.32    4.88
  -2   6  -1   30.38    7.74
  -2   6  -1   38.20    7.40
  -2   6  -1   37.17    7.21
  -3   6  -1  632.85   31.10
  -3   6  -1  624.10   30.73
  -3   6  -1  603.22   34.12
  -3   6  -1  631.32   34.20
  -3   6  -1  646.51   33.25
  -3   6  -1  604.23   32.08
  -5   6  -1    3.97    4.69
  -5   6  -1   11.24    6.08
  -5   6  -1    7.77    7.02
  -5   6  -1    7.88    8.08
  -5   6  -1    0.52    5.58
   8   5  -1   20.42    5.50
  -8  -5   1   22.00    5.05
   7   5  -1  129.40   13.21
  -7  -5   1  134.76   12.30
  -7  -5   1  118.62   12.90
   6   5  -1  344.24   22.46
   6   5  -1  306.97   18.69
  -6  -5   1  338.98   23.23
  -6  -5   1  304.75   21.73
   5   5  -1  344.81   21.95
   5   5  -1  318.93   19.52
  -5  -5   1  328.25   24.90
  -5  -5   1  314.61   22.91
   4   5  -1  282.54   19.00
   4   5  -1  279.92   17.26
  -4  -5   1  282.78   20.82
  -4  -5   1  289.90   23.04
   3   5  -1  421.59   25.92
   3   5  -1  394.67   22.97
   3   5  -1  391.53   21.17
  -3  -5   1  362.62   28.13
  -3  -5   1  396.79   26.22
  -3  -5   1  403.44   25.84
   2   5  -1  344.37   24.69
   2   5  -1  364.82   22.23
  -2  -5   1  331.17   21.48
   1   5  -1  434.90   26.57
   1   5  -1  418.20   23.96
  -1  -5   1  405.31   23.81
   0   5  -1   72.54    8.00
   0   5  -1   73.74    9.19
   0   5  -1   71.42   11.65
   0  -5   1   82.13    9.01
  -1   5  -1  148.79   11.68
  -1   5  -1  170.52   16.26
  -1   5  -1  174.36   12.65
   1  -5   1  176.69   12.23
  -2   5  -1 2077.42   93.61
  -2   5  -1 2157.16   98.00
  -2   5  -1 2008.06   94.38
  -3   5  -1   37.28    9.76
  -3   5  -1   34.57    6.36
  -3   5  -1   27.75    6.07
  -4   5  -1   40.69    6.79
  -4   5  -1   35.37    8.05
  -4   5  -1   58.92    8.73
  -4   5  -1   41.17    6.80
  -4   5  -1   53.31    6.36
  -4   5  -1   51.71    6.34
  -5   5  -1  771.66   39.13
  -5   5  -1  818.67   41.77
  -5   5  -1  677.86   68.27
  -5   5  -1  785.22   37.43
  -5   5  -1  783.94   38.52
  -5   5  -1  743.15   40.33
  -6   5  -1  117.99   13.93
  -6   5  -1  128.70   33.37
  -6   5  -1  119.71   12.30
  -6   5  -1  119.88   16.22
  -6   5  -1  119.77   11.62
  -6   5  -1  133.83   13.45
  -7   5  -1   33.55    7.13
  -7   5  -1   35.86    9.35
  -7   5  -1   25.46    7.74
   8   4  -1    5.72    5.96
  -8  -4   1    1.83    4.97
   7   4  -1  581.39   47.96
   7   4  -1  597.48   31.68
  -7  -4   1  549.58   31.94
  -7  -4   1  505.57   30.77
   6   4  -1  130.67   14.05
  -6  -4   1  152.27   16.77
  -6  -4   1  118.47   13.91
   4   4  -1  980.52   47.75
   4   4  -1  965.08   55.09
   4   4  -1  998.88   51.05
  -4  -4   1  972.41   50.86
   3   4  -1  678.90   39.65
   3   4  -1  676.31   36.39
  -3  -4   1  713.94   35.92
   2   4  -1  903.28   43.59
   2   4  -1  773.00   40.07
  -2  -4   1  787.09   39.94
   1   4  -1 1345.48   60.91
   1   4  -1 1303.87   63.01
  -1  -4   1 1302.60   60.82
   0   4  -1  701.61   35.58
   0   4  -1  700.01   33.15
   0  -4   1  639.48   32.81
  -1   4  -1 1342.32   60.67
  -1   4  -1 1329.86   63.15
   1  -4   1 1308.22   60.09
  -2   4  -1  839.68   41.57
  -2   4  -1  770.60   38.31
  -3   4  -1  272.75   16.27
  -3   4  -1  279.03   16.92
  -3   4  -1  276.76   20.01
  -4   4  -1  668.29   32.89
  -4   4  -1  651.63   37.57
  -4   4  -1  654.19   33.95
  -5   4  -1   94.65    9.26
  -5   4  -1   68.41   14.05
  -5   4  -1   85.03    9.24
  -5   4  -1   97.65   11.54
  -5   4  -1   75.10   11.06
  -5   4  -1  106.02   10.58
  -6   4  -1  152.94   12.11
  -6   4  -1  155.52   16.43
  -6   4  -1  133.49   14.38
  -6   4  -1  129.73   23.16
  -7   4  -1  466.22   29.29
  -7   4  -1  482.66   28.88
  -7   4  -1  487.92   25.98
  -7   4  -1  429.17   38.68
  -8   4  -1    0.53    6.23
  -8   4  -1    9.84    7.18
  -8   4  -1  -56.57   18.52
  -9   4  -1    5.60    5.32
  -9   4  -1    5.27    5.03
   9   3  -1  233.88   31.82
   9   3  -1  117.10   12.87
  -9  -3   1  141.25   10.82
   8   3  -1  131.11   26.26
   8   3  -1  192.65   14.58
  -8  -3   1  145.96   13.27
  -8  -3   1  152.87   16.69
  -8  -3   1  126.12   23.36
  -8  -3   1  175.43   14.74
   7   3  -1    4.80    6.31
  -7  -3   1   -0.01    6.54
  -7  -3   1    2.39    7.49
  -7  -3   1    4.98   14.44
  -7  -3   1    3.36    5.63
   6   3  -1   79.93   10.85
  -6  -3   1   65.84   10.62
  -6  -3   1   38.64    9.41
  -6  -3   1   55.26   10.70
   5   3  -1  919.35   49.77
   5   3  -1  986.95   53.68
  -5  -3   1  860.39   47.65
  -5  -3   1  893.78   48.46
  -5  -3   1  892.18   57.00
  -5  -3   1  987.16   46.73
  -5  -3   1  978.02   47.65
   4   3  -1   54.01    9.71
   4   3  -1   54.95   13.22
  -4  -3   1   42.10    7.62
   3   3  -1   -0.82    7.47
   3   3  -1   16.04    5.76
  -3  -3   1   12.19    4.51
   2   3  -1 4208.85  195.89
   2   3  -1 4536.21  194.47
  -2  -3   1 4603.01  194.37
   1   3  -1   33.50    4.99
   1   3  -1   46.49    8.15
  -1  -3   1   37.17    5.85
   0   3  -1   47.75    7.45
   0   3  -1   58.92    6.37
   0  -3   1   61.42    6.10
  -1   3  -1 1995.66   93.41
  -1   3  -1 2099.15   91.61
   1  -3   1 2136.85   91.19
  -2   3  -1  886.13   40.68
  -2   3  -1  883.82   43.21
   2  -3   1  867.32   39.27
  -3   3  -1  733.01   37.97
  -3   3  -1  714.04   34.84
  -4   3  -1  436.42   32.00
  -4   3  -1  451.54   27.36
  -4   3  -1  406.95   23.69
   4  -3   1  454.12   24.27
  -5   3  -1  245.02   20.23
  -5   3  -1  214.19   26.43
   5  -3   1  249.88   17.46
  -6   3  -1  366.64   21.06
  -6   3  -1  343.99   24.38
  -6   3  -1  363.46   37.56
  -6   3  -1  392.01   30.69
  -6   3  -1  404.13   23.94
  -7   3  -1   21.50    6.30
  -7   3  -1   19.13   10.34
  -7   3  -1   19.30    7.24
  -7   3  -1   14.44    8.01
  -9   3  -1  292.99   17.78
  -9   3  -1  292.49   17.49
  -9   3  -1  157.79   31.89
   9   2  -1   24.01   13.09
  -9  -2   1   29.12    7.61
  -9  -2   1   33.90    6.54
   7   2  -1  179.32   15.17
  -7  -2   1  183.50   16.79
  -7  -2   1  204.27   21.28
  -7  -2   1  198.84   30.26
  -7  -2   1  215.17   18.62
  -6  -2   1  908.14   45.16
  -6  -2   1  944.97   47.05
  -6  -2   1  860.76   45.21
  -6  -2   1  868.66   50.25
  -6  -2   1  892.19   57.85
   5   2  -1  201.82   18.02
   5   2  -1  171.09   19.51
  -5  -2   1  191.53   14.75
   4   2  -1  459.10   28.38
   4   2  -1  486.57   30.17
  -4  -2   1  534.84   26.47
   3   2  -1 1845.72   84.64
   3   2  -1 1878.39   86.07
  -3  -2   1 1859.50   83.27
   2   2  -1  375.94   19.38
   2   2  -1  373.46   20.78
  -2  -2   1  363.65   18.75
   1   2  -1  494.14   23.84
   1   2  -1  456.25   22.11
  -1  -2   1  457.54   22.21
   0   2  -1 2301.34  101.47
   0   2  -1 2365.60  100.17
   0  -2   1 2244.23  100.11
  -1   2  -1 2526.51  117.66
  -1   2  -1 2707.46  116.28
   1  -2   1 2786.13  115.64
  -2   2  -1  167.68    9.75
  -2   2  -1  161.57   12.39
   2  -2   1  163.11    7.53
  -3   2  -1 2279.29  107.91
   3  -2   1 2503.11  106.01
  -4   2  -1  201.20   16.25
  -4   2  -1  210.78   23.62
   4  -2   1  230.53   14.25
  -5   2  -1   88.17   19.64
  -5   2  -1  102.37   13.59
   5  -2   1   98.01   10.82
  -6   2  -1  633.43   33.96
  -6   2  -1  608.96   38.65
  -6   2  -1  625.05   49.30
  -6   2  -1  604.94   34.32
  -6   2  -1  614.83   31.22
  -7   2  -1  176.25   17.00
  -7   2  -1  205.57   21.91
  -7   2  -1  192.90   17.59
  -7   2  -1  184.71   35.55
  -8   2  -1  151.74   37.81
  -8   2  -1  198.90   16.84
  -8   2  -1  207.59   22.21
  -8   2  -1  196.83   17.14
  -9   2  -1   30.63    7.09
  -9   2  -1   25.49    6.50
  -9   2  -1    0.21    9.21
  -9  -1   1  295.60   22.97
  -9  -1   1  308.08   19.24
  -9  -1   1  279.43   32.19
   8   1  -1  120.25   12.58
  -8  -1   1  114.60   35.78
  -8  -1   1  119.09   25.61
  -8  -1   1  137.39   19.03
  -8  -1   1  123.07   14.57
  -8  -1   1  113.47   13.32
  -7  -1   1  187.65   37.99
  -7  -1   1  205.78   22.01
  -7  -1   1  212.43   18.91
  -7  -1   1  229.47   29.59
  -7  -1   1  227.31   16.99
  -7  -1   1  209.01   17.09
   6   1  -1  434.33   37.17
   6   1  -1  350.37   27.11
  -6  -1   1  367.83   24.58
  -6  -1   1  396.00   23.32
  -6  -1   1  400.50   43.30
  -6  -1   1  400.67   28.63
  -6  -1   1  353.05   22.72
  -6  -1   1  403.71   34.43
   5   1  -1  429.58   28.05
   5   1  -1  479.04   31.31
   4   1  -1 1064.60   50.58
   4   1  -1  824.01   46.63
  -4  -1   1  971.30   44.72
   3   1  -1  295.96   19.90
   3   1  -1  399.19   22.31
  -3  -1   1  378.68   18.53
   2   1  -1 5093.06  244.61
   2   1  -1 6017.76  246.00
  -2  -1   1 5868.08  244.19
   1   1  -1 1865.86   80.61
   1   1  -1 1823.55   79.68
  -1  -1   1 1822.49   79.94
   0   1  -1  372.29   16.72
   0   1  -1  365.26   17.74
   0  -1   1  386.03   16.90
  -1   1  -1  963.42   41.96
  -1   1  -1  939.37   43.10
  -2   1  -1 4933.58  218.91
   2  -1   1 5129.85  217.49
  -3   1  -1  241.52   16.55
   3  -1   1  268.54   14.81
  -5   1  -1 1554.92   85.74
   5  -1   1 1504.21   79.42
  -6   1  -1  164.65   17.11
  -6   1  -1  150.98   14.53
  -6   1  -1  142.16   25.80
  -6   1  -1  115.76   13.34
  -6   1  -1  158.61   17.46
  -6   1  -1  168.88   23.20
  -7   1  -1   -1.29    3.58
  -7   1  -1   -0.73    6.30
  -7   1  -1   -0.08    6.34
  -7   1  -1   -2.05   10.16
  -7   1  -1    4.04    7.08
  -8   1  -1  242.91   40.20
  -8   1  -1  291.16   21.20
  -8   1  -1  312.54   20.59
  -8   1  -1  309.30   25.52
  -9   1  -1  105.99   14.49
  -9   1  -1   91.33   10.95
  -9   1  -1   94.32   10.52
  -9   0   1    4.77    5.95
  -9   0   1    5.39   10.30
  -9   0   1    4.46    7.20
  -8   0   1   43.01    8.86
  -8   0   1   31.51   12.29
  -8   0   1   33.20   10.65
  -8   0   1   50.42    9.60
  -7   0   1  637.18   52.38
  -7   0   1  706.65   42.56
  -7   0   1  637.59   36.22
  -7   0   1  665.34   47.91
  -7   0   1  657.85   35.15
   6   0  -1  307.41   23.47
   6   0  -1  306.78   26.95
  -6   0   1  287.83   20.96
  -6   0   1  326.54   29.94
  -6   0   1  304.71   24.95
  -6   0   1  332.48   34.72
   5   0  -1   75.18   11.14
   5   0  -1   71.23   14.55
   4   0  -1 1743.71   92.21
   4   0  -1 1934.93   88.75
  -4   0   1 2166.37   98.29
  -4   0   1 1952.00   87.40
   3   0  -1 2057.11   97.75
   3   0  -1 2208.29   94.76
  -3   0   1 2146.25   94.14
   2   0  -1  148.96    8.79
   2   0  -1  161.00   12.35
  -2   0   1  162.82    9.41
   1   0  -1 1383.91   67.78
  -1   0   1 1691.74   67.67
  -1   0   1 1564.21   66.74
   0   0  -1  136.34    6.05
   0   0   1  117.99    6.46
   0   0   1  136.81    7.40
   0   0   1  123.91    6.01
  -1   0  -1 2431.56  115.34
  -1   0  -1 2852.09  114.64
   1   0   1 2678.60  115.31
  -2   0  -1  282.43   13.15
  -2   0  -1  252.03   15.34
   2   0   1  271.84   14.76
  -3   0  -1  770.45   35.61
   3   0   1  774.87   37.92
   3   0   1  845.26   42.18
   4   0   1 1253.67   66.23
   4   0   1 1360.30   62.26
  -5   0  -1    2.62    2.84
   5   0   1   -1.66    9.66
   5   0   1    6.20    6.08
  -6   0  -1  231.93   16.98
  -6   0  -1  238.86   27.88
  -6   0  -1  199.94   19.72
  -6   0  -1  205.24   17.11
  -6   0  -1  204.92   31.71
  -7   0  -1  354.61   22.41
  -7   0  -1  325.08   26.27
  -7   0  -1  326.16   22.87
  -7   0  -1  308.96   43.37
  -7   0  -1  363.47   36.83
  -8   0  -1   12.14    6.16
  -8   0  -1   24.10    8.79
  -8   0  -1   42.58    8.57
  -8   0  -1   37.79    8.58
   8   0   1    0.73   14.83
  -9   0  -1    2.67    4.58
  -9   0  -1   11.52    5.48
  -9   0  -1   13.92    6.14
   9   0   1   -3.87   12.46
  -9   1   1   33.99    7.96
  -9   1   1   25.80   11.22
  -9   1   1   31.67    9.54
  -8   1   1  313.92   27.48
  -8   1   1  287.12   20.04
  -8   1   1  287.72   30.28
  -8   1   1  241.92   41.90
  -8   1   1  282.14   20.50
  -7   1   1    5.94    6.89
  -7   1   1    5.20    8.01
  -7   1   1    4.30    5.48
  -7   1   1   -2.46    7.57
  -7   1   1   -3.23    2.97
   6  -1  -1   22.24   12.81
   6  -1  -1   20.64    7.57
  -6   1   1    7.19    7.27
  -6   1   1   23.93    7.37
  -6   1   1   20.39    9.59
   5  -1  -1  568.16   29.48
   5  -1  -1  480.87   34.00
  -5   1   1  522.48   40.32
   4  -1  -1  117.20    9.65
   4  -1  -1  114.99   14.52
  -4   1   1  104.82   10.37
   3  -1  -1  792.98   37.42
  -3   1   1  783.18   38.67
  -3   1   1  855.75   39.14
  -2   1   1 9563.51  409.57
  -2   1   1 9999.00  410.64
  -2   1   1 9025.05  410.79
  -1   1   1 1177.96   51.24
  -1   1   1 1189.64   51.08
  -1   1   1 1116.34   52.44
   0  -1  -1  237.35   12.26
   0   1   1  217.07   11.51
   0   1   1  218.51   10.45
  -1  -1  -1 2635.15  113.38
   1   1   1 2525.95  113.19
   1   1   1 2647.03  114.06
  -2  -1  -1 1172.21   52.98
   2   1   1 1154.55   54.86
   2   1   1 1226.72   54.89
  -3  -1  -1  991.20   47.27
   3   1   1 1064.16   51.18
   3   1   1 1062.58   49.88
   5   1   1  491.89   31.65
   5   1   1  490.39   30.20
  -6  -1  -1  795.34   54.61
  -6  -1  -1  756.13   41.18
  -6  -1  -1  781.50   44.52
  -6  -1  -1  802.00   40.67
   6   1   1  747.11   39.13
  -9  -1  -1  449.13   23.96
  -9  -1  -1  464.12   23.44
   9   1   1  456.63   35.74
  -9   2   1  189.83   14.91
  -9   2   1  150.36   18.65
  -8   2   1  121.78   20.34
  -8   2   1  124.57   14.08
  -8   2   1  122.90   14.31
  -7   2   1  364.36   22.74
  -7   2   1  341.09   29.84
  -7   2   1  307.86   39.70
  -7   2   1  346.52   21.60
   6  -2  -1 1015.36   52.55
  -6   2   1  998.93   49.11
  -6   2   1 1012.23   50.00
  -6   2   1 1011.23   57.42
  -6   2   1 1034.80   65.20
   5  -2  -1  113.70   16.23
   5  -2  -1  103.91   11.16
  -5   2   1   96.25   19.29
   3  -2  -1 2968.35  148.69
  -3   2   1 3655.37  148.39
  -3   2   1 3544.66  149.65
   2  -2  -1  347.32   19.51
  -2   2   1  373.81   18.51
  -2   2   1  378.28   19.25
   1  -2  -1  141.60    9.86
  -1   2   1  123.24    8.26
  -1   2   1  128.79    8.65
   0  -2  -1 4298.31  184.45
   0   2   1 4238.25  183.25
   0   2   1 4181.17  183.99
  -1  -2  -1  275.78   15.43
   1   2   1  287.35   15.15
   1   2   1  282.93   16.11
  -2  -2  -1    1.17    3.17
   2   2   1    1.77    4.18
   2   2   1   -2.94    3.93
  -3  -2  -1 1399.17   67.02
   3   2   1 1565.82   69.40
   3   2   1 1455.11   68.39
   4   2   1  717.78   38.42
  -5  -2  -1  368.94   23.70
  -5  -2  -1  436.60   37.52
   5   2   1  349.06   22.40
  -6  -2  -1  922.31   46.88
  -6  -2  -1  818.53   66.26
  -6  -2  -1  912.93   46.21
   6   2   1  857.14   45.19
   6   2   1  976.02   61.63
  -7  -2  -1   83.15   12.36
  -7  -2  -1   63.10    9.79
   7   2   1   49.74   18.77
   7   2   1   65.37    9.98
  -8  -2  -1   95.81   10.56
  -8  -2  -1   87.14   11.34
   8   2   1  219.11   35.09
  -9   3   1  145.52   11.80
  -9   3   1   69.14   14.13
  -8   3   1   70.66   10.06
  -8   3   1   84.84   12.79
  -8   3   1   59.69   13.52
  -7   3   1   73.52   15.03
  -7   3   1  126.81   13.71
  -7   3   1  119.70   12.77
  -6   3   1  601.49   31.23
  -6   3   1  566.93   30.79
  -6   3   1  537.24   38.89
   5  -3  -1  138.99   13.17
  -5   3   1  156.88   14.72
  -4   3   1  230.70   15.55
  -4   3   1  235.10   16.86
  -4   3   1  234.37   14.38
   3  -3  -1   42.93    6.86
  -3   3   1   52.68    7.84
  -3   3   1   46.78    7.10
   2  -3  -1  976.97   44.92
  -2   3   1  938.13   43.77
  -2   3   1  895.96   43.91
   1  -3  -1 2420.47  102.38
  -1   3   1 2340.53  101.39
  -1   3   1 2106.92  100.63
   0  -3  -1    1.51    3.72
   0   3   1   -3.22    3.81
   0   3   1    1.90    3.30
  -1  -3  -1  342.30   18.94
   1   3   1  317.83   18.84
  -2  -3  -1 2159.22   98.68
   2   3   1 2215.70   99.38
  -3  -3  -1   15.34    6.00
   3   3   1   16.27    6.50
  -4  -3  -1    8.65    7.64
  -4  -3  -1    8.44    5.41
   4   3   1   13.45    6.41
   4   3   1   12.14    5.30
   4   3   1   -3.67    9.73
  -5  -3  -1  934.63   47.39
  -5  -3  -1  888.17   47.20
   5   3   1  928.96   63.63
   5   3   1  928.11   46.79
  -6  -3  -1  134.46   14.74
  -6  -3  -1  141.24   14.93
   6   3   1  129.33   14.76
   6   3   1  235.86   41.92
  -7  -3  -1   41.47    8.04
  -7  -3  -1   47.63    8.73
   7   3   1   37.03    9.09
   7   3   1  184.58   41.16
  -8  -3  -1  114.10    9.04
  -8  -3  -1  115.15   10.22
   8   3   1   93.86   10.54
   8   3   1   60.83   15.37
  -9   4   1  -24.93   28.55
  -9   4   1   12.50    5.48
  -8   4   1  -17.94   16.54
  -8   4   1   22.81    6.87
  -7   4   1  345.29   21.69
  -7   4   1  344.66   21.67
  -7   4   1  307.38   30.82
  -6   4   1  473.17   28.17
  -6   4   1  542.06   29.19
  -6   4   1  527.34   36.69
  -5   4   1   59.79    8.55
  -5   4   1   59.89    8.27
  -5   4   1   65.66    9.17
  -5   4   1   38.41    6.77
  -4   4   1  499.27   25.64
  -4   4   1  444.75   26.50
   3  -4  -1  375.12   27.20
  -3   4   1  320.91   19.17
  -3   4   1  340.35   20.36
   2  -4  -1  430.19   23.81
  -2   4   1  388.24   22.16
  -2   4   1  390.28   21.23
   1  -4  -1  121.80   11.52
  -1   4   1  110.67   10.55
  -1   4   1  109.79    9.42
   0  -4  -1  569.87   29.11
   0   4   1  521.59   27.97
   0   4   1  480.87   26.37
  -1  -4  -1 1885.74   83.22
   1   4   1 1862.43   82.84
   1   4   1 1613.46   80.41
  -2  -4  -1  103.15   11.54
   2   4   1  107.18   11.90
  -3  -4  -1   93.91   12.73
  -3  -4  -1  119.60   12.82
  -3  -4  -1  114.81   12.73
   3   4   1  102.35   10.29
   3   4   1  137.83   13.17
   3   4   1  105.85   11.10
  -4  -4  -1  763.27   38.89
  -4  -4  -1  712.41   36.85
  -4  -4  -1  651.88   38.80
   4   4   1  678.79   35.26
   4   4   1  775.35   38.99
  -5  -4  -1  180.37   16.73
  -5  -4  -1  193.15   16.87
   5   4   1  166.76   28.87
   5   4   1  198.76   17.70
  -6  -4  -1  124.39   13.00
  -6  -4  -1  119.26   13.56
   6   4   1  135.89   15.32
   6   4   1   82.41   20.96
  -7  -4  -1  465.84   24.33
  -7  -4  -1  421.78   22.53
   7   4   1  350.67   34.47
   7   4   1  444.91   25.32
  -8   5   1  206.16   18.28
  -7   5   1   14.19    6.42
  -7   5   1   12.48    6.81
  -6   5   1   50.28    9.17
  -6   5   1   56.75    8.32
  -6   5   1   57.91    9.56
  -5   5   1  525.32   29.56
  -5   5   1  504.68   27.12
  -5   5   1  503.92   27.94
  -5   5   1  519.87   26.38
  -5   5   1  472.91   28.35
  -4   5   1  125.21   10.90
  -4   5   1  124.42   13.65
  -4   5   1  141.09   12.61
  -4   5   1  124.23   11.24
  -4   5   1  131.77   11.89
  -3   5   1   65.11    7.68
  -3   5   1   89.12   10.21
  -3   5   1   75.98   11.50
  -3   5   1   64.30    9.31
  -3   5   1   79.87    8.52
  -3   5   1   75.57    9.60
  -3   5   1   69.11   14.59
   2  -5  -1 1189.82   58.58
  -2   5   1 1141.26   57.33
  -2   5   1 1211.52   57.58
  -2   5   1 1175.76   55.40
  -2   5   1 1173.12   54.07
  -2   5   1 1239.70   55.90
  -2   5   1 1160.84   54.12
  -2   5   1 1131.16   56.14
   1  -5  -1  460.34   27.06
  -1   5   1  456.50   24.08
  -1   5   1  464.04   25.92
  -1   5   1  415.09   25.50
  -1   5   1  347.17   26.49
   0  -5  -1  187.78   16.41
   0   5   1  190.52   15.76
   0   5   1  195.35   14.59
   0   5   1  173.67   13.94
   0   5   1  171.82   13.59
   0   5   1  205.81   14.36
   0   5   1  199.53   16.26
   1   5   1  548.70   29.69
   1   5   1  536.50   28.75
   1   5   1  576.44   30.36
   1   5   1  568.68   32.32
   1   5   1  520.95   29.88
   1   5   1  583.01   29.36
   1   5   1  599.17   31.33
  -2  -5  -1  529.53   31.70
   2   5   1  546.52   28.36
   2   5   1  520.00   28.51
   2   5   1  527.81   28.86
   2   5   1  560.47   30.93
  -3  -5  -1  170.62   13.38
  -3  -5  -1  156.56   15.70
   3   5   1  175.16   16.04
   3   5   1  159.24   13.71
   3   5   1  158.15   13.46
  -4  -5  -1   80.76   11.73
  -4  -5  -1   71.46   11.42
   4   5   1   84.64   12.39
   4   5   1   58.85    8.59
  -5  -5  -1  295.90   19.48
  -5  -5  -1  276.82   19.81
   5   5   1  301.12   21.81
   5   5   1  236.49   17.06
  -6  -5  -1  373.10   22.33
   6   5   1  379.40   23.44
  -7  -5  -1    1.61    3.95
   7   5   1    3.84    4.70
  -7   6   1   21.58    6.40
  -6   6   1  388.65   24.02
  -6   6   1  384.74   23.36
  -6   6   1  421.79   22.52
  -6   6   1  392.88   21.44
  -5   6   1    1.14    5.68
  -5   6   1   -7.22    4.84
  -5   6   1    0.97    4.81
  -5   6   1    1.32    6.68
  -5   6   1    5.41    5.97
  -4   6   1   34.75    9.19
  -4   6   1   33.92    6.68
  -4   6   1   41.76    9.79
  -4   6   1   47.37    8.59
  -4   6   1   47.15    8.59
  -4   6   1   43.90    7.39
  -3   6   1  822.39   39.58
  -3   6   1  828.94   39.52
  -3   6   1  825.38   42.96
  -3   6   1  785.06   41.30
  -3   6   1  729.92   42.04
  -3   6   1  863.44   41.31
  -2   6   1    8.34    5.26
  -2   6   1    7.09    4.76
  -2   6   1   -2.79    6.24
  -2   6   1   15.08    7.10
  -2   6   1    4.79    5.18
  -2   6   1   16.53    7.60
  -2   6   1    5.84    6.64
  -1   6   1   -3.11    4.63
  -1   6   1    0.88    6.50
  -1   6   1    1.73    5.03
  -1   6   1    2.92    4.43
  -1   6   1   -1.01    5.63
  -1   6   1   -3.80    5.40
  -1   6   1   -0.40    5.79
   0   6   1  497.60   28.07
   0   6   1  458.72   26.89
   0   6   1  487.96   30.24
   0   6   1  487.80   28.07
   0   6   1  500.47   25.60
   0   6   1  477.88   26.21
   0   6   1  497.25   28.01
  -1  -6  -1  271.58   21.73
   1   6   1  329.51   19.55
   1   6   1  247.18   19.37
   1   6   1  274.33   19.22
   1   6   1  299.24   19.98
   1   6   1  300.73   21.88
  -2  -6  -1   17.83    7.98
   2   6   1   25.62    7.55
   2   6   1   38.12    7.96
   2   6   1   31.53    7.37
   2   6   1   12.06    7.07
  -3  -6  -1  270.90   20.77
  -3  -6  -1  249.00   17.14
   3   6   1  265.56   19.55
   3   6   1  297.41   18.93
  -4  -6  -1   67.66   10.33
   4   6   1   98.21   11.95
   4   6   1   72.61    9.06
  -5  -6  -1  126.42   12.15
   5   6   1  113.64   10.11
   5   6   1  123.05   12.70
  -6  -6  -1   40.84    5.94
   6   6   1   48.54    6.45
  -6   7   1  147.19   11.45
  -6   7   1  152.43   10.94
  -6   7   1  137.63   12.29
  -5   7   1   45.50    7.11
  -5   7   1   48.04    7.80
  -5   7   1   41.57    6.80
  -5   7   1   33.26    8.01
  -5   7   1   36.74    7.39
  -4   7   1  197.50   15.38
  -4   7   1  183.56   15.75
  -4   7   1  182.62   16.91
  -4   7   1  199.49   14.31
  -4   7   1  178.61   16.81
  -4   7   1  198.52   14.59
  -3   7   1   16.11    7.46
  -3   7   1    0.25    6.06
  -3   7   1    2.42    5.77
  -3   7   1    3.71    5.81
  -3   7   1   -1.64    7.26
  -3   7   1   -9.30    6.59
  -2   7   1   35.76    8.80
  -2   7   1   52.03    8.40
  -2   7   1   22.79    8.74
  -2   7   1   36.54    9.60
  -2   7   1   40.98    7.49
  -2   7   1   37.49    8.86
  -2   7   1   33.82    7.27
  -1   7   1  555.81   30.71
  -1   7   1  616.82   33.47
  -1   7   1  568.34   34.38
  -1   7   1  556.53   32.38
  -1   7   1  591.01   30.93
  -1   7   1  612.23   30.53
  -1   7   1  592.95   33.71
   0   7   1   31.19    7.06
   0   7   1   39.57    7.13
   0   7   1   33.14    8.36
   0   7   1   29.17    8.51
   0   7   1   26.00    9.17
   0   7   1   38.81    8.68
   0   7   1   33.35    7.16
  -1  -7  -1   28.17    9.20
   1   7   1   43.49    9.23
   1   7   1   27.89    7.12
   1   7   1   28.79    7.27
  -2  -7  -1  763.01   40.01
   2   7   1  783.11   37.78
   2   7   1  737.49   37.15
   2   7   1  699.18   38.55
  -3  -7  -1   45.55    8.05
   3   7   1   28.12    6.52
   3   7   1   27.94    6.45
  -4  -7  -1    2.83    4.75
   4   7   1    0.19    4.06
   4   7   1   -0.86    3.89
  -5   8   1   51.70    6.49
  -5   8   1   61.70    7.27
  -5   8   1   54.50    7.45
  -4   8   1  129.70   10.43
  -4   8   1  134.60   11.07
  -4   8   1  105.76   12.10
  -4   8   1  106.74   13.20
  -4   8   1  112.98   10.22
  -3   8   1  137.46   14.30
  -3   8   1  159.40   14.67
  -3   8   1  161.25   13.31
  -3   8   1  152.54   13.88
  -3   8   1  163.01   12.27
  -3   8   1  168.97   12.66
  -2   8   1  189.43   14.16
  -2   8   1  174.01   15.65
  -2   8   1  149.34   12.38
  -2   8   1  149.16   15.42
  -2   8   1  144.73   12.68
  -2   8   1  149.12   14.63
   1  -8  -1   56.91   10.09
  -1   8   1   57.11    7.55
  -1   8   1   69.80    9.15
  -1   8   1   52.67    7.04
  -1   8   1   49.01    8.76
  -1   8   1   71.53   10.52
  -1   8   1   49.27    7.35
  -1   8   1   61.46   10.10
   0  -8  -1   54.90    9.74
   0   8   1   56.08    7.15
   0   8   1   74.70    9.60
   0   8   1   73.11    8.86
   0   8   1   57.05    9.49
   0   8   1   69.38    7.48
  -1  -8  -1  330.57   20.65
   1   8   1  326.81   18.22
   1   8   1  306.96   19.92
   1   8   1  321.94   18.27
  -2  -8  -1   -0.48    3.61
  -2  -8  -1   -2.51    4.54
   2   8   1    0.26    3.90
   3   9  -2    9.26    4.24
  -3  -9   2    0.28    4.52
  -3  -9   2    8.29    6.04
   2   9  -2  295.24   17.24
   2   9  -2  260.06   16.15
  -2  -9   2  275.56   19.85
  -2  -9   2  271.61   18.54
   1   9  -2   39.08    7.14
   1   9  -2   22.42    5.58
  -1  -9   2   22.43    8.03
  -1  -9   2   21.02    8.61
   0   9  -2   26.56    5.06
   0   9  -2   20.26    8.14
   0   9  -2   35.21    7.32
   0  -9   2   16.80    8.46
  -1   9  -2  163.67   12.07
  -1   9  -2  198.73   17.55
  -1   9  -2  168.10   13.61
  -1   9  -2  194.34   12.32
  -1   9  -2  204.16   15.22
   1  -9   2  161.80   17.12
  -2   9  -2  122.13   10.18
  -2   9  -2  137.47   13.27
  -2   9  -2  157.93   15.25
  -2   9  -2  128.99   10.17
  -2   9  -2  117.27   11.35
  -2   9  -2  131.10   11.39
   2  -9   2  148.58   15.27
  -3   9  -2   30.62    5.99
  -3   9  -2   38.18    5.69
  -3   9  -2   36.17    6.72
  -3   9  -2   26.71    5.08
  -3   9  -2   41.25    8.95
  -3   9  -2   34.36    7.78
   3  -9   2   38.94    9.24
  -4   9  -2   53.54    5.84
  -4   9  -2   39.23    7.28
  -4   9  -2   37.52    5.29
  -4   9  -2   51.68    7.12
  -4   9  -2   42.66    8.24
   5   8  -2   28.12    5.15
  -5  -8   2   30.93    6.65
   4   8  -2   64.44    7.79
  -4  -8   2   73.63   11.02
  -4  -8   2   59.07    8.64
   3   8  -2  476.02   25.50
   3   8  -2  473.72   24.93
  -3  -8   2  448.90   27.83
  -3  -8   2  434.76   29.48
   2   8  -2   33.09    7.41
   2   8  -2   24.65    6.21
  -2  -8   2   28.85    9.93
  -2  -8   2   15.36    8.53
   1   8  -2   69.02    8.86
   1   8  -2   71.16    8.10
   1   8  -2   43.99   10.47
   1   8  -2   74.68    9.76
  -1  -8   2   57.03   11.78
   0   8  -2  254.88   22.12
   0   8  -2  277.85   19.06
   0   8  -2  274.99   16.20
   0  -8   2  276.34   22.84
  -1   8  -2   35.07    7.92
  -1   8  -2   16.44    5.12
  -1   8  -2   11.62    5.56
  -1   8  -2   13.70    4.80
  -1   8  -2   16.87    8.20
  -1   8  -2   24.39    6.93
  -1   8  -2   27.37    9.39
  -2   8  -2   -3.40    7.09
  -2   8  -2    1.97    5.39
  -2   8  -2    3.50    5.36
  -2   8  -2   -2.56    4.26
  -2   8  -2  -10.74    6.73
  -2   8  -2    3.90    4.47
  -2   8  -2   -1.66    5.91
  -3   8  -2  635.03   31.29
  -3   8  -2  645.65   35.87
  -3   8  -2  646.14   35.44
  -3   8  -2  633.54   32.60
  -3   8  -2  614.59   31.35
  -3   8  -2  612.19   33.15
  -4   8  -2   85.13    9.16
  -4   8  -2  103.77   14.59
  -4   8  -2   89.72    9.32
  -4   8  -2   73.82   10.23
  -4   8  -2   87.64   12.26
  -4   8  -2   60.98    8.84
  -5   8  -2   17.65    5.42
  -5   8  -2    4.50    7.25
  -5   8  -2    9.92    4.64
  -5   8  -2    9.58    7.27
  -5   8  -2   10.55    5.52
  -5   8  -2   -1.18    4.21
  -6   8  -2  262.44   17.67
  -6   8  -2  268.90   14.54
  -6   8  -2  273.60   15.60
  -6   8  -2  257.88   17.16
   6   7  -2  111.71    9.38
   6   7  -2  114.41   11.15
  -6  -7   2  113.41   11.40
   5   7  -2  103.59   10.50
   5   7  -2   97.17   12.30
  -5  -7   2  113.81   14.22
  -5  -7   2   77.53   11.70
   4   7  -2  235.85   15.69
  -4  -7   2  223.67   22.02
  -4  -7   2  211.68   18.35
   3   7  -2  162.44   13.18
   3   7  -2  149.68   13.56
  -3  -7   2  157.40   19.67
  -3  -7   2  157.67   17.84
   2   7  -2  487.86   26.72
   2   7  -2  500.07   25.52
   2   7  -2  462.07   30.32
  -2  -7   2  455.74   30.91
  -2  -7   2  438.70   31.35
   1   7  -2  418.78   23.21
   1   7  -2  438.47   24.53
   1   7  -2  396.63   27.98
   1   7  -2  418.59   22.09
  -1  -7   2  452.03   29.27
   0   7  -2  144.28   12.83
   0   7  -2  134.21   12.30
   0   7  -2  126.15   12.58
   0   7  -2  149.24   15.88
   0   7  -2  124.00   15.33
   0   7  -2  132.04   11.45
   0   7  -2  141.27   10.84
  -1   7  -2   16.10    7.46
  -1   7  -2   13.09    5.17
  -1   7  -2   18.07    8.45
  -1   7  -2   26.81    5.48
  -1   7  -2   15.67    6.38
  -1   7  -2   16.19    5.84
  -1   7  -2    6.11    5.47
  -2   7  -2  378.00   22.95
  -2   7  -2  424.67   24.55
  -2   7  -2  449.81   26.59
  -2   7  -2  410.51   22.35
  -2   7  -2  404.08   26.47
  -2   7  -2  403.58   24.23
  -2   7  -2  436.46   22.35
   2  -7   2  386.68   29.85
  -4   7  -2   -2.45    4.15
  -4   7  -2    0.89    7.60
  -4   7  -2    8.79    6.10
  -4   7  -2    0.65    8.47
  -4   7  -2    3.43    5.16
  -4   7  -2    6.46    6.06
  -5   7  -2  320.88   20.77
  -5   7  -2  379.42   25.95
  -5   7  -2  328.07   20.28
  -5   7  -2  354.38   24.19
  -5   7  -2  237.17   37.65
  -5   7  -2  326.77   18.88
  -6   7  -2    4.84    4.23
  -6   7  -2    4.63    7.00
  -6   7  -2    4.01    5.48
  -6   7  -2    1.81    5.38
  -6   7  -2    1.13    8.32
  -7   7  -2   -0.73    5.60
  -7   7  -2   -2.68    5.64
  -7   7  -2   -0.65    4.33
   7   6  -2  257.98   16.42
   7   6  -2  275.81   17.84
  -7  -6   2  293.83   18.18
   6   6  -2   69.01    9.87
   6   6  -2   71.43    8.95
  -6  -6   2   73.96   11.00
   5   6  -2    8.54    5.21
   5   6  -2    6.50    6.46
  -5  -6   2   -1.13    6.33
  -5  -6   2    3.30    9.15
   4   6  -2  245.37   16.17
   4   6  -2  236.29   17.11
  -4  -6   2  258.73   23.14
  -4  -6   2  230.32   19.58
   3   6  -2  177.95   13.84
   3   6  -2  185.88   13.16
  -3  -6   2  179.40   19.39
  -3  -6   2  183.51   17.94
   2   6  -2  260.21   16.57
   2   6  -2  226.11   19.82
   2   6  -2  259.40   15.52
  -2  -6   2  288.26   21.97
   1   6  -2  409.97   22.52
   1   6  -2  453.77   25.63
   1   6  -2  434.89   30.06
   1   6  -2  446.54   25.91
   1   6  -2  439.59   23.93
   1   6  -2  414.10   26.78
  -1  -6   2  425.45   25.80
  -1  -6   2  449.71   28.07
   0   6  -2  378.58   21.82
   0   6  -2  424.13   24.06
   0   6  -2  437.69   28.92
   0   6  -2  381.37   22.40
   0   6  -2  440.02   24.81
   0   6  -2  377.75   22.07
   0  -6   2  378.61   23.31
  -1   6  -2  368.29   22.60
  -1   6  -2  388.24   21.55
  -1   6  -2  358.15   21.35
  -1   6  -2  395.37   23.99
  -1   6  -2  352.06   19.63
  -1   6  -2  369.67   22.13
  -1   6  -2  378.75   27.69
  -1   6  -2  400.71   23.73
  -2   6  -2  215.81   14.83
  -2   6  -2  240.46   18.11
  -2   6  -2  220.17   20.73
  -2   6  -2  236.89   14.37
  -2   6  -2  223.59   15.70
  -2   6  -2  228.19   17.32
  -2   6  -2  244.94   14.03
  -2   6  -2  209.98   15.19
  -3   6  -2  256.95   19.99
  -3   6  -2  240.61   15.06
  -3   6  -2  242.48   18.53
  -3   6  -2  241.93   14.89
  -3   6  -2  260.26   17.22
  -3   6  -2  231.64   15.94
  -4   6  -2  694.90   33.63
  -4   6  -2  649.46   32.97
  -4   6  -2  698.15   35.78
  -4   6  -2  673.21   37.48
  -4   6  -2  656.44   34.55
  -4   6  -2  693.13   38.90
  -5   6  -2   15.53    5.27
  -5   6  -2   -0.31    7.25
  -5   6  -2   23.62    6.75
  -5   6  -2   18.44    9.76
  -5   6  -2   -1.57    5.60
  -8   6  -2    6.03    6.39
  -8   6  -2    2.12    5.26
  -8   6  -2   -0.59    5.39
   8   5  -2  299.78   18.53
  -8  -5   2  321.42   18.60
   7   5  -2    9.81    6.32
  -7  -5   2    7.79    7.66
  -7  -5   2    5.36    6.78
   6   5  -2  169.68   15.55
   6   5  -2  156.19   12.48
  -6  -5   2  160.55   18.47
  -6  -5   2  170.54   18.73
   5   5  -2  554.37   28.06
   5   5  -2  547.51   30.24
  -5  -5   2  535.55   35.38
  -5  -5   2  529.56   31.27
   4   5  -2   69.47    9.39
   4   5  -2   72.66    8.03
  -4  -5   2   65.54   10.52
  -4  -5   2   43.90   10.59
  -4  -5   2   45.87   10.05
  -3  -5   2   31.61    9.69
   2   5  -2 1727.94   78.39
   2   5  -2 1690.37   82.87
  -2  -5   2 1656.06   78.69
   1   5  -2 1432.37   70.40
   1   5  -2 1397.73   66.38
  -1  -5   2 1465.65   67.09
   0   5  -2   22.44    8.97
   0   5  -2   12.66    4.65
   0  -5   2   16.85    4.93
  -1   5  -2 1165.22   54.39
  -1   5  -2 1139.90   58.94
  -1   5  -2 1207.52   55.28
  -2   5  -2  204.54   18.53
  -2   5  -2  215.68   14.57
  -2   5  -2  209.62   13.68
  -3   5  -2  120.85   11.37
  -3   5  -2  115.89   15.26
  -3   5  -2  138.64   11.20
  -4   5  -2  171.75   12.88
  -4   5  -2  198.91   14.12
  -4   5  -2  168.13   12.42
  -4   5  -2  182.94   15.26
  -4   5  -2  158.19   16.33
  -5   5  -2  262.97   18.64
  -5   5  -2  261.63   20.74
  -5   5  -2  526.97   57.11
  -5   5  -2  263.09   17.61
  -5   5  -2  279.93   22.18
  -5   5  -2  295.10   17.08
  -6   5  -2  121.52   17.71
  -6   5  -2  195.34   17.81
  -6   5  -2  166.67   13.68
  -6   5  -2  475.51   70.98
  -6   5  -2  158.73   14.14
  -6   5  -2  167.77   12.50
  -7   5  -2   74.96   11.87
  -7   5  -2   73.08   11.34
  -7   5  -2   74.57    9.57
   8   4  -2   51.52   14.56
   8   4  -2   82.35   10.40
  -8  -4   2   88.69   10.68
  -8  -4   2   90.43   13.10
   7   4  -2  187.99   16.25
  -7  -4   2  169.42   19.41
  -7  -4   2  245.65   19.62
   6   4  -2  667.81   34.89
   6   4  -2  613.33   31.70
  -6  -4   2  614.58   39.79
  -6  -4   2  670.24   37.84
   4   4  -2  374.44   22.22
   4   4  -2  296.66   26.99
  -4  -4   2  345.50   21.70
   3   4  -2  563.06   34.72
   3   4  -2  566.77   29.88
  -3  -4   2  589.73   30.69
   2   4  -2  167.09   16.48
   2   4  -2  142.51   10.71
  -2  -4   2  142.58   11.47
   1   4  -2   26.72    7.99
   1   4  -2   35.48    5.51
  -1  -4   2   25.00    5.17
   0   4  -2 1653.52   79.07
   0   4  -2 1712.53   76.12
   0  -4   2 1721.56   76.21
  -1   4  -2  380.09   23.78
  -1   4  -2  397.86   20.51
   1  -4   2  389.78   19.66
  -2   4  -2   -0.13    6.73
  -2   4  -2    1.54    3.42
  -3   4  -2 1371.27   63.07
  -3   4  -2 1385.63   63.89
  -4   4  -2  311.88   18.10
  -4   4  -2  281.89   22.11
   4  -4   2  303.07   19.44
  -5   4  -2  228.03   14.50
  -5   4  -2  252.27   15.97
  -5   4  -2  190.78   18.18
  -5   4  -2  219.96   15.07
  -5   4  -2  210.68   17.49
  -5   4  -2  260.10   25.56
  -6   4  -2  286.03   21.90
  -6   4  -2  283.53   21.42
  -6   4  -2  283.18   18.08
  -6   4  -2  308.35   42.08
  -6   4  -2  242.93   28.74
  -7   4  -2  190.01   17.71
  -7   4  -2  186.69   17.94
  -7   4  -2  181.15   14.28
  -7   4  -2  123.69   23.14
  -8   4  -2   56.30    7.70
  -8   4  -2   60.69    9.75
  -8   4  -2   50.00    8.96
   9   3  -2  131.42   11.21
   9   3  -2  138.99   24.56
  -9  -3   2  133.33   13.36
  -9  -3   2  119.59   11.24
   8   3  -2  113.49   12.06
  -8  -3   2  120.19   16.74
  -8  -3   2   79.44   17.23
  -8  -3   2  110.43   13.90
   7   3  -2  128.04   13.63
  -7  -3   2  165.79   31.44
  -7  -3   2  134.35   16.40
  -7  -3   2  145.34   19.08
  -7  -3   2  135.88   15.22
   6   3  -2  486.36   28.18
  -6  -3   2  548.55   35.50
  -6  -3   2  539.67   30.01
  -6  -3   2  514.11   32.13
   5   3  -2  495.01   35.66
   5   3  -2  538.15   31.40
  -5  -3   2  558.25   31.21
  -5  -3   2  546.86   38.23
  -5  -3   2  564.05   31.29
   4   3  -2  927.70   50.60
   4   3  -2  946.29   46.42
  -4  -3   2  954.32   46.42
   3   3  -2  210.06   13.26
   3   3  -2  206.89   16.61
  -3  -3   2  199.56   13.66
   2   3  -2  203.56   11.97
   2   3  -2  200.49   14.85
  -2  -3   2  200.34   12.85
   1   3  -2 5797.50  254.79
   1   3  -2 5789.98  257.09
  -1  -3   2 6106.64  255.50
   0   3  -2   20.34    5.85
   0   3  -2   21.96    3.75
   0  -3   2   17.13    3.50
  -1   3  -2  207.78   14.92
  -1   3  -2  226.62   12.35
   1  -3   2  216.94   11.19
  -2   3  -2 2122.80   93.97
  -4   3  -2    6.60    3.93
  -4   3  -2    8.34    7.48
  -4   3  -2    2.23    2.50
   4  -3   2   10.76    5.08
  -5   3  -2  830.40   42.20
  -5   3  -2  848.06   44.94
  -5   3  -2  884.90   48.22
  -5   3  -2  892.14   59.19
  -5   3  -2  854.63   49.70
  -5   3  -2  962.99   42.90
  -5   3  -2  856.81   44.91
   5  -3   2  899.14   45.36
  -6   3  -2  227.97   22.98
  -6   3  -2  242.19   18.64
  -6   3  -2  222.25   15.40
  -6   3  -2  203.42   17.83
  -6   3  -2  206.28   32.02
  -7   3  -2   29.19    9.46
  -7   3  -2   36.59    7.36
  -7   3  -2   28.02    8.33
  -7   3  -2   23.93   10.17
  -8   3  -2  325.15   33.64
  -8   3  -2  382.28   24.20
  -8   3  -2  369.70   21.21
  -8   3  -2  409.78   23.62
  -9   3  -2  374.36   41.03
   9   2  -2   78.58    9.53
  -9  -2   2   80.01   10.69
  -9  -2   2   47.94   12.50
  -9  -2   2   71.58   13.30
  -7  -2   2  562.14   31.48
  -7  -2   2  568.94   37.91
  -7  -2   2  548.79   46.01
  -7  -2   2  550.03   33.21
  -6  -2   2  287.05   29.64
  -6  -2   2  183.05   18.33
  -6  -2   2  218.87   16.92
  -6  -2   2  203.61   21.29
   5   2  -2  461.62   28.98
   5   2  -2  537.80   33.02
  -5  -2   2  515.96   28.44
   4   2  -2 2269.01   99.64
   4   2  -2 2069.56   96.23
  -4  -2   2 2049.64   95.90
   3   2  -2 1020.86   49.28
   3   2  -2 1003.19   46.76
  -3  -2   2 1011.36   47.21
   2   2  -2  251.27   14.79
   2   2  -2  228.78   12.24
  -2  -2   2  221.87   13.05
   1   2  -2 4123.51  180.62
   1   2  -2 4057.60  178.61
  -1  -2   2 4251.35  179.56
   0   2  -2 1187.39   55.41
   0   2  -2 1225.96   53.52
   0  -2   2 1241.62   53.89
  -1   2  -2 2286.57   99.20
  -1   2  -2 2280.27  101.10
   1  -2   2 2260.35   98.31
  -2   2  -2  565.41   29.31
   2  -2   2  579.50   27.43
  -3   2  -2  636.57   33.83
  -3   2  -2  658.79   41.75
   3  -2   2  634.65   31.51
  -4   2  -2 1607.02   88.55
  -4   2  -2 1658.77   78.99
   4  -2   2 1730.67   76.98
  -5   2  -2   13.49    7.49
   5  -2   2    5.78    5.77
  -6   2  -2   24.93    7.64
  -6   2  -2   55.57    9.39
  -6   2  -2   30.87    8.89
  -6   2  -2   39.11    6.95
  -7   2  -2  761.23   40.18
  -7   2  -2  767.10   41.83
  -7   2  -2  722.55   45.50
  -7   2  -2  812.82   39.05
  -7   2  -2  769.23   62.96
  -8   2  -2   10.94    8.78
  -8   2  -2    4.41    5.70
  -8   2  -2   -1.47    4.08
  -8   2  -2   10.61    6.82
  -9   2  -2    3.14    4.77
  -9   2  -2    2.25    4.40
  -9  -1   2   66.30   11.82
  -9  -1   2   86.04   11.37
  -9  -1   2   55.13   13.32
  -8  -1   2  433.01   38.56
  -8  -1   2  374.75   46.24
  -8  -1   2  459.15   32.89
  -8  -1   2  449.51   27.26
  -8  -1   2  450.85   25.53
  -7  -1   2   23.62    7.45
  -7  -1   2   12.93   10.56
  -7  -1   2   11.66    9.25
  -7  -1   2   16.36    8.10
   6   1  -2  150.58   18.40
  -6  -1   2  117.82   14.55
  -6  -1   2  140.46   29.62
  -6  -1   2  143.59   18.41
  -6  -1   2  144.74   13.54
  -6  -1   2  157.55   22.06
   5   1  -2 1989.47   90.96
   5   1  -2 1644.00   87.12
  -5  -1   2 1832.42   86.19
  -5  -1   2 2045.57   99.18
   3   1  -2   44.20    6.82
   3   1  -2   49.60    8.48
  -3  -1   2   61.57    6.59
   2   1  -2 1134.16   51.59
   2   1  -2 1217.53   53.45
  -2  -1   2 1167.64   52.79
   1   1  -2 2761.93  126.00
  -1  -1   2 3031.36  126.06
   0   1  -2  716.42   31.69
   0  -1   2  700.54   31.26
   0  -1   2  662.63   30.33
  -1   1  -2 1953.75   83.00
   1  -1   2 1856.17   81.82
   1  -1   2 1819.73   81.49
  -2   1  -2  791.53   37.42
   2  -1   2  768.05   36.13
  -3   1  -2  781.95   38.98
   3  -1   2  793.65   38.02
  -4   1  -2  793.72   54.04
  -4   1  -2  809.56   41.65
   4  -1   2  833.72   40.79
  -5   1  -2   81.51   21.97
   5  -1   2  112.38   12.90
   5  -1   2   64.31   15.17
  -6   1  -2  409.37   22.34
  -6   1  -2  375.75   27.49
  -6   1  -2  354.04   41.79
  -6   1  -2  417.02   41.38
  -6   1  -2  355.43   24.39
  -6   1  -2  409.83   23.88
  -7   1  -2   14.32    7.63
  -7   1  -2   11.55    6.35
  -7   1  -2   12.70    7.80
  -7   1  -2    1.18    4.47
  -7   1  -2    8.47    5.67
  -8   1  -2   20.13    7.08
  -8   1  -2   26.00    8.41
  -8   1  -2   20.86    6.64
  -9   1  -2  340.09   18.78
  -9   1  -2  346.23   19.77
 -10   0   2   25.99    6.95
  -9   0   2  265.83   18.07
  -9   0   2  256.49   23.01
  -9   0   2  240.27   26.47
  -8   0   2    6.35    9.25
  -8   0   2    9.49    9.25
  -8   0   2    0.34    4.48
  -8   0   2   14.25    7.36
  -7   0   2  110.84   22.21
  -7   0   2  112.75   14.26
  -7   0   2  140.36   20.26
  -7   0   2  124.67   12.83
  -7   0   2   84.65   26.85
   6   0  -2  712.46   40.46
  -6   0   2  632.00   40.32
  -6   0   2  634.90   44.40
  -6   0   2  636.18   34.57
  -6   0   2  634.22   49.12
   5   0  -2   19.18    8.92
   5   0  -2   13.47    6.15
  -5   0   2   14.98    6.14
   4   0  -2  407.08   23.40
   4   0  -2  459.91   27.13
  -4   0   2  476.82   24.05
   3   0  -2 1135.29   53.84
   3   0  -2 1089.77   51.24
  -3   0   2 1189.83   52.36
   2   0  -2  216.44   11.52
   2   0  -2  247.10   13.68
  -2   0   2  256.62   13.98
   1   0  -2   37.94    3.76
  -1   0   2   42.77    6.41
  -1   0   2   33.40    2.68
   0   0  -2 5405.38  235.07
   0   0   2 5536.25  235.55
   0   0   2 5475.73  236.65
  -1   0  -2 1370.64   58.71
  -1   0  -2 1318.34   58.77
   1   0   2 1285.37   59.21
  -2   0  -2  104.52    6.76
  -2   0  -2  113.32    8.52
   2   0   2   81.80    8.55
   3   0   2 1493.85   70.08
   3   0   2 1549.10   72.48
   4   0   2  722.00   36.37
   4   0   2  628.98   38.01
  -5   0  -2  290.19   19.90
  -5   0  -2  284.38   32.86
  -5   0  -2  311.70   20.57
   5   0   2  302.53   21.45
  -6   0  -2  301.93   43.82
  -6   0  -2  304.65   20.33
  -6   0  -2  297.01   18.85
  -6   0  -2  300.72   21.34
   6   0   2  353.82   38.81
  -7   0  -2  501.75   29.05
  -7   0  -2  457.09   26.08
  -7   0  -2  439.12   53.85
  -7   0  -2  461.84   26.86
  -8   0  -2  177.45   15.22
  -8   0  -2  184.29   14.28
   8   0   2  233.28   35.05
  -9   0  -2   29.24    5.44
 -10   1   2    8.18    6.21
  -9   1   2  230.60   16.33
  -9   1   2  201.56   23.77
  -9   1   2  230.88   21.54
  -8   1   2  284.44   19.25
  -8   1   2  252.10   28.33
  -8   1   2  265.57   25.80
  -8   1   2  204.63   37.48
  -7   1   2  184.16   24.59
  -7   1   2  178.08   15.18
  -7   1   2  160.61   21.20
  -7   1   2  151.56   31.38
   6  -1  -2  349.87   26.48
  -6   1   2  329.67   34.26
  -6   1   2  302.54   19.87
  -6   1   2  296.27   26.38
  -6   1   2  320.05   29.13
   5  -1  -2 1139.79   59.88
   5  -1  -2 1130.56   57.29
  -5   1   2 1184.10   67.63
   4  -1  -2 1014.05   55.04
   4  -1  -2 1116.51   51.73
  -4   1   2 1194.97   54.17
  -4   1   2 1134.47   62.24
   3  -1  -2  394.21   19.90
   3  -1  -2  388.06   22.46
  -3   1   2  410.40   22.74
   2  -1  -2  251.78   14.73
  -2   1   2  259.14   13.14
  -2   1   2  264.04   15.73
   1  -1  -2 3041.94  141.42
  -1   1   2 3566.83  144.57
  -1   1   2 3279.47  142.18
   0  -1  -2    3.15    3.64
   0   1   2    3.85    3.07
  -1  -1  -2  381.38   19.46
   1   1   2  368.40   17.51
   1   1   2  379.59   19.65
  -2  -1  -2 2694.47  119.82
   2   1   2 2682.06  119.85
   2   1   2 2806.74  121.14
  -3  -1  -2  651.15   32.99
   3   1   2  671.46   34.32
   4   1   2  219.33   17.14
  -5  -1  -2  809.78   40.54
  -5  -1  -2  813.22   41.81
  -5  -1  -2  790.72   39.66
   5   1   2  766.78   40.51
   5   1   2  837.61   54.98
  -6  -1  -2  100.32   10.47
  -6  -1  -2  117.74   12.43
  -6  -1  -2  109.56   12.97
   6   1   2   56.79   19.26
  -7  -1  -2   22.74    6.67
  -7  -1  -2   16.80    7.14
   7   1   2   12.99   15.15
  -8  -1  -2  131.88   11.13
  -8  -1  -2  122.58   12.07
   8   1   2  141.45   27.69
  -9   2   2    9.41    5.62
  -9   2   2   13.91    8.32
  -8   2   2   -4.82    7.27
  -8   2   2    8.72    6.32
  -7   2   2  161.56   14.44
  -7   2   2  135.28   31.25
  -7   2   2  142.20   20.37
  -6   2   2   81.74   21.60
  -6   2   2  101.15   16.96
   5  -2  -2  477.60   31.96
  -5   2   2  516.09   38.82
   4  -2  -2 1879.29   89.93
   4  -2  -2 2049.97   94.01
  -4   2   2 2085.23   92.75
  -4   2   2 1995.67   97.86
   3  -2  -2  659.03   34.41
  -3   2   2  662.13   32.54
  -3   2   2  649.37   31.83
  -3   2   2  702.46   35.24
   2  -2  -2  332.40   19.68
  -2   2   2  334.21   16.76
  -2   2   2  317.49   17.09
   1  -2  -2  565.20   29.33
  -1   2   2  576.46   27.48
   0  -2  -2  512.09   27.15
   0   2   2  540.46   26.20
  -1  -2  -2 1322.80   63.72
   1   2   2 1452.00   63.68
  -2  -2  -2   24.64    5.66
   2   2   2   26.68    5.99
  -3  -2  -2  400.13   22.96
   3   2   2  424.83   24.17
  -4  -2  -2  767.02   37.82
  -4  -2  -2  771.79   39.29
   4   2   2  739.09   38.55
   4   2   2  826.62   40.72
   4   2   2  654.72   53.04
  -5  -2  -2   25.02    6.89
  -5  -2  -2   26.57    7.14
  -5  -2  -2   28.65    6.35
   5   2   2   -9.15   13.87
   5   2   2   31.50    7.66
  -6  -2  -2   -2.83    5.38
  -6  -2  -2    3.96    6.25
  -6  -2  -2    7.87    5.13
   6   2   2   -7.68    5.97
   6   2   2   12.15   15.97
  -7  -2  -2  781.42   39.40
  -7  -2  -2  833.01   41.27
   7   2   2  801.04   56.78
   7   2   2  771.80   40.78
  -8  -2  -2  103.45    9.75
   8   2   2   69.20   14.99
  -9   3   2   13.60   10.47
  -8   3   2  434.87   31.22
  -7   3   2   -5.15    7.34
  -4   3   2  323.25   17.67
  -4   3   2  271.87   17.88
   3  -3  -2  157.16   14.40
  -3   3   2  167.44   11.79
  -3   3   2  156.46   11.89
   2  -3  -2  952.97   47.37
  -2   3   2  942.29   44.73
   1  -3  -2  957.24   47.78
  -1   3   2  982.63   46.01
   0  -3  -2  422.54   24.77
   0   3   2  440.98   23.65
  -1  -3  -2  681.03   33.93
   1   3   2  558.23   32.01
   1   3   2  661.65   32.90
  -2  -3  -2  584.58   31.19
   2   3   2  577.66   30.80
   2   3   2  551.02   29.28
  -3  -3  -2 1420.51   68.37
  -3  -3  -2 1443.68   68.94
  -3  -3  -2 1446.10   66.80
   3   3   2 1354.94   68.03
   3   3   2 1533.09   69.40
  -4  -3  -2  222.82   15.34
  -4  -3  -2  209.43   17.00
   4   3   2  167.59   31.68
   4   3   2  244.04   18.07
  -5  -3  -2  156.80   14.92
  -5  -3  -2  143.47   12.39
   5   3   2  142.86   32.41
   5   3   2  140.39   15.44
  -6  -3  -2  501.95   27.59
   6   3   2  422.64   43.14
   6   3   2  427.00   27.68
  -7  -3  -2   -1.16    4.69
   7   3   2   -4.47    5.75
   7   3   2  -20.20    8.77
  -5   4   2   63.56    8.85
  -4   4   2   79.13    8.42
  -4   4   2   77.42   10.45
  -4   4   2   84.56    9.09
  -4   4   2   82.33    9.93
  -4   4   2   68.12    8.94
   3  -4  -2 1361.38   75.46
  -3   4   2 1605.12   73.73
  -3   4   2 1764.71   73.15
   2  -4  -2  161.69   15.39
  -2   4   2  192.65   13.18
  -2   4   2  150.77   13.35
   1  -4  -2   54.39   10.24
  -1   4   2   57.86    7.96
  -1   4   2   59.39    8.96
   0  -4  -2 1341.69   68.58
   0   4   2 1423.43   66.32
   0   4   2 1488.41   67.57
  -1  -4  -2   70.11   10.51
   1   4   2   81.93   10.04
   1   4   2   63.37    8.91
  -2  -4  -2  157.67   15.29
   2   4   2  142.36   14.41
   2   4   2  160.16   13.01
   2   4   2  162.09   14.83
   2   4   2  133.67   12.49
  -3  -4  -2  988.55   49.72
  -3  -4  -2  988.10   47.42
   3   4   2  999.18   49.89
   3   4   2  919.88   46.84
  -4  -4  -2  281.08   18.13
  -4  -4  -2  317.90   21.35
   4   4   2  270.31   29.89
   4   4   2  274.17   21.24
   4   4   2  272.14   18.79
  -5  -4  -2   85.52    9.62
  -5  -4  -2  104.87   12.90
   5   4   2   47.89   14.94
   5   4   2  101.85   13.46
  -6  -4  -2  112.78   11.81
   6   4   2  119.15   13.75
   6   4   2   84.27   16.57
  -7  -4  -2  129.27   10.52
   7   4   2  140.19   10.82
  -5   5   2  278.09   17.69
  -5   5   2  250.23   18.07
  -5   5   2  240.92   17.11
  -5   5   2  279.96   16.84
  -4   5   2  258.85   20.29
  -4   5   2  272.94   17.68
  -4   5   2  275.38   17.83
  -4   5   2  290.49   17.72
  -4   5   2  279.51   20.21
  -4   5   2  266.81   18.89
  -3   5   2   37.47    7.96
  -3   5   2   44.33    8.61
  -3   5   2   38.91    8.29
  -3   5   2   16.65    5.99
  -3   5   2   29.22    6.78
  -3   5   2   29.75    8.49
  -3   5   2   32.82    6.30
  -2   5   2   76.38   10.76
  -2   5   2   53.86    8.89
  -2   5   2   62.32    7.67
  -2   5   2   86.11   10.54
  -2   5   2   37.44    6.81
  -2   5   2   55.21    7.47
  -2   5   2   54.88    9.60
  -1   5   2 1137.52   52.12
  -1   5   2  907.56   49.88
  -1   5   2 1039.90   50.77
  -1   5   2 1097.54   50.11
  -1   5   2 1084.58   53.51
  -1   5   2 1061.08   52.70
  -1   5   2 1157.42   52.83
   0   5   2   20.19    6.69
   0   5   2   25.22    6.46
   0   5   2   14.35    6.91
   0   5   2   14.22    6.23
   0   5   2   13.64    5.97
   0   5   2   16.00    7.52
   0   5   2   12.73    5.20
   0   5   2   15.21    6.73
  -1  -5  -2   -1.82    6.27
   1   5   2    9.13    5.29
   1   5   2    2.48    5.65
   1   5   2    7.14    6.10
   1   5   2    8.98    6.11
   1   5   2    4.00    5.74
   1   5   2    5.40    6.02
  -2  -5  -2  592.43   34.35
   2   5   2  624.22   32.36
   2   5   2  584.97   32.01
   2   5   2  600.56   33.60
  -3  -5  -2  366.86   24.38
  -3  -5  -2  367.21   21.64
   3   5   2  360.35   22.21
   3   5   2  373.85   24.35
  -4  -5  -2    3.18    6.02
  -4  -5  -2    6.71    4.83
   4   5   2   -5.03    4.77
   4   5   2  -10.76    6.12
  -5  -5  -2  286.76   19.03
   5   5   2  298.02   20.34
  -6  -5  -2   82.26    8.32
   6   5   2   76.65    9.05
  -6   6   2   55.69    8.16
  -6   6   2   70.96    8.67
  -5   6   2  149.32   12.05
  -5   6   2  102.21   11.85
  -5   6   2  111.89   13.05
  -5   6   2  124.81   12.50
  -4   6   2  111.25   12.46
  -4   6   2  115.63   12.22
  -4   6   2   96.07   12.79
  -4   6   2  109.62   12.27
  -4   6   2   95.86   14.14
  -4   6   2  103.51   13.46
  -3   6   2  186.69   14.96
  -3   6   2  155.31   14.37
  -3   6   2  168.57   17.65
  -3   6   2  177.26   15.27
  -3   6   2  190.99   19.46
  -3   6   2  176.69   16.12
  -3   6   2  170.21   17.05
  -2   6   2  598.23   34.87
  -2   6   2  610.62   31.61
  -2   6   2  614.76   33.99
  -2   6   2  617.62   33.26
  -2   6   2  549.15   34.29
  -2   6   2  634.42   31.87
  -2   6   2  575.65   31.14
  -1   6   2   52.40    9.85
  -1   6   2   69.22   11.17
  -1   6   2   52.46    8.20
  -1   6   2   44.11    7.30
  -1   6   2   55.74   10.79
  -1   6   2   50.21    8.05
  -1   6   2   48.40    9.76
   0  -6  -2  361.02   25.84
   0   6   2  345.31   21.58
   0   6   2  350.30   24.12
   0   6   2  365.64   24.09
   0   6   2  342.72   21.24
   0   6   2  370.65   25.12
   0   6   2  419.10   22.91
   0   6   2  377.50   23.44
  -1  -6  -2  253.77   20.80
   1   6   2  215.79   19.13
   1   6   2  245.82   17.90
   1   6   2  253.94   18.40
   1   6   2  241.69   16.40
   1   6   2  263.60   18.23
   1   6   2  249.84   17.48
  -2  -6  -2    0.64    6.54
  -2  -6  -2    7.55    5.58
   2   6   2   -0.28    5.37
   2   6   2   -2.70    5.36
   2   6   2    1.79    5.70
  -3  -6  -2   87.20    9.44
  -3  -6  -2   80.69   12.04
   3   6   2   87.38   11.76
   3   6   2   91.26   10.90
  -4  -6  -2  447.86   23.84
  -4  -6  -2  489.90   26.53
   4   6   2  488.57   26.19
   4   6   2  480.63   24.41
  -5  -6  -2   92.74    8.65
   5   6   2   91.82    8.87
  -5   7   2  352.81   19.21
  -5   7   2  347.59   19.41
  -5   7   2  370.02   20.07
  -5   7   2  312.62   21.05
  -4   7   2  104.49   11.14
  -4   7   2   96.68   11.24
  -4   7   2   90.02   12.29
  -4   7   2   99.65   11.67
  -4   7   2  104.99   11.16
  -4   7   2   68.69    9.77
  -3   7   2    6.95    7.37
  -3   7   2   15.43    7.65
  -3   7   2   11.40    7.15
  -3   7   2    4.09    6.80
  -3   7   2    7.29    6.21
  -3   7   2   11.05    6.26
  -2   7   2  282.63   21.20
  -2   7   2  308.33   20.34
  -2   7   2  299.75   21.84
  -2   7   2  278.49   20.98
  -2   7   2  284.06   17.99
  -2   7   2  277.07   18.55
  -2   7   2  274.80   18.70
   1  -7  -2  304.41   23.04
  -1   7   2  325.75   22.71
  -1   7   2  335.28   23.10
  -1   7   2  333.03   21.24
  -1   7   2  285.53   21.89
  -1   7   2  330.64   19.75
  -1   7   2  320.87   19.53
  -1   7   2  324.96   20.03
   0  -7  -2   84.18   12.22
   0   7   2   79.09   11.48
   0   7   2   86.04   11.04
   0   7   2   65.58    8.30
   0   7   2   95.87   10.79
   0   7   2   71.96    9.72
   0   7   2   94.52   10.56
  -1  -7  -2   80.61   12.05
   1   7   2   71.46    9.93
   1   7   2   62.33    8.33
   1   7   2   80.97   10.17
  -2  -7  -2   99.33   11.23
  -2  -7  -2   85.70    8.67
   2   7   2   74.07    9.46
   2   7   2  108.63    9.92
  -3  -7  -2  225.41   12.98
  -3  -7  -2  246.96   15.49
   3   7   2  222.71   14.26
   3   7   2  241.66   13.82
  -4   8   2    2.65    3.70
  -4   8   2    2.45    4.18
  -4   8   2    1.45    3.51
   3  -8  -2   83.71   12.65
  -3   8   2  115.87    9.28
  -3   8   2  108.22    9.68
  -3   8   2  119.15    9.22
  -3   8   2  119.56   10.63
   2  -8  -2   37.55    7.48
  -2   8   2   47.32    6.20
  -2   8   2   57.76    7.72
  -2   8   2   62.46    8.30
  -2   8   2   46.27    6.45
   1  -8  -2   17.19    5.94
  -1   8   2   21.03    4.98
  -1   8   2   25.00    6.37
  -1   8   2   28.43    4.79
  -1   8   2   23.97    4.94
  -1   8   2   28.87    6.18
   0  -8  -2  298.05   16.74
   0  -8  -2  306.87   17.96
   0   8   2  309.70   17.83
   0   8   2  308.22   16.77
   0   8   2  286.00   16.10
  -1  -8  -2   90.20   11.89
  -1  -8  -2   82.16    9.13
   1   8   2   80.18    7.20
   0  10  -3  235.96   14.98
   0 -10   3  252.29   17.81
  -1  10  -3    7.19    3.36
  -1  10  -3    9.82    5.47
   1 -10   3   12.32    7.27
  -2  10  -3   12.81    3.78
   2 -10   3    9.78    8.71
   4   9  -3   94.82    8.57
  -4  -9   3  110.37   11.95
   3   9  -3   28.96    5.48
   3   9  -3   35.31    6.11
  -3  -9   3   32.20    9.14
   2   9  -3   84.85    9.86
   2   9  -3   65.86    7.99
  -2  -9   3   81.94   12.91
  -2  -9   3   57.36    9.11
   1   9  -3  246.12   16.31
  -1  -9   3  215.07   19.34
  -1  -9   3  270.40   21.68
   0   9  -3   43.62    5.76
   0   9  -3   30.55    7.12
   0   9  -3   48.42   10.37
   0  -9   3   47.79   11.72
  -1   9  -3  105.78   12.06
  -1   9  -3  114.65    9.33
  -1   9  -3   90.15   12.90
  -1   9  -3  122.70    9.60
   1  -9   3  102.78   14.13
  -2   9  -3  152.36   15.33
  -2   9  -3  133.88   11.92
  -2   9  -3  128.94   10.07
  -2   9  -3  133.05    9.99
  -2   9  -3  105.36   11.16
  -2   9  -3  123.95   12.73
  -2   9  -3  118.02   15.39
   2  -9   3  144.21   17.66
  -3   9  -3   -2.04    7.20
  -3   9  -3    8.40    7.50
  -3   9  -3    4.97    5.40
  -3   9  -3    4.49    3.90
  -3   9  -3    8.30    4.10
  -3   9  -3   -2.42    4.33
  -4   9  -3   65.25    7.30
  -4   9  -3   62.25    8.37
  -4   9  -3   59.52    9.60
  -4   9  -3   66.81    7.48
  -4   9  -3   71.59   10.02
   5   8  -3    6.46    4.27
  -5  -8   3    2.41    6.94
   4   8  -3  340.34   21.21
   4   8  -3  399.76   20.92
  -4  -8   3  380.36   26.70
   3   8  -3   52.53    7.43
   3   8  -3   47.22    7.52
  -3  -8   3   53.27   11.80
   2   8  -3   47.52    7.32
   2   8  -3   50.42    8.22
  -2  -8   3   73.35   13.88
  -2  -8   3   39.61   10.39
   1   8  -3  118.78    9.72
   1   8  -3  105.47   11.70
   1   8  -3  126.90   15.74
   1   8  -3  105.88   12.51
  -1  -8   3  117.15   16.65
   0   8  -3  271.95   18.27
   0   8  -3  268.43   22.11
   0   8  -3  261.43   15.79
   0  -8   3  261.05   24.70
   0  -8   3  256.80   24.11
  -1   8  -3  241.45   17.46
  -1   8  -3  277.69   21.80
  -1   8  -3  224.15   14.94
  -1   8  -3  242.92   16.76
  -1   8  -3  230.85   16.69
  -1   8  -3  230.92   20.66
  -1   8  -3  233.40   14.95
   1  -8   3  252.99   23.59
  -2   8  -3   24.53    6.51
  -2   8  -3   28.10    6.70
  -2   8  -3   13.01    5.04
  -2   8  -3   24.94    5.68
  -2   8  -3    5.53    9.06
  -2   8  -3   27.93    9.07
  -2   8  -3   24.69    7.12
   2  -8   3   16.20    8.91
  -3   8  -3   70.71   12.70
  -3   8  -3   76.08    9.95
  -3   8  -3   69.86    9.34
  -3   8  -3   69.15   11.66
  -3   8  -3   79.64    8.41
  -3   8  -3   75.61    7.98
   3  -8   3   53.66   12.90
  -4   8  -3  159.41   17.77
  -4   8  -3  159.78   17.97
  -4   8  -3  166.80   11.84
  -4   8  -3  140.09   13.20
  -4   8  -3  157.20   11.87
  -4   8  -3  170.65   13.57
  -5   8  -3   -1.54    7.52
  -5   8  -3    2.59    4.25
  -5   8  -3    1.86    5.17
  -5   8  -3    0.48    4.90
  -5   8  -3   -7.02    6.79
  -6   8  -3    3.62    3.74
  -6   8  -3    6.88    4.64
  -6   8  -3    7.43    6.36
  -6   8  -3    5.55    6.06
   6  -8   3    2.80    6.95
   6   7  -3   19.94    6.39
   6   7  -3   16.11    4.85
  -6  -7   3   22.28    8.09
   5   7  -3  452.33   27.35
   5   7  -3  500.31   25.71
  -5  -7   3  524.18   32.28
   4   7  -3   17.64    5.71
   4   7  -3    2.19    5.08
  -4  -7   3   24.42   11.08
  -4  -7   3   10.94    8.07
   3   7  -3    4.53    4.71
   3   7  -3   16.01    6.09
  -3  -7   3    3.03    9.76
  -3  -7   3    8.65    8.10
   2   7  -3  168.23   18.33
   2   7  -3  177.11   13.34
   2   7  -3  199.71   14.81
  -2  -7   3  182.23   21.88
  -2  -7   3  219.72   22.11
   1   7  -3  189.29   14.42
   1   7  -3  189.87   13.52
   1   7  -3  186.54   18.43
   1   7  -3  182.57   12.42
  -1  -7   3  210.22   20.70
  -1  -7   3  178.22   20.53
   0   7  -3  130.33   11.79
   0   7  -3  123.69   14.88
   0   7  -3  122.58   11.80
   0   7  -3  128.34   15.04
   0   7  -3  111.55    9.89
   0  -7   3  118.78   17.47
  -1   7  -3  661.78   34.43
  -1   7  -3  634.57   32.53
  -1   7  -3  688.85   32.70
  -1   7  -3  692.87   37.52
  -1   7  -3  648.23   33.80
  -1   7  -3  703.69   34.71
  -1   7  -3  694.92   37.62
   1  -7   3  626.82   41.84
  -2   7  -3  213.51   14.93
  -2   7  -3  201.81   18.71
  -2   7  -3  197.21   15.63
  -2   7  -3  222.47   19.16
  -2   7  -3  187.22   15.23
  -2   7  -3  197.25   13.65
  -2   7  -3  216.40   13.68
  -3   7  -3  238.15   19.98
  -3   7  -3  222.96   16.07
  -3   7  -3  247.97   17.55
  -3   7  -3  219.25   21.24
  -3   7  -3  243.96   15.25
  -3   7  -3  229.01   15.22
  -4   7  -3  191.05   35.40
  -4   7  -3  309.66   20.38
  -4   7  -3  315.00   17.89
  -4   7  -3  317.09   18.50
  -4   7  -3  327.78   23.76
  -4   7  -3  319.59   19.74
  -4   7  -3  263.10   24.08
  -5   7  -3  152.99   17.84
  -5   7  -3  145.29   13.33
  -5   7  -3  141.18   11.95
  -5   7  -3  120.97   16.00
  -5   7  -3  134.61   13.57
  -6   7  -3  233.24   19.13
  -6   7  -3  224.14   13.90
  -6   7  -3  198.10   15.41
  -6   7  -3  230.55   19.58
  -6   7  -3  234.05   15.63
  -7   7  -3    6.56    4.48
  -7   7  -3   18.14    6.42
  -7   7  -3    9.86    5.81
   7   6  -3   41.13    5.61
   7   6  -3   38.60    7.28
  -7  -6   3   33.72    7.87
  -7  -6   3   45.57    8.62
   6   6  -3  336.05   21.00
   6   6  -3  327.38   18.91
  -6  -6   3  308.76   24.74
  -6  -6   3  340.26   24.68
   5   6  -3    4.16    5.63
   5   6  -3    4.13    4.50
  -5  -6   3    1.24    7.21
  -5  -6   3   -0.11    9.85
   4   6  -3  405.90   21.65
   4   6  -3  386.77   23.10
   4   6  -3  370.32   21.93
  -4  -6   3  376.72   29.81
  -4  -6   3  412.45   29.57
   3   6  -3 1312.81   60.62
   3   6  -3 1366.91   61.94
  -3  -6   3 1450.62   67.93
  -3  -6   3 1175.48   69.98
   2   6  -3   41.61    6.09
   2   6  -3   40.80    6.44
  -2  -6   3   33.17    9.12
  -2  -6   3   52.89   12.15
   1   6  -3   43.55    6.79
   1   6  -3   75.22   14.89
   1   6  -3   59.27    8.88
   1   6  -3   56.42    9.72
  -1  -6   3   34.16    9.69
  -1  -6   3   61.64    9.28
   0   6  -3  879.67   45.75
   0   6  -3  887.46   43.74
   0   6  -3  949.45   44.90
   0   6  -3  877.23   49.86
   0   6  -3  901.27   43.14
   0   6  -3  899.43   43.53
  -3   6  -3  773.13   39.09
  -3   6  -3  706.04   41.89
  -3   6  -3  752.28   36.81
  -3   6  -3  736.91   38.10
  -3   6  -3  758.05   41.46
  -3   6  -3  949.31   47.72
  -3   6  -3  732.60   37.18
  -4   6  -3  100.92   10.82
  -4   6  -3   84.21    9.97
  -4   6  -3   95.04   11.93
  -4   6  -3  102.37   14.64
  -4   6  -3   86.45   12.49
  -4   6  -3  139.58   37.94
  -4   6  -3  106.18   10.11
  -7   6  -3  189.24   44.96
  -7   6  -3  117.53   13.95
  -7   6  -3  143.60   15.07
  -7   6  -3  128.10   11.68
   8   5  -3  100.02   10.64
  -8  -5   3   93.59   10.69
  -8  -5   3   86.31   12.16
   7   5  -3   86.60    9.02
   7   5  -3  101.13   12.25
  -7  -5   3   98.16   13.15
  -7  -5   3   80.52   15.14
   6   5  -3   96.48   12.42
   6   5  -3   96.14   10.16
  -6  -5   3  105.95   15.45
  -6  -5   3  112.34   17.82
   5   5  -3  275.51   17.80
   5   5  -3  257.30   16.08
  -5  -5   3  256.79   23.31
  -5  -5   3  265.28   24.22
  -5  -5   3  224.88   17.64
   4   5  -3  451.74   24.12
  -4  -5   3  483.14   31.14
  -4  -5   3  464.56   25.87
  -4  -5   3  461.01   33.14
   3   5  -3  424.72   31.14
  -3  -5   3  269.01   20.10
   2   5  -3   86.75    8.81
   2   5  -3   69.69   13.68
  -2  -5   3   87.30    9.97
   1   5  -3  652.20   32.51
   1   5  -3  651.69   37.16
  -1  -5   3  655.30   33.47
   0   5  -3   51.89    6.89
   0   5  -3   42.14    9.57
   0   5  -3   39.16    7.18
   0  -5   3   45.86    6.66
  -1   5  -3   99.45    9.06
  -1   5  -3  108.38    9.48
  -1   5  -3  104.97   13.24
  -2   5  -3 1167.69   54.57
  -2   5  -3 1085.08   53.49
  -2   5  -3 1212.08   59.67
  -3   5  -3   81.15   13.81
  -3   5  -3   78.40    7.98
  -3   5  -3   73.22    9.61
  -3   5  -3   89.30    9.59
  -3   5  -3   79.73   11.85
  -3   5  -3   77.11    9.26
   3  -5   3   88.76   10.35
  -4   5  -3   40.75    9.35
  -4   5  -3   35.19    6.99
  -4   5  -3   26.32    5.48
  -4   5  -3   34.99    8.82
  -4   5  -3   40.51    7.36
  -5   5  -3  433.35   64.69
  -5   5  -3  447.11   28.79
  -5   5  -3  442.33   28.98
  -5   5  -3  447.49   26.09
  -5   5  -3  459.57   25.48
  -5   5  -3  437.13   24.21
  -6   5  -3   71.09    9.71
  -6   5  -3   72.01   12.23
  -6   5  -3   53.17    8.38
  -6   5  -3   77.77   12.14
  -6   5  -3   45.77    6.70
  -8   5  -3  154.24   12.54
  -8   5  -3  167.53   13.24
  -8   5  -3  155.93   11.53
   9   4  -3   28.46    5.88
  -9  -4   3   24.95    6.76
  -9  -4   3   25.98    5.39
   8   4  -3   16.04    6.23
  -8  -4   3   13.45    6.91
  -8  -4   3    9.27    7.37
   7   4  -3  334.69   21.98
   7   4  -3  326.77   19.23
  -7  -4   3  366.25   25.12
  -7  -4   3  361.22   23.11
  -7  -4   3  377.60   29.09
   5   4  -3  147.01   11.58
  -5  -4   3  168.71   18.40
  -5  -4   3  154.83   18.69
  -5  -4   3  164.08   14.04
   4   4  -3  445.23   31.12
  -4  -4   3  427.61   25.80
   3   4  -3 2062.27   93.82
  -3  -4   3 1867.95   89.59
   2   4  -3 1300.83   63.53
   2   4  -3 1558.48   69.14
  -2  -4   3 1406.47   65.32
   1   4  -3  946.75   48.06
   1   4  -3  956.97   43.89
  -1  -4   3  955.05   44.92
   0   4  -3  996.60   45.82
   0   4  -3 1014.29   49.72
   0  -4   3  988.15   46.03
  -1   4  -3  764.14   40.50
  -1   4  -3  793.99   37.04
  -2   4  -3    3.25    6.58
  -2   4  -3    3.85    2.97
  -2   4  -3    1.58    3.61
  -3   4  -3  234.09   19.00
  -3   4  -3  239.97   14.95
   3  -4   3  277.63   16.74
  -4   4  -3  889.95   45.70
  -4   4  -3  841.35   42.56
  -4   4  -3  891.92   42.89
  -4   4  -3  899.16   48.43
  -4   4  -3  881.87   41.49
  -4   4  -3  867.43   57.69
  -4   4  -3  885.48   44.82
   4  -4   3  907.93   44.81
  -5   4  -3   -4.65    4.63
  -5   4  -3   10.17    7.23
  -5   4  -3    9.87    5.41
  -5   4  -3   -0.69    2.96
  -5   4  -3    1.98   13.58
  -5   4  -3    0.03    5.91
  -5   4  -3   -0.18    4.43
  -6   4  -3   35.17    8.82
  -6   4  -3   47.05   18.49
  -6   4  -3   24.35    6.97
  -6   4  -3   15.83    8.47
  -7   4  -3  548.34   30.22
  -7   4  -3  485.87   28.47
  -7   4  -3  797.33   63.30
  -7   4  -3  490.22   31.28
   9   3  -3  103.66   10.17
  -9  -3   3   81.18   12.48
  -9  -3   3  101.98   10.34
  -9  -3   3   70.53   16.26
   8   3  -3  629.31   32.46
  -8  -3   3  628.87   39.08
  -8  -3   3  590.18   32.41
  -8  -3   3  575.99   45.00
  -8  -3   3  584.38   33.40
  -7  -3   3   31.85   10.64
  -7  -3   3   41.25   15.48
  -7  -3   3   28.42    9.20
  -7  -3   3   39.09    9.23
   5   3  -3 1023.02   53.35
  -5  -3   3 1017.40   49.26
  -5  -3   3  882.78   47.38
  -5  -3   3  900.63   53.45
   4   3  -3  226.82   18.91
  -4  -3   3  218.27   16.37
   3   3  -3    6.39    6.43
  -3  -3   3    5.37    4.51
   2   3  -3 1797.20   82.37
   2   3  -3 1777.03   78.74
  -2  -3   3 1792.64   80.72
   1   3  -3  798.73   36.07
   1   3  -3  800.89   39.55
  -1  -3   3  793.76   37.58
   0   3  -3   71.74    5.79
   0   3  -3   74.25    9.27
   0  -3   3   72.32    6.48
  -1   3  -3 1213.63   58.20
  -1   3  -3 1252.25   55.57
  -2   3  -3  884.13   47.07
  -2   3  -3 1034.43   53.01
   2  -3   3  949.07   44.83
  -3   3  -3  984.41   48.24
  -3   3  -3 1080.12   52.36
  -3   3  -3 1030.07   62.74
   3  -3   3 1071.62   49.56
  -4   3  -3  474.85   28.95
  -4   3  -3  444.57   24.50
  -4   3  -3  456.71   39.20
   4  -3   3  479.82   26.78
  -5   3  -3  505.53   45.21
  -5   3  -3  516.39   33.95
  -5   3  -3  536.13   27.63
  -5   3  -3  454.78   29.80
  -5   3  -3  531.86   29.04
  -5   3  -3  516.15   27.48
  -5   3  -3  493.26   25.89
  -6   3  -3  143.77   16.40
  -6   3  -3  240.26   22.37
  -6   3  -3  159.60   15.22
  -6   3  -3  177.58   14.48
  -6   3  -3  157.52   34.30
  -7   3  -3   35.24   15.05
  -7   3  -3   41.55    8.15
  -7   3  -3   23.16    8.44
  -7   3  -3   34.80    7.76
  -8   3  -3   19.45    5.64
  -8   3  -3   44.48   24.88
  -8   3  -3   18.64    6.86
  -8   3  -3   13.24    5.57
   9   2  -3  102.12   10.51
  -9  -2   3  109.55   11.63
  -9  -2   3   99.92   14.94
  -9  -2   3  111.21   19.30
  -7  -2   3  270.95   26.32
  -7  -2   3  256.50   20.39
  -7  -2   3  227.94   31.86
  -7  -2   3  244.30   18.60
  -6  -2   3  630.14   35.71
  -6  -2   3  666.92   45.75
  -6  -2   3  688.99   34.67
  -6  -2   3  625.71   40.63
  -6  -2   3  602.95   31.53
   3   2  -3 2800.91  136.05
  -3  -2   3 2855.71  135.15
  -3  -2   3 3484.01  140.58
   2   2  -3  312.67   17.65
   2   2  -3  281.03   14.15
  -2  -2   3  304.58   16.68
   1   2  -3   10.93    1.74
   1   2  -3   10.83    4.80
  -1  -2   3   18.69    4.56
   0   2  -3 2888.49  128.04
   0  -2   3 2863.70  125.95
   0  -2   3 2985.12  127.10
  -1   2  -3  337.88   18.23
   1  -2   3  289.32   15.73
   1  -2   3  348.66   16.34
  -3   2  -3  736.58   49.93
  -3   2  -3  772.38   38.51
   3  -2   3  744.76   37.09
  -4   2  -3  315.73   18.72
  -4   2  -3  332.28   33.75
  -4   2  -3  341.43   22.00
   4  -2   3  354.94   21.70
  -5   2  -3  351.09   23.76
  -5   2  -3  408.08   40.51
  -5   2  -3  352.52   22.13
  -5   2  -3  373.68   21.54
  -5   2  -3  368.59   27.19
  -6   2  -3  128.92   14.53
  -6   2  -3  122.25   12.86
  -6   2  -3  140.42   17.71
  -6   2  -3  130.51   29.49
  -7   2  -3  242.70   19.30
  -7   2  -3  219.63   16.83
  -7   2  -3  207.56   38.54
  -7   2  -3  272.74   23.56
  -7   2  -3  223.45   16.63
  -8   2  -3  133.82   11.15
  -8   2  -3  141.35   12.07
  -8   2  -3  149.34   13.57
   9   1  -3  142.16   11.88
  -9  -1   3  139.47   17.46
  -9  -1   3  134.80   12.81
  -9  -1   3  128.24   21.41
  -8  -1   3  147.93   25.45
  -8  -1   3  169.61   21.55
  -8  -1   3  130.81   14.90
  -8  -1   3  138.53   14.43
  -7  -1   3  648.53   47.50
  -7  -1   3  558.53   54.14
  -7  -1   3  658.47   42.83
  -7  -1   3  677.26   35.16
  -7  -1   3  679.49   34.89
  -6  -1   3  243.95   17.46
  -6  -1   3  263.44   28.28
  -6  -1   3  243.81   33.02
  -6  -1   3  248.13   17.70
  -6  -1   3  222.48   22.96
   5   1  -3  338.25   22.45
  -5  -1   3  302.22   20.23
  -5  -1   3  316.24   35.58
   4   1  -3 1318.37   61.44
  -4  -1   3 1247.64   59.98
   2   1  -3  474.40   23.26
  -2  -1   3  444.56   23.39
   1   1  -3 5201.24  228.10
  -1  -1   3 5352.67  228.92
   0   1  -3   31.46    4.58
   0  -1   3   22.94    3.02
  -1   1  -3  133.07    8.17
  -1   1  -3  126.38    8.65
   1  -1   3  119.90    8.35
  -2   1  -3 1759.39   79.25
  -2   1  -3 1902.33   87.01
   2  -1   3 1619.00   78.88
  -3   1  -3  340.38   19.79
   3  -1   3  342.78   20.20
  -4   1  -3  104.45    9.46
  -4   1  -3  107.56   25.11
   4  -1   3  106.99   12.06
  -5   1  -3 1530.85   69.96
  -5   1  -3 1581.20   90.95
  -5   1  -3 1388.72   67.48
  -5   1  -3 1444.55   67.78
   5  -1   3 1301.72   88.58
  -6   1  -3  254.22   17.30
  -6   1  -3  268.83   18.17
  -6   1  -3  274.22   20.14
  -6   1  -3  259.32   37.57
   6  -1   3  254.72   39.31
  -7   1  -3   -1.82    4.56
  -7   1  -3   -0.41    6.09
  -7   1  -3    7.37    5.30
  -7   1  -3    3.17    5.24
  -8   1  -3  316.35   19.12
  -8   1  -3  261.94   16.53
  -8   1  -3  292.28   17.13
 -10   0   3  224.44   19.23
  -9   0   3   15.84    6.41
  -9   0   3    8.50    8.06
  -9   0   3   13.03    8.70
  -8   0   3   -4.28    7.68
  -8   0   3    8.06    6.56
  -8   0   3   -6.97    5.77
  -8   0   3   -8.28    4.16
  -8   0   3   -1.12    8.25
  -7   0   3  630.29   57.11
  -7   0   3  692.74   35.40
  -7   0   3  672.65   43.14
  -7   0   3  673.07   47.78
   6   0  -3  254.72   21.25
  -6   0   3  231.89   31.39
  -6   0   3  227.25   22.89
  -6   0   3  241.49   26.50
  -6   0   3  227.12   16.37
   5   0  -3  308.73   20.56
  -5   0   3  252.46   29.32
  -5   0   3  263.24   19.44
   4   0  -3  766.43   37.04
  -4   0   3  716.73   36.88
  -4   0   3  666.81   46.87
   3   0  -3 1970.88   90.02
  -3   0   3 1852.34   90.70
  -3   0   3 2185.62   96.99
   2   0  -3 1497.20   64.29
  -2   0   3 1379.81   66.03
   1   0  -3 1131.57   49.36
  -1   0   3 1109.08   49.12
  -1   0   3 1156.82   52.36
   0   0   3 1076.61   50.47
   0   0   3 1110.81   48.75
  -1   0  -3 3690.69  160.80
   1   0   3 3677.37  160.78
  -2   0  -3  532.86   26.00
   2   0   3  532.15   27.35
  -4   0  -3 2008.61  100.92
  -7   0  -3  429.84   27.83
  -7   0  -3  442.47   25.83
  -7   0  -3  503.29   28.54
   7   0   3  608.58   46.53
  -8   0  -3   48.07    7.48
   8   0   3  102.81   18.50
  -9   1   3    8.99    7.50
  -9   1   3   13.01    8.16
  -8   1   3  279.18   25.18
  -8   1   3  275.47   28.75
  -8   1   3  263.50   38.97
  -7   1   3  112.84   20.76
  -7   1   3  125.23   19.14
  -6   1   3   26.66   10.20
  -6   1   3   30.41    6.82
  -6   1   3   31.79   10.37
   5  -1  -3  772.71   40.02
  -5   1   3  722.65   38.69
  -5   1   3  660.75   48.25
   4  -1  -3  139.01   12.49
  -4   1   3  137.48   20.45
  -4   1   3  124.77   13.18
  -2   1   3 1163.09   54.97
   1  -1  -3  920.15   40.21
  -1   1   3  733.25   37.20
  -1   1   3  862.60   40.44
   0  -1  -3 1129.10   51.89
   0   1   3 1092.97   50.27
  -1  -1  -3 1033.43   49.36
   1   1   3 1068.24   48.87
  -2  -1  -3  405.34   22.19
   2   1   3  427.25   22.91
  -3  -1  -3  512.85   27.67
   3   1   3  579.25   29.96
  -4  -1  -3   31.60    6.70
  -4  -1  -3   53.15    7.79
   4   1   3   34.65    7.94
   4   1   3    5.84   13.26
   4   1   3   32.36    7.99
  -5  -1  -3  234.99   16.44
  -5  -1  -3  250.00   18.43
   5   1   3  259.73   18.92
   5   1   3  234.04   34.34
  -6  -1  -3  616.09   32.57
  -6  -1  -3  653.85   35.19
   6   1   3  616.70   49.86
  -7  -1  -3   -0.85    5.05
  -7  -1  -3    2.91    4.04
   7   1   3    5.13   10.00
  -8  -1  -3   58.63    7.41
   8   1   3   46.01   11.32
  -9   2   3  167.46   16.94
  -8   2   3    5.88    7.06
  -7   2   3  366.92   40.57
  -6   2   3  457.36   40.09
  -5   2   3    0.31    2.54
   4  -2  -3   18.46    7.47
   3  -2  -3 1971.27   91.22
   2  -2  -3  493.59   27.26
   1  -2  -3    1.62    4.86
  -1   2   3    4.63    3.34
   0  -2  -3 1983.67   89.32
   0   2   3 1917.83   87.36
  -1  -2  -3 1551.74   72.42
   1   2   3 1631.82   71.36
   1   2   3 1465.28   70.94
  -2  -2  -3   86.36    9.23
  -2  -2  -3   87.88    9.92
   2   2   3   75.81    9.19
   2   2   3   98.40    9.56
  -3  -2  -3  782.62   38.40
  -3  -2  -3  770.34   39.71
   3   2   3  726.67   39.72
   3   2   3  814.48   40.15
   3   2   3  751.23   49.68
  -4  -2  -3  684.95   33.37
  -4  -2  -3  655.27   34.83
   4   2   3  631.09   47.17
   4   2   3  581.78   34.66
  -5  -2  -3  237.28   18.54
  -5  -2  -3  268.12   16.91
   5   2   3  217.27   18.59
   5   2   3  279.68   32.77
  -6  -2  -3   97.95   12.01
  -6  -2  -3   68.77    9.12
   6   2   3   94.28   12.77
   6   2   3   69.65   17.90
  -7  -2  -3  108.65   10.48
   7   2   3   59.48   14.69
   4  -3  -3  852.01   45.31
  -4   3   3  750.46   41.25
  -4   3   3  800.40   42.55
  -4   3   3  903.39   41.44
   3  -3  -3  120.13   13.98
  -3   3   3  117.35   11.28
   2  -3  -3  338.37   22.91
  -2   3   3  357.35   20.39
   1  -3  -3  941.45   47.66
  -1   3   3  927.98   45.47
   0  -3  -3   93.33   11.06
   0   3   3  100.99   10.09
   0   3   3   88.74   10.33
  -1  -3  -3  109.61   12.14
   1   3   3  114.26   10.98
   1   3   3  104.86   11.50
  -2  -3  -3  775.38   42.31
  -2  -3  -3  804.37   41.89
   2   3   3  786.29   41.65
   2   3   3  841.27   41.72
   2   3   3  826.06   40.48
   2   3   3  774.49   39.71
   2   3   3  761.99   38.58
   2   3   3  893.13   40.85
   2   3   3  822.81   50.40
  -3  -3  -3  126.29   11.72
  -3  -3  -3  114.49   13.28
   3   3   3  111.86   13.70
   3   3   3  152.04   21.38
  -4  -3  -3    9.61    5.18
  -4  -3  -3    1.70    5.62
   4   3   3   -3.14    6.41
   4   3   3   -0.03    7.92
  -5  -3  -3  691.93   34.63
  -5  -3  -3  695.75   36.77
   5   3   3  691.75   37.34
   5   3   3  647.98   49.86
  -6  -3  -3  191.47   12.60
  -6  -3  -3  213.22   15.16
   6   3   3  186.35   15.49
   6   3   3  164.40   25.09
  -7  -3  -3   45.94    6.09
   7   3   3   15.29    7.91
  -5   4   3   95.32   13.06
  -5   4   3   77.49    9.43
  -4   4   3  222.87   17.86
  -4   4   3  240.32   15.91
  -4   4   3  240.97   17.64
  -4   4   3  219.11   16.01
  -4   4   3  222.79   16.75
  -4   4   3  207.75   16.09
  -3   4   3  237.81   19.20
  -3   4   3  302.06   17.57
  -3   4   3  289.75   18.91
  -3   4   3  243.35   17.02
  -3   4   3  274.55   17.46
  -3   4   3  264.63   16.77
  -2   4   3  467.91   26.78
  -2   4   3  509.60   27.54
  -2   4   3  433.66   25.54
  -2   4   3  473.94   25.31
  -2   4   3  467.38   25.08
  -2   4   3  448.12   27.65
  -2   4   3  480.23   25.34
  -1   4   3   55.50    8.71
  -1   4   3   45.51    7.50
  -1   4   3   52.92    9.18
  -1   4   3   37.33    6.69
  -1   4   3   44.59    8.31
  -1   4   3   50.80    8.53
  -1   4   3   47.15    7.16
   0  -4  -3  261.46   20.42
   0   4   3  256.96   16.68
   0   4   3  273.36   19.31
   0   4   3  294.44   18.62
   0   4   3  268.24   17.32
   0   4   3  262.05   19.27
   0   4   3  279.68   18.52
   0   4   3  236.66   19.04
   0   4   3  266.93   17.16
  -1  -4  -3 1489.04   72.00
   1   4   3 1523.98   69.44
   1   4   3 1574.43   71.15
   1   4   3 1295.39   70.02
   1   4   3 1515.02   68.74
   1   4   3 1465.57   69.96
   1   4   3 1597.82   71.20
  -2  -4  -3   11.75    6.04
  -2  -4  -3   19.37    7.33
   2   4   3    5.36    5.52
   2   4   3    8.97    5.01
   2   4   3    3.11    5.82
   2   4   3    7.77    6.88
   2   4   3   16.23    6.21
  -3  -4  -3   44.24    7.92
  -3  -4  -3   32.19    8.38
   3   4   3   23.32    8.02
   3   4   3   22.98    6.36
  -4  -4  -3  533.48   29.79
  -4  -4  -3  531.74   27.54
   4   4   3  449.21   38.33
   4   4   3  552.83   30.54
  -5  -4  -3  101.30    9.32
  -5  -4  -3   97.47   10.92
   5   4   3   81.10   18.36
   5   4   3   96.34   12.53
  -6  -4  -3    7.23    4.34
   6   4   3    2.81    4.88
   6   4   3    4.82    5.89
  -5   5   3  319.45   22.64
  -5   5   3  356.36   20.96
  -5   5   3  404.62   24.47
  -5   5   3  350.84   21.01
  -4   5   3  314.30   22.54
  -4   5   3  346.77   21.52
  -4   5   3  361.90   21.08
  -4   5   3  380.99   23.70
  -4   5   3  332.27   21.27
  -3   5   3  169.53   13.65
  -3   5   3  156.92   16.24
  -3   5   3  164.65   14.94
  -3   5   3  159.24   14.41
  -3   5   3  171.53   17.10
  -3   5   3  146.83   13.80
  -2   5   3  532.07   31.31
  -2   5   3  513.35   29.60
  -2   5   3  514.27   28.42
  -2   5   3  507.35   28.59
  -2   5   3  561.82   29.03
  -2   5   3  562.52   31.82
  -1   5   3  182.16   15.69
  -1   5   3  184.81   17.81
  -1   5   3  178.33   17.03
  -1   5   3  189.70   15.77
  -1   5   3  175.15   14.97
  -1   5   3  172.67   14.26
  -1   5   3  220.17   15.55
  -1   5   3  157.32   16.62
   0  -5  -3  388.93   26.85
   0   5   3  446.40   25.21
   0   5   3  436.88   23.68
   0   5   3  405.51   26.21
   0   5   3  420.03   25.37
   0   5   3  387.05   23.19
   0   5   3  405.23   25.85
   0   5   3  407.26   23.83
  -1  -5  -3  362.04   23.49
   1   5   3  328.11   21.59
   1   5   3  328.46   22.04
   1   5   3  330.81   21.89
   1   5   3  313.60   22.25
   1   5   3  334.57   20.12
   1   5   3  346.77   20.88
  -2  -5  -3  209.99   15.81
  -2  -5  -3  213.30   17.34
   2   5   3  191.10   15.30
   2   5   3  210.31   17.03
  -3  -5  -3  318.06   21.51
  -3  -5  -3  340.20   19.49
   3   5   3  340.64   21.65
   3   5   3  307.04   19.12
  -4  -5  -3   14.56    5.88
  -4  -5  -3   12.89    4.91
   4   5   3   18.11    6.54
  -5  -5  -3  142.01   11.12
  -5  -5  -3  126.39   10.41
   5   5   3  150.04   11.66
  -5   6   3    0.36    5.14
  -5   6   3   11.40    5.36
  -5   6   3    4.40    6.33
  -5   6   3    9.63    6.29
  -5   6   3   10.42    6.59
  -4   6   3   14.16    6.24
  -4   6   3   18.87    6.42
  -4   6   3   16.51    7.82
  -4   6   3   21.15    7.56
  -4   6   3   31.41    8.01
  -3   6   3  621.86   36.31
  -3   6   3  647.78   34.97
  -3   6   3  715.33   36.71
  -3   6   3  659.30   34.09
  -3   6   3  676.43   33.50
  -3   6   3  636.91   33.94
  -2   6   3   16.55    6.24
  -2   6   3   25.29    8.60
  -2   6   3   36.17    8.95
  -2   6   3   25.58    7.08
  -2   6   3   28.79    8.99
  -2   6   3   32.04    7.63
   1  -6  -3   20.41    8.04
  -1   6   3   19.21    8.44
  -1   6   3   17.45    6.32
  -1   6   3   25.58    8.01
  -1   6   3   15.12    8.06
  -1   6   3   17.09    6.69
  -1   6   3   16.33    6.23
   0  -6  -3  267.13   20.99
   0   6   3  288.91   21.09
   0   6   3  287.07   19.82
   0   6   3  320.13   19.08
   0   6   3  278.12   20.62
   0   6   3  314.09   18.89
   0   6   3  303.06   18.41
   0   6   3  306.55   20.13
  -1  -6  -3  498.69   29.17
   1   6   3  516.98   28.74
   1   6   3  514.38   28.11
   1   6   3  520.09   26.41
   1   6   3  472.77   27.90
   1   6   3  506.62   28.71
   1   6   3  554.66   27.72
  -2  -6  -3  109.34   10.17
  -2  -6  -3   93.45   11.48
   2   6   3   95.82   10.30
   2   6   3   87.45   11.32
  -3  -6  -3  218.43   15.28
  -3  -6  -3  232.82   13.81
   3   6   3  240.57   15.78
   3   6   3  232.71   13.91
  -4  -6  -3  113.19   12.40
   4   6   3  118.84    9.83
  -5   7   3   25.49    4.41
  -5   7   3   25.14    4.67
  -4   7   3  258.96   15.64
  -4   7   3  264.22   16.59
  -4   7   3  252.42   15.05
  -4   7   3  245.48   15.15
  -3   7   3   16.01    4.99
  -3   7   3    7.43    6.28
  -3   7   3   20.56    6.34
  -3   7   3   17.11    6.62
  -3   7   3   15.95    5.32
  -3   7   3   11.35    5.35
  -2   7   3   32.94    7.98
  -2   7   3   37.34    8.10
  -2   7   3   53.56    6.74
  -2   7   3   37.39    6.52
  -2   7   3   40.83    7.63
  -2   7   3   33.12    6.34
  -1   7   3  225.19   14.10
  -1   7   3  196.00   13.73
  -1   7   3  226.34   16.20
  -1   7   3  196.94   15.63
  -1   7   3  213.59   14.18
  -1   7   3  204.65   15.09
   0  -7  -3   47.71    7.60
   0  -7  -3   61.93    8.17
   0   7   3   46.82    7.61
   0   7   3   47.23    7.51
   0   7   3   53.58    7.01
   0   7   3   47.71    6.28
   0   7   3   51.17    7.62
  -1  -7  -3   12.90    4.36
  -1  -7  -3    7.16    4.93
   1   7   3    7.43    4.07
  -2  -7  -3  183.13   11.45
   2   7   3  202.06   11.50
   1  10  -4  100.39    9.41
  -1 -10   4   94.64   12.40
   0  10  -4   16.09    5.43
   0  10  -4   17.95    4.76
   0 -10   4   25.65    9.03
  -1  10  -4   84.56   11.44
  -1  10  -4   95.00    7.52
   1 -10   4   96.31   12.73
  -2  10  -4   72.89    6.90
   2 -10   4   78.44   11.71
   4   9  -4    1.41    4.27
  -4  -9   4    8.80    7.32
   3   9  -4    7.98    5.06
   3   9  -4    1.69    4.14
  -3  -9   4    4.10    9.17
   2   9  -4  238.23   15.78
   2   9  -4  240.19   20.29
  -2  -9   4  238.67   21.43
   1   9  -4   33.40    4.99
   1   9  -4   40.33    7.34
  -1  -9   4   28.97    9.93
  -1  -9   4   35.53   11.40
   0   9  -4   97.33   11.45
   0   9  -4   89.75    8.30
   0  -9   4  106.59   17.91
   0  -9   4   87.51   15.10
  -1   9  -4  173.71   14.24
  -1   9  -4  175.60   11.92
  -1   9  -4  156.27   17.26
   1  -9   4  188.42   21.69
   1  -9   4  189.45   21.25
  -2   9  -4   90.07   10.44
  -2   9  -4  100.16   14.52
  -2   9  -4   97.25    9.00
  -2   9  -4   96.20   12.40
  -2   9  -4   95.93    8.81
   2  -9   4   97.06   17.92
  -3   9  -4   80.16    9.69
  -3   9  -4   85.44    8.50
  -3   9  -4   89.00    8.06
  -3   9  -4   85.56   10.01
  -3   9  -4   80.31   11.22
  -3   9  -4   67.18   10.92
   3  -9   4   55.71   12.24
  -4   9  -4    5.44    3.80
  -4   9  -4    3.95    6.57
  -4   9  -4    4.38    4.87
  -4   9  -4   -0.33    3.56
  -4   9  -4    4.91    6.56
   4  -9   4   -2.57    7.63
   5   8  -4    2.33    4.44
  -5  -8   4    0.15    7.95
   4   8  -4    5.82    4.94
   4   8  -4   10.72    5.03
  -4  -8   4   14.26    7.32
  -4  -8   4    8.57    9.88
   3   8  -4  577.89   30.00
   3   8  -4  569.18   29.13
  -3  -8   4  530.14   37.23
  -3  -8   4  589.11   36.70
   2   8  -4   52.44    8.38
   2   8  -4   48.15    7.23
  -2  -8   4   32.05   11.39
  -2  -8   4   33.18   11.95
   1   8  -4   43.36    8.07
   1   8  -4   34.16    5.42
  -1  -8   4   32.20   11.43
  -1  -8   4   45.67   12.89
   0   8  -4  286.44   18.88
   0   8  -4  273.50   16.43
   0  -8   4  281.61   27.18
   0  -8   4  276.90   25.51
  -1   8  -4   55.75    7.17
  -1   8  -4   71.91    7.78
  -1   8  -4   47.88    8.20
  -1   8  -4   60.79   11.49
  -1   8  -4   49.74   11.00
  -1   8  -4   66.97    8.91
   1  -8   4   46.35   12.66
  -2   8  -4    4.30    8.54
  -2   8  -4    2.78    4.30
  -2   8  -4    9.70    8.04
  -2   8  -4    7.02    4.67
  -2   8  -4   -0.65    5.41
  -2   8  -4   -5.15    5.01
   2  -8   4    6.82    9.75
  -3   8  -4  174.77   19.14
  -3   8  -4  200.09   15.07
  -3   8  -4  190.85   15.44
  -3   8  -4  222.54   20.21
  -3   8  -4  206.65   14.02
  -3   8  -4  202.16   13.61
   3  -8   4  198.91   25.85
  -4   8  -4  120.62   10.76
  -4   8  -4  122.84   10.03
  -4   8  -4   94.52   13.42
  -4   8  -4  106.26   12.15
  -4   8  -4  114.81   15.38
  -4   8  -4  109.90   11.81
  -5   8  -4   92.17    9.91
  -5   8  -4   95.10    8.83
  -5   8  -4   74.86   10.76
  -5   8  -4   77.33   11.02
  -5   8  -4   75.31    9.91
  -6   8  -4  115.02   10.28
  -6   8  -4  119.32   10.14
  -6   8  -4   97.87    8.44
  -6   8  -4   97.02   14.66
   6  -8   4   74.54   13.32
   7   7  -4   63.92    8.05
  -7  -7   4   63.67    8.16
   6   7  -4  140.95   10.81
   6   7  -4  138.38   12.69
  -6  -7   4  128.72   15.22
  -6  -7   4  154.98   15.53
   5   7  -4  157.14   12.11
  -5  -7   4  133.20   19.05
  -5  -7   4  145.88   18.63
   4   7  -4  213.92   15.58
   4   7  -4  231.05   15.11
  -4  -7   4  230.87   24.57
  -4  -7   4  208.93   23.28
   3   7  -4  123.85   11.67
   3   7  -4  107.07   10.12
  -3  -7   4  148.74   18.95
  -3  -7   4   63.77   14.17
   2   7  -4  411.65   22.13
   2   7  -4  410.46   23.39
  -2  -7   4  391.95   29.17
  -2  -7   4  396.57   33.00
   1   7  -4  386.05   22.57
   1   7  -4  381.17   20.47
  -1  -7   4  402.60   31.82
  -1  -7   4  365.36   28.12
   0   7  -4    1.23    6.60
   0   7  -4   -0.04    4.83
   0   7  -4    4.53    3.97
   0  -7   4   -0.19    7.98
  -1   7  -4   91.16   11.03
  -1   7  -4   94.44   15.71
  -1   7  -4   74.08   11.47
  -1   7  -4   96.51    9.46
  -1   7  -4   96.18   10.92
  -1   7  -4   97.91    9.17
   1  -7   4   74.65   15.14
  -2   7  -4  572.77   33.67
  -2   7  -4  578.85   28.68
  -2   7  -4  537.21   33.07
  -2   7  -4  560.58   30.69
  -2   7  -4  584.77   28.89
  -2   7  -4  558.82   30.06
  -3   7  -4   12.29    4.91
  -3   7  -4    2.10    7.76
  -3   7  -4    7.05    5.02
  -3   7  -4   12.18    6.09
  -3   7  -4   12.92    8.44
  -3   7  -4    4.19    5.78
  -4   7  -4    5.53    4.65
  -4   7  -4    4.87    6.32
  -4   7  -4   -2.75    7.83
  -4   7  -4    5.14    5.32
  -4   7  -4   18.87    6.90
  -4   7  -4   -4.07    8.21
  -5   7  -4  122.71   34.62
  -5   7  -4  286.47   17.16
  -5   7  -4  316.40   19.29
  -5   7  -4  278.68   19.03
  -5   7  -4  302.14   21.80
  -5   7  -4  280.57   22.26
  -6   7  -4   27.71    7.96
  -6   7  -4   40.40    7.17
  -6   7  -4   33.63    8.12
  -6   7  -4   33.57    8.34
  -6   7  -4   38.05    5.96
   7   6  -4  510.10   26.79
   7   6  -4  500.81   24.77
  -7  -6   4  469.75   27.81
  -7  -6   4  476.53   30.76
   6   6  -4   68.34    9.45
   6   6  -4   77.02    8.84
  -6  -6   4   74.74   12.52
  -6  -6   4   52.39   11.30
   5   6  -4   13.29    6.11
   5   6  -4   14.03    5.37
  -5  -6   4   20.52   10.44
  -5  -6   4   15.34    9.39
   4   6  -4   67.74    7.96
   4   6  -4   65.96    8.55
  -4  -6   4   71.08   14.60
  -4  -6   4   71.78   14.33
   3   6  -4  120.82   10.90
   3   6  -4  120.03   10.26
  -3  -6   4   85.01   16.15
  -3  -6   4  117.03   16.44
   2   6  -4  550.22   27.54
   2   6  -4  502.80   25.93
  -2  -6   4  489.85   35.77
  -2  -6   4  495.93   32.02
   1   6  -4  160.67   12.02
   1   6  -4  158.89   10.80
   1   6  -4  188.51   29.38
   1   6  -4  138.83   14.29
  -1  -6   4  164.15   19.80
   0   6  -4  250.67   15.86
   0   6  -4  260.48   14.95
   0   6  -4  289.18   23.22
   0   6  -4  263.62   18.72
   0   6  -4  247.54   16.28
   0  -6   4  249.87   23.98
  -1   6  -4  631.14   31.83
  -1   6  -4  616.72   32.88
  -1   6  -4  638.61   35.14
  -1   6  -4  672.68   31.74
  -1   6  -4  707.65   33.57
  -2   6  -4  209.21   13.61
  -2   6  -4  210.69   18.06
  -2   6  -4  210.59   15.33
  -2   6  -4  234.09   14.05
  -2   6  -4  203.80   17.83
  -2   6  -4  221.76   14.89
  -3   6  -4   84.60   10.00
  -3   6  -4   59.02    9.20
  -3   6  -4   86.29    8.76
  -3   6  -4   67.64   11.78
  -3   6  -4   75.01    8.38
  -3   6  -4   59.52   11.23
  -4   6  -4  392.74   43.70
  -4   6  -4  403.91   23.99
  -4   6  -4  367.41   27.17
  -4   6  -4  411.94   24.16
  -4   6  -4  400.46   27.14
  -4   6  -4  433.73   22.98
  -4   6  -4  403.94   24.53
  -5   6  -4   17.89    7.29
  -5   6  -4   14.52    8.17
  -5   6  -4   16.07    5.69
  -5   6  -4   17.00    6.72
  -5   6  -4    8.81    8.01
  -6   6  -4    9.32    4.75
  -6   6  -4   11.90    7.61
  -6   6  -4    4.01    5.90
  -6   6  -4    5.67    7.27
  -6   6  -4    5.02    6.16
  -7   6  -4  106.68   17.22
  -7   6  -4  142.90   11.27
  -7   6  -4  143.00   12.47
  -7   6  -4  148.64   13.22
   8   5  -4  228.76   15.34
  -8  -5   4  204.79   14.84
  -8  -5   4  206.67   18.60
   7   5  -4   30.51    7.58
   7   5  -4   22.68    5.23
  -7  -5   4   27.04    8.87
  -7  -5   4   31.78   10.10
   6   5  -4   37.41    6.33
  -6  -5   4   14.39    6.73
  -6  -5   4   25.45    9.91
  -6  -5   4   25.71   10.43
   5   5  -4  862.20   42.31
  -5  -5   4  944.98   53.72
  -5  -5   4  893.81   48.63
  -5  -5   4  836.43   44.23
   4   5  -4   97.49    9.03
   4   5  -4   84.85    9.18
  -4  -5   4   62.76   13.56
  -4  -5   4   94.38   11.14
  -4  -5   4   96.25   14.77
   3   5  -4   30.49    5.48
   3   5  -4   29.99    6.11
   3   5  -4   59.07   14.05
  -3  -5   4   33.95    7.87
  -3  -5   4   20.51    9.49
   2   5  -4 1527.83   75.99
   1   5  -4  351.84   24.04
  -1  -5   4  333.01   20.31
   0   5  -4  700.59   37.73
   0   5  -4  619.00   31.67
  -1   5  -4  655.65   36.58
  -1   5  -4  598.11   30.96
  -1   5  -4  624.11   33.76
  -2   5  -4  361.04   21.13
  -2   5  -4  367.11   26.03
   2  -5   4  399.01   22.20
  -3   5  -4  537.65   28.54
  -3   5  -4  536.36   27.20
  -3   5  -4  556.79   30.51
  -3   5  -4  586.33   29.27
  -3   5  -4  483.47   30.89
  -3   5  -4  527.56   26.81
   3  -5   4  526.44   30.09
  -4   5  -4   49.92   10.45
  -4   5  -4   41.75    6.78
  -4   5  -4   45.08    8.28
  -4   5  -4   37.19    7.72
  -4   5  -4   49.50    9.32
  -5   5  -4  397.21   24.87
  -5   5  -4  385.32   23.68
  -5   5  -4  374.95   21.77
  -5   5  -4  362.08   26.59
  -5   5  -4  390.76   23.77
  -6   5  -4  415.01   24.97
  -6   5  -4  462.22   25.49
  -6   5  -4  414.59   27.54
  -6   5  -4  408.33   22.98
  -6   5  -4  422.56   25.60
  -7   5  -4   31.90    7.70
  -7   5  -4   25.21    6.68
  -7   5  -4   32.44    7.03
  -7   5  -4  -13.88   32.14
   9   4  -4  103.61    9.64
  -9  -4   4  104.56   12.78
   8   4  -4   -3.33    4.96
  -8  -4   4    9.89    8.02
  -8  -4   4    1.82    5.94
   7   4  -4  157.15   12.30
  -7  -4   4  201.46   22.92
  -7  -4   4  162.21   15.60
  -7  -4   4  178.40   17.78
   6   4  -4 1009.75   49.10
  -6  -4   4 1107.57   54.48
  -6  -4   4  998.74   51.62
  -6  -4   4 1083.99   60.20
   4   4  -4  116.61   16.16
  -4  -4   4  110.51   20.23
  -4  -4   4  133.11   12.83
  -4  -4   4  132.21   12.52
   3   4  -4 1182.17   58.95
  -3  -4   4 1126.52   55.96
   2   4  -4   11.51    8.25
  -2  -4   4   11.40    4.70
   1   4  -4   10.91    7.06
  -1  -4   4    9.65    4.46
   0   4  -4 1397.03   67.67
   0   4  -4 1429.91   71.84
  -1   4  -4  580.26   29.47
  -1   4  -4  540.34   29.45
  -1   4  -4  607.26   33.41
  -1   4  -4  683.64   38.99
  -2   4  -4    3.42    3.78
  -2   4  -4   -0.68    2.37
  -2   4  -4    2.43    6.37
   2  -4   4    5.91    4.05
  -3   4  -4  924.56   61.22
  -3   4  -4  908.17   48.92
  -3   4  -4  952.10   44.95
   3  -4   4  920.52   45.73
  -4   4  -4   93.22   11.04
  -4   4  -4  125.85   11.44
  -4   4  -4   96.33   24.71
  -4   4  -4  111.58   12.21
  -4   4  -4  110.98   13.98
  -4   4  -4  106.10    9.79
  -5   4  -4  139.25   13.72
  -5   4  -4  154.43   13.89
  -5   4  -4  143.56   15.90
  -5   4  -4  159.60   14.08
  -5   4  -4  130.66   31.72
  -6   4  -4  171.15   14.70
  -6   4  -4  152.96   16.87
  -6   4  -4  164.47   14.37
  -6   4  -4  162.94   17.15
  -7   4  -4  100.00   35.03
  -7   4  -4   57.53    8.15
  -7   4  -4   49.52    9.01
  -7   4  -4   50.65    8.09
  -8   4  -4  189.03   12.17
  -8   4  -4  208.95   13.57
   9   3  -4   94.20   10.36
  -9  -3   4   85.27   16.54
  -9  -3   4  101.23   10.05
  -9  -3   4   94.86   14.08
   7   3  -4  155.23   11.82
  -7  -3   4  155.96   16.58
  -7  -3   4  163.29   16.10
  -7  -3   4  186.14   23.23
  -7  -3   4  149.38   29.81
  -6  -3   4  109.91   10.44
  -6  -3   4  120.89   15.21
  -6  -3   4  108.67   12.97
  -6  -3   4  112.67   19.02
   5   3  -4  555.45   33.32
  -5  -3   4  497.52   28.87
  -5  -3   4  515.94   27.07
  -5  -3   4  558.63   31.71
  -5  -3   4  533.37   36.07
   4   3  -4 1155.24   57.68
  -4  -3   4 1133.04   56.13
   3   3  -4  137.64   12.42
  -3  -3   4  128.06   11.76
   2   3  -4  524.23   28.94
  -2  -3   4  522.72   27.54
   1   3  -4 1384.40   65.19
  -1  -3   4 1400.41   63.95
   0   3  -4   74.43    9.55
   0  -3   4   90.25    7.84
  -1   3  -4  157.54   23.83
  -1   3  -4  195.35   14.02
   1  -3   4  194.84   11.23
  -2   3  -4 1132.25   68.74
  -2   3  -4 1162.79   55.88
  -2   3  -4 1258.60   58.68
   2  -3   4 1295.79   56.42
  -3   3  -4   44.21    6.71
  -3   3  -4   45.72    9.14
   3  -3   4   65.39    9.02
  -4   3  -4  140.17   15.25
  -4   3  -4  150.59   12.78
  -4   3  -4  134.44   10.78
  -4   3  -4  159.53   12.73
  -4   3  -4  153.92   27.57
  -4   3  -4  140.21   14.57
   4  -3   4  143.32   14.59
  -5   3  -4  583.38   51.87
  -5   3  -4  563.79   28.60
  -5   3  -4  543.50   30.40
  -5   3  -4  512.14   30.32
  -5   3  -4  578.52   30.43
  -5   3  -4  588.34   33.25
  -6   3  -4  344.35   21.52
  -6   3  -4  356.01   22.43
  -6   3  -4  376.97   24.33
  -6   3  -4  346.27   45.99
  -7   3  -4  116.96   11.31
  -7   3  -4  111.31   11.70
  -7   3  -4  140.40   13.41
  -8   3  -4  125.65   10.83
  -8   3  -4  117.53    9.44
  -9  -2   4   87.42   10.64
  -9  -2   4  103.75   19.01
  -9  -2   4  111.16   15.83
  -8  -2   4    5.60    8.87
  -8  -2   4    4.49    9.62
  -8  -2   4   10.64    6.76
  -7  -2   4  356.47   30.68
  -7  -2   4  346.21   36.60
  -7  -2   4  361.58   23.41
  -7  -2   4  361.63   20.28
  -7  -2   4  352.60   47.75
  -6  -2   4  232.52   38.32
  -6  -2   4  277.39   30.63
  -6  -2   4  240.61   24.04
  -6  -2   4  224.91   15.19
   5   2  -4  447.52   28.04
  -5  -2   4  423.43   26.80
  -5  -2   4  467.55   43.61
   4   2  -4  344.28   21.82
  -4  -2   4  336.32   21.47
   3   2  -4 1325.81   62.43
  -3  -2   4 1321.55   62.28
   2   2  -4 1083.57   51.64
  -2  -2   4 1111.94   51.91
   1   2  -4  303.46   17.28
  -1  -2   4  309.38   17.76
   0   2  -4  449.23   22.31
   0   2  -4  353.60   36.76
   0  -2   4  453.64   22.50
  -1   2  -4 2491.83  122.77
  -1   2  -4 2590.09  113.06
  -2   2  -4   28.68    6.27
  -2   2  -4   19.59    5.26
   2  -2   4   18.94    4.95
  -3   2  -4  590.32   31.46
  -3   2  -4  601.07   46.59
   3  -2   4  681.32   33.56
  -4   2  -4  880.36   44.61
  -4   2  -4  899.64   61.92
  -4   2  -4  915.29   42.98
  -4   2  -4  796.52   42.52
  -4   2  -4  858.81   41.25
   4  -2   4  878.21   45.94
  -5   2  -4   14.97    6.02
  -5   2  -4   10.49    5.16
  -5   2  -4   17.02    6.93
  -6   2  -4   12.85    6.29
  -6   2  -4   22.85    7.46
  -6   2  -4    3.58    4.29
  -7   2  -4  244.21   17.45
  -7   2  -4  244.29   16.22
  -7   2  -4  199.51   32.35
  -8   2  -4  163.68   12.25
  -8   2  -4  179.56   11.35
  -9  -1   4   45.38   10.41
  -9  -1   4   43.94   11.49
  -9  -1   4   52.48    7.62
  -8  -1   4  380.67   30.22
  -8  -1   4  324.50   46.91
  -8  -1   4  396.16   24.02
  -8  -1   4  401.34   36.11
  -7  -1   4   -7.75    4.57
  -7  -1   4    1.07    8.09
  -7  -1   4    7.29    6.47
  -7  -1   4    7.68    9.50
  -6  -1   4    0.14    7.33
  -6  -1   4   -2.88    3.57
  -6  -1   4   -1.48    5.54
  -6  -1   4    1.35    3.94
  -6  -1   4    1.43    8.42
   5   1  -4 1525.23   70.64
  -5  -1   4 1460.38   70.43
  -5  -1   4 1369.63   84.97
   4   1  -4  587.64   31.72
  -4  -1   4  602.57   32.63
  -4  -1   4  597.87   47.97
   2   1  -4 2154.57   96.32
  -2  -1   4 2193.61   98.44
  -2  -1   4 2166.34  108.07
   0   1  -4  565.89   39.07
   0  -1   4  507.89   26.96
  -2   1  -4  917.67   45.91
   2  -1   4 1019.38   46.56
  -3   1  -4  612.43   48.59
  -3   1  -4  571.39   30.33
   3  -1   4  599.89   32.41
  -4   1  -4   57.91    7.19
  -4   1  -4   50.10    7.69
  -4   1  -4   71.60   10.67
  -4   1  -4   63.95    8.24
   4  -1   4   60.09   10.78
  -5   1  -4  227.83   16.16
  -5   1  -4  205.15   38.61
  -5   1  -4  225.79   17.29
  -6   1  -4  346.38   47.82
  -6   1  -4  392.85   24.29
  -6   1  -4  403.23   22.96
  -7   1  -4   29.35    6.36
  -7   1  -4   30.45    7.16
  -8   1  -4    3.26    4.02
  -9   0   4  374.51   31.01
  -9   0   4  367.27   25.86
  -8   0   4    9.06    6.53
  -8   0   4   12.80    9.60
  -8   0   4    9.24    8.29
  -8   0   4   -0.77    5.49
  -7   0   4  128.62   14.16
  -7   0   4  132.61   18.43
  -7   0   4  142.92   23.57
  -6   0   4  647.48   58.09
  -6   0   4  723.08   35.55
  -6   0   4  680.71   49.78
  -6   0   4  761.49   50.17
  -6   0   4  790.55   38.23
  -5   0   4   17.61    7.77
  -4   0   4    3.23    3.04
  -4   0   4    7.20    6.20
  -3   0   4 1787.71   84.10
  -3   0   4 1832.58   94.86
  -2   0   4  231.32   15.22
  -2   0   4  157.48   44.08
  -1   0   4    9.89    4.79
   0   0  -4 2363.49  108.88
  -2   0  -4  787.62   39.88
   2   0   4  861.27   41.19
  -3   0  -4  586.68   29.74
   3   0   4  549.57   30.95
  -4   0  -4  580.41   30.69
  -4   0  -4  537.29   30.30
  -4   0  -4  555.14   31.71
   4   0   4  678.57   44.58
  -5   0  -4  215.38   16.31
  -5   0  -4  212.73   17.75
   5   0   4  324.70   32.25
  -7   0  -4  104.69    9.90
  -7   0  -4  104.09   11.25
   7   0   4  141.81   23.11
  -9   1   4  142.25   19.27
  -7   1   4  221.15   16.67
  -7   1   4  160.23   40.57
  -7   1   4  217.09   26.72
  -6   1   4   25.18   10.66
  -6   1   4   29.62    7.81
  -5   1   4  249.31   16.59
  -5   1   4  243.79   19.85
  -5   1   4  264.95   18.54
  -5   1   4  261.81   27.53
  -5   1   4  205.27   30.20
  -4   1   4 1515.10   86.68
  -4   1   4 1646.71   75.66
  -3   1   4    6.67    3.39
  -3   1   4   -0.72    5.52
   2  -1  -4  496.79   26.09
  -2   1   4  417.70   25.68
   1  -1  -4 3114.21  129.46
  -1   1   4 2596.01  133.17
   0  -1  -4   15.47    5.25
   0   1   4   13.77    4.74
  -1  -1  -4   81.60    9.16
  -1  -1  -4   74.22    9.10
   1   1   4   69.49    8.83
  -2  -1  -4 1673.00   76.66
  -3  -1  -4  379.34   21.83
  -3  -1  -4  350.88   20.36
  -3  -1  -4  401.68   22.19
  -3  -1  -4  370.86   22.60
   3   1   4  436.50   34.13
   3   1   4  362.44   23.34
  -4  -1  -4  142.00   12.53
  -4  -1  -4  130.25   13.11
   4   1   4  190.60   25.27
   4   1   4  140.01   14.33
  -5  -1  -4  693.60   37.67
  -5  -1  -4  746.30   36.44
   5   1   4  689.80   51.56
  -6  -1  -4  247.10   17.39
  -6  -1  -4  262.93   16.15
   6   1   4  211.84   27.22
  -7  -1  -4   79.50    9.02
  -7  -1  -4   72.06    7.40
   7   1   4   74.57   17.61
  -5   2   4  227.65   23.82
  -5   2   4  235.34   17.42
  -5   2   4  202.75   30.88
  -5   2   4  188.88   14.85
   4  -2  -4  501.62   29.89
  -4   2   4  478.14   26.29
  -4   2   4  504.06   28.22
  -4   2   4  469.83   26.33
  -4   2   4  506.80   27.77
   3  -2  -4  455.29   26.50
  -3   2   4  395.24   24.05
   2  -2  -4 1184.02   56.38
  -2   2   4 1096.20   54.50
   1  -2  -4  137.27   12.71
  -1   2   4  150.35   12.47
   0  -2  -4  311.14   19.68
   0   2   4  267.92   17.83
  -1  -2  -4  962.84   48.29
   1   2   4  948.16   46.62
  -2  -2  -4    0.50    4.34
  -2  -2  -4    7.08    5.17
   2   2   4    4.28    5.76
   2   2   4    3.85    4.32
   2   2   4    8.90    6.69
  -3  -2  -4   97.37   10.27
  -3  -2  -4   80.29    8.58
  -3  -2  -4   90.68   10.64
  -3  -2  -4   81.35   10.98
   3   2   4  105.12   19.70
   3   2   4   95.82   12.55
  -4  -2  -4  662.74   33.04
  -4  -2  -4  653.66   34.43
   4   2   4  578.11   34.09
   4   2   4  605.59   46.95
  -5  -2  -4   42.60    8.13
  -5  -2  -4   54.68    8.02
   5   2   4   25.11   11.72
   5   2   4   37.47    8.02
  -6  -2  -4    7.66    4.50
  -6  -2  -4   -0.30    4.28
   6   2   4   -8.43    7.56
   7   2   4  346.29   25.77
  -5   3   4  316.48   20.23
  -5   3   4  344.47   21.89
  -4   3   4  151.98   14.88
  -4   3   4  143.40   12.94
  -4   3   4  146.75   13.12
  -4   3   4  158.50   13.15
  -4   3   4  138.39   14.60
  -4   3   4  144.13   14.64
  -3   3   4  182.33   15.68
  -3   3   4  182.64   15.73
  -3   3   4  196.72   16.33
  -3   3   4  192.26   14.12
  -3   3   4  181.07   14.60
  -3   3   4  193.72   14.58
  -2   3   4  366.98   22.59
  -2   3   4  318.13   20.17
  -2   3   4  350.60   19.92
  -2   3   4  320.93   20.29
  -2   3   4  313.51   21.58
  -2   3   4  362.21   21.92
  -2   3   4  365.52   20.44
  -1   3   4  883.66   45.44
  -1   3   4 1027.22   47.69
  -1   3   4  978.82   45.15
  -1   3   4  951.73   47.13
  -1   3   4  880.53   44.55
  -1   3   4  919.70   44.79
  -1   3   4  918.04   46.71
   0   3   4  452.74   25.69
   0   3   4  403.54   25.08
   0   3   4  434.79   24.38
   0   3   4  413.42   23.42
   0   3   4  433.51   25.13
   0   3   4  415.81   23.34
   0   3   4  410.46   23.16
   1   3   4  329.10   20.84
   1   3   4  332.48   19.10
   1   3   4  287.72   29.31
   1   3   4  320.50   20.90
   1   3   4  337.07   20.33
   1   3   4  303.04   19.20
  -2  -3  -4  477.54   25.48
  -2  -3  -4  450.66   26.58
  -2  -3  -4  450.28   25.15
   2   3   4  419.61   36.05
   2   3   4  420.83   24.22
   2   3   4  454.48   23.73
   2   3   4  419.72   26.21
  -3  -3  -4  553.23   28.38
  -3  -3  -4  507.33   29.25
   3   3   4  471.93   40.15
  -4  -3  -4    7.66    5.79
  -4  -3  -4    4.43    5.15
   4   3   4   -8.78    8.10
   4   3   4   -3.42    5.48
  -5  -3  -4   58.84    7.88
  -5  -3  -4   58.89    8.11
   5   3   4   24.48   10.98
   5   3   4   52.19    8.21
  -6  -3  -4  399.59   21.30
  -6  -3  -4  402.61   20.19
   6   3   4  387.98   21.25
   6   3   4  424.09   30.10
  -5   4   4   93.67   12.56
  -5   4   4   80.75    9.19
  -5   4   4   73.13   10.93
  -4   4   4   17.16    6.95
  -4   4   4   19.12    8.13
  -4   4   4   18.70    7.81
  -4   4   4   23.66    6.65
  -4   4   4   23.99    6.93
  -3   4   4  718.50   38.51
  -3   4   4  713.55   38.87
  -3   4   4  747.49   38.93
  -3   4   4  715.25   36.00
  -3   4   4  637.11   36.22
  -3   4   4  741.54   36.52
  -3   4   4  720.55   36.51
  -2   4   4  350.55   23.11
  -2   4   4  339.42   20.64
  -2   4   4  323.47   22.95
  -2   4   4  326.15   20.84
  -2   4   4  339.14   20.78
  -2   4   4  327.07   20.58
  -2   4   4  328.65   22.25
  -1   4   4   13.86    5.85
  -1   4   4    2.83    5.58
  -1   4   4    8.08    6.78
  -1   4   4    3.41    5.28
  -1   4   4   14.90    6.04
  -1   4   4    2.00    6.55
  -1   4   4   13.06    6.64
   0   4   4  359.56   21.42
   0   4   4  368.29   23.91
   0   4   4  337.95   23.04
   0   4   4  354.44   23.23
   0   4   4  353.20   20.67
   0   4   4  354.75   21.34
   0   4   4  371.02   22.32
  -1  -4  -4  287.52   18.87
   1   4   4  300.74   19.33
   1   4   4  265.54   17.82
   1   4   4  269.96   18.30
   1   4   4  259.29   19.60
   1   4   4  299.41   20.32
  -2  -4  -4  296.83   18.07
  -2  -4  -4  233.90   16.92
  -2  -4  -4  247.67   18.45
   2   4   4  250.80   16.86
   2   4   4  266.93   19.21
   2   4   4  252.49   16.21
  -3  -4  -4  341.89   21.73
  -3  -4  -4  345.53   20.82
   3   4   4  365.61   22.72
  -4  -4  -4  350.00   20.71
  -4  -4  -4  354.81   19.63
   4   4   4  310.93   28.14
   4   4   4  375.59   21.83
  -5  -4  -4  125.93    9.95
  -5  -4  -4  126.47    8.96
   5   4   4  118.95   10.48
   5   4   4  123.17   19.86
  -5   5   4  141.27   12.06
  -5   5   4  160.63   14.13
  -5   5   4  135.05   14.22
  -5   5   4  147.27   12.26
  -4   5   4  271.56   19.24
  -4   5   4  258.08   17.19
  -4   5   4  237.68   16.83
  -4   5   4  228.47   19.18
  -4   5   4  242.07   16.55
  -3   5   4   16.26    6.64
  -3   5   4   11.01    7.71
  -3   5   4   11.10    5.81
  -3   5   4    4.89    7.38
  -3   5   4   12.71    6.35
  -3   5   4   11.63    6.91
  -2   5   4   35.86    9.06
  -2   5   4   34.49    7.37
  -2   5   4   29.70    8.88
  -2   5   4   45.97    9.52
  -2   5   4   34.86    7.27
  -2   5   4   30.22    7.19
  -2   5   4   38.88    8.20
  -1   5   4  920.51   47.28
  -1   5   4  954.11   47.24
  -1   5   4  951.09   45.08
  -1   5   4  906.73   45.51
  -1   5   4  889.69   44.63
  -1   5   4  881.95   44.29
  -1   5   4  894.83   46.50
   0   5   4   81.77    9.54
   0   5   4   77.53    8.97
   0   5   4   58.98   10.13
   0   5   4   69.73   10.27
   0   5   4   78.66   11.05
   0   5   4   64.95    8.03
   0   5   4   86.28   11.34
  -1  -5  -4   -0.73    5.11
  -1  -5  -4    6.69    5.66
   1   5   4    6.77    4.94
   1   5   4    5.20    6.22
   1   5   4    5.38    5.88
   1   5   4    4.55    5.17
  -2  -5  -4  489.26   28.12
  -2  -5  -4  528.76   27.64
   2   5   4  521.24   26.84
   2   5   4  547.85   29.38
  -3  -5  -4  130.29   11.28
  -3  -5  -4  138.02   10.68
   3   5   4  130.70   12.46
  -4  -5  -4   35.55    4.76
   4   5   4   25.89    5.69
  -5   6   4  179.34   11.20
  -5   6   4  175.96   12.79
  -5   6   4  157.33   11.25
  -4   6   4   38.66    7.72
  -4   6   4   41.48    7.85
  -4   6   4   41.18    6.66
  -4   6   4   31.40    5.69
  -4   6   4   48.02    7.05
  -4   6   4   44.24    6.68
  -3   6   4   66.72    8.86
  -3   6   4   60.15    9.38
  -3   6   4   65.09    8.25
  -3   6   4   86.13    9.93
  -3   6   4   66.90   10.18
  -3   6   4   64.94    7.81
  -2   6   4  571.62   29.71
  -2   6   4  575.22   29.56
  -2   6   4  579.53   29.33
  -2   6   4  597.91   31.75
  -2   6   4  559.25   31.69
  -2   6   4  592.54   30.48
  -1   6   4   31.99    6.41
  -1   6   4   25.87    5.86
  -1   6   4   25.61    7.58
  -1   6   4   18.41    6.77
  -1   6   4   31.26    7.11
  -1   6   4   28.74    6.18
   0  -6  -4   59.77    8.21
   0  -6  -4   57.74    8.01
   0   6   4   45.36    7.79
   0   6   4   61.38    6.58
   0   6   4   52.56    7.97
   0   6   4   75.30    9.19
   0   6   4   59.64    8.76
   0   6   4   58.94    7.27
  -1  -6  -4  222.18   14.05
   1   6   4  238.94   13.87
   1   6   4  201.35   12.63
   1   6   4  204.71   14.64
  -2  -6  -4   23.52    4.74
   2   6   4   19.74    5.21
   2   6   4   20.86    4.26
  -3   7   4   51.41    6.40
  -3   7   4   38.47    5.16
  -3   7   4   47.29    5.14
   2  -7  -4   58.94    7.45
  -2   7   4   76.94    6.96
  -2   7   4   81.01    7.99
  -2   7   4   65.35    7.29
  -2   7   4   81.44    7.19
   1  -7  -4  227.29   12.89
  -1   7   4  226.31   12.52
  -1   7   4  187.08   14.45
  -1   7   4  217.77   13.29
   1  10  -5    8.56    4.80
  -1 -10   5   -3.10    7.37
   0  10  -5  204.76   13.90
   0  10  -5  224.75   12.33
   0 -10   5  199.24   18.00
  -1  10  -5   15.29    3.70
   1 -10   5   11.60    8.41
   4   9  -5  316.29   16.91
   4   9  -5  299.48   16.59
  -4  -9   5  281.79   20.10
   3   9  -5   15.43    5.35
   3   9  -5   20.34    5.66
  -3  -9   5   19.65    9.48
  -3  -9   5   18.62    8.06
   2   9  -5   62.02    8.33
  -2  -9   5   61.25   12.40
  -2  -9   5   48.85   11.77
   1   9  -5  295.70   16.27
   1   9  -5  342.81   19.35
  -1  -9   5  256.41   26.87
  -1  -9   5  293.31   24.55
   0   9  -5   17.46    4.55
   0   9  -5   17.39    6.52
   0  -9   5   17.62   10.51
   0  -9   5   22.22   10.72
  -1   9  -5    3.31    4.02
  -1   9  -5    5.08    5.56
   1  -9   5   -2.40    9.17
   1  -9   5    0.04    9.32
  -2   9  -5  282.45   16.01
  -2   9  -5  256.48   17.78
  -2   9  -5  281.67   19.58
  -2   9  -5  322.44   16.39
   2  -9   5  246.85   26.05
   2  -9   5  300.44   23.24
  -3   9  -5   28.32    4.99
  -3   9  -5   41.04    8.26
  -3   9  -5   26.05    5.25
   3  -9   5   18.38   10.07
  -4   9  -5   13.84    5.68
  -4   9  -5    7.89    3.90
   4  -9   5   13.40    8.28
   5   8  -5    8.35    4.58
  -5  -8   5   -0.24    7.11
  -5  -8   5    6.62    6.45
   4   8  -5  341.37   19.18
   4   8  -5  329.68   19.26
  -4  -8   5  315.18   26.72
  -4  -8   5  294.21   24.35
   3   8  -5   33.12    6.62
   3   8  -5   34.74    7.04
  -3  -8   5   29.58   11.33
  -3  -8   5   37.40   11.69
   2   8  -5  152.71   13.96
  -2  -8   5  147.67   22.98
  -2  -8   5  187.97   20.56
   1   8  -5  130.67   10.46
   1   8  -5  135.93   13.31
  -1  -8   5  126.45   22.39
  -1  -8   5  124.38   16.94
   0   8  -5  153.25   11.80
   0   8  -5  152.59   14.02
   0  -8   5  160.82   20.65
   0  -8   5  163.35   23.83
  -1   8  -5  267.14   20.49
  -1   8  -5  273.55   16.41
  -1   8  -5  247.81   15.94
  -1   8  -5  269.09   18.08
  -1   8  -5  248.67   17.76
   1  -8   5  269.87   28.03
  -2   8  -5    0.71    7.15
  -2   8  -5    0.10    4.53
  -2   8  -5   -6.17    5.37
  -2   8  -5   -2.88    4.26
   2  -8   5   -2.27    8.72
  -3   8  -5   98.81    9.88
  -3   8  -5  101.96   12.78
  -3   8  -5  106.78   14.03
  -3   8  -5   84.57   11.18
  -3   8  -5  113.67   10.99
   3  -8   5  107.61   20.49
  -4   8  -5  268.11   20.86
  -4   8  -5  308.18   17.26
  -4   8  -5  301.20   18.50
  -4   8  -5  285.83   19.52
  -4   8  -5  266.83   18.73
  -4   8  -5  258.63   15.78
   4  -8   5  311.34   27.07
  -5   8  -5    7.16    5.91
  -5   8  -5   14.33    5.47
  -5   8  -5   13.40    5.71
  -5   8  -5   22.71    4.80
   5  -8   5   12.98    8.16
   7   7  -5    6.18    3.48
  -7  -7   5    3.72    6.56
   6   7  -5    2.47    3.91
  -6  -7   5    7.56    7.25
  -6  -7   5    1.94    6.82
   5   7  -5  356.19   20.16
   5   7  -5  365.03   20.58
  -5  -7   5  360.56   29.34
  -5  -7   5  350.23   25.58
   4   7  -5  115.99   10.69
   4   7  -5  112.40   11.62
  -4  -7   5   92.55   16.76
  -4  -7   5   84.94   14.09
   3   7  -5   41.39    7.86
   3   7  -5   47.77    7.13
  -3  -7   5   19.62   11.50
  -3  -7   5   44.31   11.99
   2   7  -5  236.44   14.24
   2   7  -5  242.15   15.56
   2   7  -5  252.44   17.59
  -2  -7   5  218.61   26.63
  -2  -7   5  247.94   22.69
   1   7  -5  240.70   14.69
   1   7  -5  266.83   17.56
  -1  -7   5  231.78   22.18
  -1  -7   5  238.37   26.58
   0   7  -5   29.56    5.38
   0   7  -5   27.22    7.84
   0   7  -5   26.51    6.27
   0  -7   5   23.30   10.07
  -1   7  -5  154.10   11.43
  -1   7  -5  130.44   12.79
  -1   7  -5  124.06   12.24
  -1   7  -5  146.07   15.13
  -1   7  -5  144.27   11.48
   1  -7   5  155.88   22.02
  -3   7  -5  383.62   24.52
  -3   7  -5  367.11   21.28
  -3   7  -5  386.54   22.57
  -3   7  -5  458.07   32.23
  -3   7  -5  364.78   23.43
  -3   7  -5  382.47   24.83
  -4   7  -5   14.95    7.87
  -4   7  -5   17.31    6.91
  -4   7  -5   14.53    7.00
  -4   7  -5   11.11    7.12
  -4   7  -5   16.73    4.88
  -4   7  -5   10.67    5.77
  -5   7  -5   53.09    8.77
  -5   7  -5   46.98    8.23
  -5   7  -5   60.44    9.67
  -5   7  -5   53.90    8.38
  -5   7  -5   50.23    6.95
  -6   7  -5  267.84   19.32
  -6   7  -5  256.49   15.88
  -6   7  -5  276.13   15.83
  -6   7  -5  256.33   14.65
  -6   7  -5  266.65   16.79
   7   6  -5   22.04    4.82
   7   6  -5   19.81    6.42
  -7  -6   5   23.38    8.27
  -7  -6   5   18.22    6.51
   6   6  -5  290.37   20.23
   6   6  -5  316.10   18.39
  -6  -6   5  346.84   28.25
  -6  -6   5  293.47   21.85
   5   6  -5   32.82    6.37
   5   6  -5   26.19    6.24
  -5  -6   5   20.44    9.87
  -5  -6   5   19.16    6.93
  -5  -6   5   11.30   10.41
   4   6  -5  198.09   14.80
   4   6  -5  216.81   14.64
  -4  -6   5  192.88   20.64
  -4  -6   5  211.01   26.19
   3   6  -5  638.80   32.34
   3   6  -5  628.79   31.15
  -3  -6   5  645.29   36.92
  -3  -6   5  536.03   42.09
   2   6  -5  109.96    9.44
   2   6  -5  122.83   10.57
   2   6  -5  139.51   11.93
  -2  -6   5  102.32   18.50
  -2  -6   5  130.68   16.62
   1   6  -5   15.82    6.24
   1   6  -5   20.49    4.73
   1   6  -5    9.53    4.92
  -1  -6   5   17.85    9.33
  -1  -6   5   34.94    9.25
   0   6  -5  670.05   36.19
   0   6  -5  691.73   33.57
   0   6  -5  693.90   34.92
   0   6  -5  693.89   35.34
   0  -6   5  722.81   43.66
  -3   6  -5  473.31   27.20
  -3   6  -5  488.02   28.49
  -3   6  -5  501.43   25.45
  -3   6  -5  456.82   26.02
  -3   6  -5  488.57   28.48
  -4   6  -5  327.60   23.06
  -4   6  -5  274.27   21.03
  -4   6  -5  337.29   19.56
  -4   6  -5  313.21   21.11
  -4   6  -5  306.65   21.42
  -5   6  -5   69.77    9.61
  -5   6  -5   78.43    8.78
  -5   6  -5   67.48   10.71
  -5   6  -5   63.80    9.98
  -5   6  -5   74.62   10.33
  -6   6  -5   86.35    8.84
  -6   6  -5   75.74    9.95
  -6   6  -5   97.38   10.74
  -6   6  -5   94.83   11.61
  -6   6  -5   86.15   10.43
  -7   6  -5  126.64    9.23
   8   5  -5  146.94    9.82
   8   5  -5  139.54   12.38
  -8  -5   5  126.53   15.75
   7   5  -5   92.41    9.17
  -7  -5   5   63.14   12.47
  -7  -5   5   70.30   10.35
  -7  -5   5   67.59    9.29
   6   5  -5   48.99    7.36
  -6  -5   5   35.99    8.80
  -6  -5   5   61.72   10.74
  -6  -5   5   49.39   12.85
   5   5  -5  232.69   15.07
   5   5  -5  207.02   14.87
  -5  -5   5  200.85   16.90
  -5  -5   5  224.18   25.29
   4   5  -5  591.30   31.28
  -4  -5   5  627.16   31.44
  -4  -5   5  608.74   42.78
   3   5  -5   18.91    5.45
  -3  -5   5   24.13    6.28
  -3  -5   5    8.66    8.72
   2   5  -5  145.37   16.33
   2   5  -5  133.95   11.53
  -2  -5   5  149.60   13.43
  -2  -5   5  133.80   18.81
   1   5  -5 1483.29   73.45
   0   5  -5    7.23    4.12
   0   5  -5    4.79    6.94
  -2   5  -5  745.42   38.61
  -2   5  -5  747.26   35.31
  -2   5  -5  731.61   37.39
  -2   5  -5  703.10   35.47
  -3   5  -5   35.22    5.74
  -3   5  -5   45.03    8.25
  -3   5  -5   32.00    6.19
  -3   5  -5   40.85    8.27
  -4   5  -5    7.15    8.12
  -4   5  -5    1.93    5.17
  -4   5  -5    0.36    6.36
  -4   5  -5    1.98    5.94
  -5   5  -5   69.01    8.57
  -5   5  -5   69.34   10.53
  -5   5  -5   93.70   13.32
  -5   5  -5   69.83   10.06
  -6   5  -5  168.79   14.18
  -6   5  -5  124.28   11.06
  -6   5  -5  135.57   12.84
  -6   5  -5  152.84   13.46
   9   4  -5   58.23    7.86
  -9  -4   5   62.81   10.42
   8   4  -5    5.35    3.87
  -8  -4   5   15.12    6.36
  -8  -4   5    8.40    7.68
   7   4  -5  373.63   21.17
  -7  -4   5  389.58   24.37
  -7  -4   5  376.29   31.22
   4   4  -5  349.05   21.38
  -4  -4   5  420.94   32.20
  -4  -4   5  400.67   23.21
  -4  -4   5  407.11   21.68
   3   4  -5  141.36   17.74
  -3  -4   5  156.97   14.05
   2   4  -5 1393.13   66.60
  -2  -4   5 1312.76   64.29
   1   4  -5  259.09   19.02
  -1  -4   5  256.87   16.77
   0   4  -5  257.33   28.30
   0   4  -5  255.21   15.81
   0   4  -5  284.00   19.15
  -1   4  -5  521.41   42.05
  -1   4  -5  579.56   29.28
  -1   4  -5  602.24   32.45
  -2   4  -5   36.49    9.21
  -2   4  -5   38.28    5.73
  -2   4  -5   29.79    6.17
  -3   4  -5  113.72   26.52
  -3   4  -5  136.90   11.00
  -3   4  -5  148.90   13.24
  -3   4  -5  141.52   12.57
  -4   4  -5  995.56   47.36
  -4   4  -5 1033.24   71.84
  -4   4  -5  918.67   49.03
  -4   4  -5 1026.80   49.69
  -5   4  -5   48.72    9.26
  -5   4  -5   27.53    6.28
  -5   4  -5   42.44    8.97
  -5   4  -5   34.21    7.79
  -6   4  -5   11.19    6.66
  -6   4  -5    0.74    5.69
  -6   4  -5    3.26    4.08
  -6   4  -5   -4.16    5.22
  -7   4  -5  307.02   18.35
  -7   4  -5  308.65   17.89
   9   3  -5   26.69    5.94
  -9  -3   5   19.32    5.55
  -9  -3   5   18.16    6.91
  -9  -3   5   12.98    7.96
   8   3  -5  574.78   29.01
  -8  -3   5  599.32   32.43
  -8  -3   5  612.18   38.61
  -8  -3   5  565.30   43.10
   5   3  -5  736.22   39.96
  -5  -3   5  911.94   50.49
  -5  -3   5  849.63   42.29
  -5  -3   5  854.98   40.55
  -5  -3   5  834.58   40.81
   2   3  -5 1090.62   52.68
  -2  -3   5 1046.45   52.02
   1   3  -5  876.30   90.34
   1   3  -5 1003.44   48.92
  -1  -3   5 1066.43   48.89
   0   3  -5  780.12   38.20
   0   3  -5  752.88   50.86
   0   3  -5  728.35   36.94
  -1   3  -5  371.97   21.12
  -1   3  -5  370.07   33.44
  -2   3  -5  473.31   39.44
  -2   3  -5  470.92   26.14
  -3   3  -5  687.79   38.61
  -3   3  -5  837.22   58.09
  -3   3  -5  805.71   39.60
  -3   3  -5  772.00   37.65
  -4   3  -5  130.99   12.69
  -4   3  -5  108.14   10.26
  -4   3  -5   97.83   11.44
  -4   3  -5  100.25   26.38
  -5   3  -5   49.31    8.68
  -5   3  -5   55.60    8.88
  -6   3  -5  457.22   25.10
  -6   3  -5  406.09   45.80
  -6   3  -5  427.11   25.33
  -7   3  -5    1.44    4.65
  -7   3  -5   12.72    5.19
  -9  -2   5  116.23   18.79
  -9  -2   5  114.49   11.09
  -9  -2   5  135.34   15.28
  -8  -2   5   -1.55    9.14
  -8  -2   5    1.93    7.57
  -8  -2   5    7.70    7.14
  -7  -2   5  140.02   15.62
  -7  -2   5  128.19   12.21
  -7  -2   5  145.26   27.49
  -7  -2   5  131.27   20.30
  -6  -2   5  983.22   79.24
  -6  -2   5 1128.66   60.62
  -6  -2   5 1155.26   53.53
  -6  -2   5 1043.37   66.50
  -6  -2   5 1035.34   50.64
  -5  -2   5   -2.49    5.36
  -5  -2   5   -1.03    4.77
  -5  -2   5   -0.84    4.60
  -5  -2   5   -2.80    5.77
  -5  -2   5    2.15    6.69
  -4  -2   5  237.82   19.63
  -4  -2   5  324.40   38.00
  -3  -2   5 1168.05   72.34
  -3  -2   5  994.48   53.34
   2   2  -5  405.88   30.44
  -2  -2   5  339.90   22.93
  -1  -2   5    4.19    5.32
   0   2  -5 1499.08   75.54
   0   2  -5 1680.09   89.11
   0  -2   5 1822.90   79.42
  -1   2  -5   57.29    7.81
  -2   2  -5  209.91   14.43
  -2   2  -5  196.94   25.14
  -3   2  -5  513.44   44.26
  -3   2  -5  529.44   28.22
  -3   2  -5  532.52   28.56
  -3   2  -5  496.64   26.62
  -4   2  -5  404.42   22.15
  -4   2  -5  337.16   38.51
  -4   2  -5  337.26   19.75
  -4   2  -5  330.36   21.30
  -5   2  -5  511.80   27.08
  -5   2  -5  449.52   24.42
  -5   2  -5  487.10   27.42
  -5   2  -5  466.82   48.66
  -5   2  -5  442.38   26.20
  -6   2  -5   56.04    8.59
  -6   2  -5   72.25    9.60
  -7   2  -5  180.02   13.09
  -7   2  -5  184.20   12.73
  -9  -1   5   92.71   17.37
  -9  -1   5  102.41   13.50
  -9  -1   5  103.40   10.83
  -8  -1   5  167.14   19.45
  -8  -1   5  172.14   16.02
  -8  -1   5  172.93   24.69
  -8  -1   5  200.41   34.99
  -7  -1   5  211.20   27.96
  -7  -1   5  215.57   15.10
  -7  -1   5  224.51   18.44
  -7  -1   5  218.27   22.36
  -6  -1   5   35.21   13.61
  -6  -1   5   31.88    8.58
  -6  -1   5   34.76    7.10
  -5  -1   5  294.25   30.27
  -5  -1   5  209.31   17.36
  -5  -1   5  253.83   16.87
  -5  -1   5  259.10   18.88
  -4  -1   5  785.52   39.82
  -4  -1   5  626.55   56.41
  -3  -1   5   10.77    6.06
  -3  -1   5    5.02    6.15
  -2  -1   5  113.59   12.52
   0   1  -5  413.20   22.81
   0   1  -5  417.61   22.70
  -2   1  -5 1044.75   49.08
  -2   1  -5  980.56   64.11
  -3   1  -5  178.65   13.93
  -3   1  -5  165.10   13.06
  -3   1  -5  166.08   12.32
  -3   1  -5  150.82   30.26
  -4   1  -5   52.78    8.20
  -4   1  -5   59.91    7.26
  -4   1  -5   69.06    9.38
  -5   1  -5  222.78   15.34
  -5   1  -5  165.66   14.88
  -6   1  -5  305.33   19.51
  -6   1  -5  320.13   19.01
  -7   1  -5   66.14    7.53
  -7   1  -5   60.26    7.90
  -9   0   5   12.48    8.50
  -7   0   5  174.45   26.16
  -7   0   5  160.02   12.80
  -7   0   5  129.10   14.90
  -6   0   5  492.25   28.60
  -6   0   5  428.06   25.47
  -6   0   5  473.37   40.63
  -5   0   5  521.56   28.62
  -5   0   5  553.80   42.99
  -5   0   5  565.09   31.01
  -5   0   5  489.00   29.50
  -4   0   5  461.59   26.75
  -4   0   5  372.48   26.46
  -4   0   5  516.05   44.44
  -4   0   5  454.04   25.27
  -3   0   5  465.24   29.39
  -3   0   5  602.12   63.47
   2   0  -5  756.43   37.74
  -2   0   5  786.88   40.54
  -2   0   5  805.09   38.23
   1   0  -5   91.04    8.86
   1   0  -5   97.32   10.56
  -1   0   5   95.89    9.10
   0   0  -5  784.69   38.43
   0   0  -5  739.87   37.51
  -1   0  -5 1420.59   66.03
  -2   0  -5   23.46    6.27
  -2   0  -5   28.78    6.43
  -2   0  -5   24.81    5.55
  -3   0  -5  319.27   19.05
  -3   0  -5  322.01   20.25
  -3   0  -5  334.06   20.77
   3   0   5  400.46   34.40
  -4   0  -5  788.67   38.83
  -4   0  -5  706.67   38.18
  -4   0  -5  744.11   36.77
   4   0   5  820.72   55.29
  -5   0  -5  141.19   13.42
  -5   0  -5  161.85   13.18
   5   0   5  173.12   27.22
  -6   0  -5   11.07    4.91
  -6   0  -5    7.18    4.99
   6   0   5   14.24   10.09
  -7   0  -5  267.75   14.69
   7   0   5  283.23   23.58
  -9   1   5    3.51    6.45
  -8   1   5  401.85   25.38
  -8   1   5  403.75   33.64
  -6   1   5   -1.39    6.51
  -6   1   5   -1.24    4.56
  -6   1   5    4.99    8.87
  -6   1   5   -3.44    5.13
  -5   1   5  918.71   60.57
  -5   1   5  977.66   48.38
  -5   1   5  912.87   45.76
  -5   1   5  940.46   47.04
  -4   1   5  250.92   18.77
  -4   1   5  257.98   17.96
  -4   1   5  235.66   14.81
  -4   1   5  234.68   16.46
  -4   1   5  218.76   27.65
   3  -1  -5   73.10   11.79
  -3   1   5   82.76   10.10
  -3   1   5   90.24   10.39
  -3   1   5  129.02   26.20
  -3   1   5  110.84   12.13
  -3   1   5   98.85   11.68
  -3   1   5   97.13   11.51
   2  -1  -5  410.64   25.09
  -2   1   5  414.83   23.35
   1  -1  -5  416.08   24.98
  -1   1   5  430.12   23.73
   0  -1  -5 1138.60   56.17
   0  -1  -5 1142.65   57.43
   0   1   5 1213.10   56.66
   0   1   5 1294.43   58.41
  -1  -1  -5  146.88   12.58
  -1  -1  -5  129.87   11.27
   1   1   5  140.24   12.77
   1   1   5  130.29   20.22
   1   1   5  131.12   10.88
   1   1   5  140.02   10.37
  -2  -1  -5  558.84   30.42
  -2  -1  -5  581.73   29.50
  -2  -1  -5  627.28   31.57
   2   1   5  564.83   31.61
   2   1   5  549.46   29.51
   2   1   5  629.85   45.05
  -3  -1  -5  414.62   21.85
  -3  -1  -5  395.86   23.24
  -3  -1  -5  408.77   23.62
   3   1   5  393.69   37.07
   3   1   5  402.82   24.29
  -4  -1  -5   46.50    7.80
   4   1   5   69.15    9.88
   4   1   5   38.61   13.01
  -5  -1  -5   42.67    7.45
  -5  -1  -5   57.20    7.80
   5   1   5   41.36   13.16
  -6  -1  -5  321.37   18.22
  -6  -1  -5  312.79   17.36
   6   1   5  312.52   29.23
  -6   2   5  462.04   28.15
  -6   2   5  467.67   39.42
  -6   2   5  463.68   25.79
  -5   2   5   74.14    9.61
  -5   2   5   84.97   11.02
  -5   2   5   66.89   15.49
  -4   2   5    4.12    6.59
  -4   2   5    5.09    5.46
  -4   2   5    8.08    6.75
  -4   2   5    2.28    8.55
  -4   2   5    7.12    4.87
  -3   2   5 1213.37   56.80
  -3   2   5 1127.79   70.79
  -3   2   5 1154.63   56.47
  -3   2   5 1155.45   54.56
  -3   2   5 1170.29   57.38
  -3   2   5 1152.05   54.88
  -3   2   5 1179.50   54.62
  -2   2   5  160.95   14.12
  -2   2   5  139.07   11.97
  -2   2   5  130.87   13.50
  -2   2   5  164.21   23.85
  -2   2   5  135.11   12.00
  -2   2   5  155.51   12.34
  -2   2   5  152.76   14.22
  -1   2   5   12.63    5.17
  -1   2   5    5.54    4.97
  -1   2   5    3.92    8.05
  -1   2   5    9.76    5.02
  -1   2   5    8.38    4.61
  -1   2   5    4.42    5.36
  -1   2   5    4.38    5.52
  -1   2   5    5.44    5.97
   0  -2  -5  717.26   37.28
   0   2   5  746.66   50.78
   0   2   5  710.52   37.73
   0   2   5  763.20   36.76
   0   2   5  727.79   38.75
   0   2   5  734.23   36.69
   0   2   5  754.11   37.37
   0   2   5  807.11   39.15
   0   2   5  735.19   36.20
  -1  -2  -5  337.56   20.47
  -1  -2  -5  315.91   19.18
   1   2   5  298.10   17.45
   1   2   5  315.30   18.38
   1   2   5  294.62   20.68
   1   2   5  303.96   18.71
   1   2   5  286.11   30.68
  -2  -2  -5  543.62   29.72
  -2  -2  -5  581.95   30.58
   2   2   5  528.73   31.06
   2   2   5  573.78   28.82
   2   2   5  541.87   42.55
  -3  -2  -5  254.87   17.20
  -3  -2  -5  272.19   17.37
  -3  -2  -5  247.00   15.42
   3   2   5  246.01   29.25
   3   2   5  240.41   18.45
  -4  -2  -5  479.33   24.88
   4   2   5  420.82   25.54
   4   2   5  425.60   37.03
  -5  -2  -5  331.92   19.45
  -5  -2  -5  346.00   18.96
   5   2   5  335.56   29.97
   5   2   5  326.10   19.64
  -6  -2  -5   16.81    4.16
   6   2   5    4.95    6.76
  -6   3   5   24.35    6.49
  -5   3   5  194.36   15.23
  -5   3   5  198.39   17.53
  -5   3   5  200.53   16.79
  -5   3   5  195.29   14.13
  -4   3   5 1203.34   56.03
  -4   3   5 1173.79   58.07
  -4   3   5 1170.05   58.24
  -4   3   5 1186.82   56.08
  -4   3   5 1182.31   58.95
  -4   3   5 1222.86   56.50
  -3   3   5   10.84    7.38
  -3   3   5   -1.13    5.23
  -3   3   5    1.00    5.95
  -3   3   5    9.90    5.77
  -3   3   5   -4.86    6.42
  -3   3   5    9.04    6.59
  -2   3   5  111.75   14.12
  -2   3   5   86.55   10.79
  -2   3   5   96.43   13.17
  -2   3   5   86.07    9.71
  -2   3   5   67.09   10.45
  -2   3   5   96.40   11.31
  -1   3   5  787.44   41.15
  -1   3   5  807.50   38.82
  -1   3   5  842.08   41.80
  -1   3   5  688.71   58.02
  -1   3   5  830.14   39.34
  -1   3   5  772.43   41.10
  -1   3   5  777.16   39.18
  -1   3   5  773.41   39.43
   0  -3  -5  175.17   14.16
   0   3   5  177.74   14.47
   0   3   5  193.41   14.13
   0   3   5  177.69   14.61
   0   3   5  176.86   13.51
   0   3   5  173.29   15.50
   0   3   5  166.10   15.96
   0   3   5  199.67   16.49
   0   3   5  167.33   25.61
  -1  -3  -5   26.04    6.48
  -1  -3  -5   25.81    7.28
   1   3   5   21.94    6.33
   1   3   5   18.24    7.23
   1   3   5   34.90    6.82
   1   3   5   19.09   10.49
  -2  -3  -5  732.74   38.07
  -2  -3  -5  767.77   38.15
   2   3   5  726.67   36.53
   2   3   5  775.09   39.84
   2   3   5  734.64   51.10
  -3  -3  -5  180.27   12.56
  -3  -3  -5  220.61   14.85
   3   3   5  179.47   24.89
   3   3   5  207.10   16.24
  -4  -3  -5   16.13    5.22
   4   3   5   15.77    6.06
   4   3   5    8.32    8.36
  -5  -3  -5  274.14   14.52
   5   3   5  246.55   21.23
   5   3   5  270.26   15.64
  -5   4   5  123.20   13.42
  -5   4   5  114.12   11.47
  -5   4   5  112.56   10.79
  -4   4   5   30.47    8.06
  -4   4   5   15.38    6.11
  -4   4   5   25.61    8.23
  -4   4   5   20.27    6.34
  -4   4   5   30.61    8.44
  -4   4   5   25.77    6.41
  -3   4   5  242.38   19.31
  -3   4   5  265.10   19.95
  -3   4   5  233.84   16.84
  -3   4   5  239.57   16.75
  -3   4   5  219.35   19.08
  -3   4   5  247.24   17.26
  -2   4   5  590.95   32.81
  -2   4   5  573.99   30.63
  -2   4   5  574.40   32.61
  -2   4   5  517.24   30.24
  -2   4   5  595.40   30.40
  -2   4   5  614.19   33.14
  -2   4   5  567.18   30.39
  -1   4   5   43.92    8.92
  -1   4   5   40.22    7.70
  -1   4   5   34.00    8.57
  -1   4   5   37.65    6.89
  -1   4   5   41.37    7.47
  -1   4   5   30.45    8.35
  -1   4   5   30.56    7.69
   0  -4  -5  313.86   20.55
   0  -4  -5  346.88   22.01
   0   4   5  319.74   19.29
   0   4   5  349.05   21.90
   0   4   5  328.82   20.50
   0   4   5  335.99   22.76
   0   4   5  368.73   22.69
   0   4   5  352.10   20.19
  -1  -4  -5  445.89   25.76
  -1  -4  -5  439.52   24.97
   1   4   5  462.44   24.21
   1   4   5  427.34   24.18
   1   4   5  465.37   27.16
  -2  -4  -5   18.17    4.43
  -2  -4  -5    7.75    4.99
  -2  -4  -5   11.90    5.24
   2   4   5   11.44    4.66
   2   4   5   18.87    7.04
  -3  -4  -5    4.75    4.35
   3   4   5   -4.73    4.63
  -4  -4  -5  325.76   17.42
   4   4   5  347.16   18.85
  -5   5   5  147.55   11.44
  -5   5   5  135.08   10.05
  -5   5   5  127.47   11.96
  -4   5   5  315.70   17.53
  -4   5   5  301.79   17.84
  -4   5   5  296.30   17.25
  -4   5   5  275.35   19.03
  -4   5   5  314.17   19.82
  -3   5   5  148.49   12.34
  -3   5   5  145.34   14.73
  -3   5   5  122.24   14.36
  -3   5   5  152.00   14.51
  -3   5   5  146.59   12.27
  -3   5   5  163.10   12.80
  -2   5   5   92.12   12.68
  -2   5   5   92.35   10.21
  -2   5   5   84.04   10.14
  -2   5   5   99.57   12.16
  -2   5   5   88.79    9.79
  -2   5   5   77.32   10.09
  -2   5   5  103.66   12.36
   1  -5  -5  140.67   13.48
   1  -5  -5  146.96   12.38
  -1   5   5  156.16   12.17
  -1   5   5  160.54   12.66
  -1   5   5  144.64   11.48
  -1   5   5  154.44   14.28
  -1   5   5  156.78   14.11
  -1   5   5  145.82   13.75
   0  -5  -5  327.47   20.60
   0  -5  -5  351.86   19.96
   0   5   5  334.84   19.12
   0   5   5  331.53   18.43
   0   5   5  357.14   20.46
   0   5   5  346.63   21.35
   0   5   5  358.67   19.75
  -1  -5  -5    7.50    4.70
  -1  -5  -5    9.44    5.55
   1   5   5    6.08    4.20
   1   5   5    7.14    4.11
   1   5   5    3.69    5.41
  -2  -5  -5  132.61    9.89
   2   5   5  132.96    9.15
   2   5   5  140.03   11.39
  -4   6   5    3.45    4.19
  -4   6   5   -2.05    2.79
  -3   6   5  281.74   16.48
  -3   6   5  281.07   15.23
  -3   6   5  292.57   15.51
  -3   6   5  277.58   15.32
   2  -6  -5   99.02    8.21
  -2   6   5   87.92    8.30
  -2   6   5  106.66    8.96
  -2   6   5   98.93    9.60
  -2   6   5  115.21    8.29
   1  -6  -5   35.56    5.52
  -1   6   5   50.69    5.81
  -1   6   5   32.40    4.99
  -1   6   5   38.82    5.45
  -1   6   5   35.74    5.76
   0  -6  -5  212.17   12.91
   0   6   5  226.47   12.67
   4   9  -6    4.32    4.07
  -4  -9   6    5.51    6.07
   3   9  -6    2.35    4.72
  -3  -9   6    1.66    7.03
  -3  -9   6    6.77    7.75
   2   9  -6  180.40   13.91
  -2  -9   6  150.60   16.42
  -2  -9   6  131.10   20.88
   1   9  -6   83.94    8.15
   1   9  -6  101.93   11.48
  -1  -9   6   78.60   11.89
  -1  -9   6   63.81   14.35
   0   9  -6   82.31   10.96
   0   9  -6   84.81    9.09
   0  -9   6   99.21   19.24
   0  -9   6  107.69   13.55
  -1   9  -6  203.14   13.10
   1  -9   6  201.51   23.61
   1  -9   6  201.82   18.03
  -2   9  -6   54.48    6.33
  -2   9  -6   51.80    6.37
   2  -9   6   54.43    9.83
   2  -9   6   55.24   12.12
  -3   9  -6   16.90    4.51
  -3   9  -6   13.13    3.66
   3  -9   6   29.78    8.58
   3  -9   6   22.27    8.80
   5   8  -6    9.41    4.88
   5   8  -6   -0.46    3.56
  -5  -8   6    0.78    6.65
   4   8  -6    7.62    4.92
   4   8  -6    5.76    5.05
  -4  -8   6    2.34    7.10
  -4  -8   6    0.59    8.27
   3   8  -6  457.95   25.14
   3   8  -6  523.23   27.02
  -3  -8   6  438.28   36.08
  -3  -8   6  445.77   29.42
   2   8  -6   11.75    4.18
   2   8  -6    6.25    6.40
  -2  -8   6   16.79   11.63
  -2  -8   6   15.04    9.02
   1   8  -6   14.67    4.70
   1   8  -6   20.22    7.01
  -1  -8   6   15.93   11.54
  -1  -8   6   17.11    9.74
   0   8  -6  343.52   18.69
   0   8  -6  289.61   20.02
   0  -8   6  323.41   30.22
   0  -8   6  287.46   23.29
  -1   8  -6   87.08   11.99
  -1   8  -6   89.71   12.01
  -1   8  -6   97.52   10.05
  -1   8  -6  102.05   10.18
   1  -8   6  104.95   19.69
  -2   8  -6   27.39    7.25
  -2   8  -6   18.00    7.32
  -2   8  -6   28.16    5.75
  -2   8  -6   16.44    5.89
   2  -8   6   30.08   10.83
  -3   8  -6   85.75   11.06
  -3   8  -6   83.53   10.81
  -3   8  -6   76.28    8.85
  -3   8  -6   88.81    9.14
   3  -8   6  100.46   18.14
  -4   8  -6   78.50    8.93
  -4   8  -6   74.49   13.34
  -4   8  -6   70.49   12.49
   4  -8   6   98.56   15.09
   5  -8   6  129.41   14.55
   6   7  -6   83.73    8.89
  -6  -7   6   60.17   11.12
   5   7  -6   61.94    7.93
   5   7  -6   45.88    7.16
  -5  -7   6   45.80   11.90
   4   7  -6  452.83   25.29
   4   7  -6  478.17   26.45
  -4  -7   6  461.57   36.97
   3   7  -6   63.21    9.67
   3   7  -6   37.69    6.89
  -3  -7   6   43.45   14.09
   2   7  -6   79.54   10.89
   2   7  -6   77.05    8.51
  -2  -7   6   80.17   16.75
   1   7  -6  396.09   23.03
   1   7  -6  451.86   25.81
  -1  -7   6  461.15   35.63
   0   7  -6  135.01   11.71
   0   7  -6  119.05   12.89
   0  -7   6  133.12   20.37
  -1   7  -6   22.99    7.36
  -1   7  -6   25.30    6.16
  -1   7  -6   21.24    6.20
   1  -7   6   20.68    9.80
  -2   7  -6  873.51   45.53
  -2   7  -6  865.63   43.34
  -2   7  -6  894.56   42.56
   2  -7   6  891.42   52.82
  -3   7  -6   12.20    6.27
   3  -7   6   13.08    9.14
  -4   7  -6    1.92    6.12
  -4   7  -6    8.98    5.66
  -4   7  -6   -3.49    5.18
  -4   7  -6   49.13   12.31
  -5   7  -6  194.45   13.65
  -5   7  -6  199.78   12.96
   5  -7   6  188.34   18.20
   7   6  -6  271.59   17.50
   7   6  -6  316.83   16.58
  -7  -6   6  263.43   22.12
   6   6  -6  145.19   13.56
   6   6  -6  168.78   12.38
  -6  -6   6  157.20   20.66
  -6  -6   6  122.41   13.38
   5   6  -6   84.63   11.16
   5   6  -6  110.65   11.53
  -5  -6   6  105.05   20.10
   4   6  -6  165.82   14.38
   4   6  -6  155.44   13.43
  -4  -6   6  178.60   24.33
   3   6  -6  311.45   20.57
   3   6  -6  310.93   18.95
  -3  -6   6  298.17   30.01
   2   6  -6  227.53   13.90
   2   6  -6  214.06   16.95
  -2  -6   6  202.37   23.68
   1   6  -6   95.03    9.22
   1   6  -6   89.12   11.72
  -1  -6   6   78.98   14.61
   0   6  -6  148.85   13.09
   0   6  -6  147.51   11.80
   0   6  -6  157.50   13.50
   0  -6   6  150.89   19.31
  -1   6  -6  593.47   31.31
  -1   6  -6  603.25   33.38
  -1   6  -6  620.20   31.03
   1  -6   6  620.66   39.67
  -4   6  -6  450.46   26.95
  -4   6  -6  500.11   26.38
  -4   6  -6  474.22   28.42
   8   5  -6  180.00   13.16
   8   5  -6  172.65   11.20
  -8  -5   6  174.58   16.44
   7   5  -6   46.52    6.87
  -7  -5   6   42.47    8.07
  -7  -5   6   50.56   11.12
   6   5  -6    5.19    5.10
  -6  -5   6   -0.62    6.27
  -6  -5   6    7.08    8.81
   5   5  -6  220.84   16.57
  -5  -5   6  231.81   18.44
  -5  -5   6  237.04   25.24
  -5  -5   6  260.43   17.36
   4   5  -6  326.86   21.05
  -4  -5   6  363.25   21.69
  -4  -5   6  323.86   29.86
   3   5  -6   61.97    9.43
  -3  -5   6   62.57    8.40
  -3  -5   6   48.84   12.32
   2   5  -6  458.75   23.79
   2   5  -6  274.82   67.39
   2   5  -6  508.07   26.81
  -2  -5   6  487.92   33.37
   1   5  -6   74.54   20.67
   1   5  -6   84.39   10.80
   1   5  -6   79.37    9.14
  -1  -5   6  101.26   15.95
   0   5  -6  396.04   21.74
   0   5  -6  419.75   23.36
   0   5  -6  394.56   22.96
   0   5  -6  339.26   35.42
   0   5  -6  421.31   21.90
   0  -5   6  411.76   28.75
  -3   5  -6  484.81   25.43
  -3   5  -6  449.86   47.62
  -3   5  -6  486.97   28.13
  -3   5  -6  499.66   29.44
  -3   5  -6  528.68   27.22
  -4   5  -6   25.87    7.62
  -4   5  -6   18.30    6.35
  -4   5  -6   14.04    7.20
  -6   5  -6  223.32   13.87
  -6   5  -6  191.44   12.57
   8   4  -6    2.71    3.99
  -8  -4   6    4.08    5.52
  -8  -4   6    1.98    6.13
   7   4  -6   47.06    6.88
  -7  -4   6   40.65   10.68
  -7  -4   6   46.75    9.41
  -6  -4   6  642.41   33.96
  -6  -4   6  591.16   35.48
  -6  -4   6  733.91   43.76
   5   4  -6   80.32   10.38
  -5  -4   6   79.33   11.10
  -5  -4   6   67.75    9.01
  -5  -4   6   74.36   14.39
   4   4  -6   26.37    6.58
  -4  -4   6   31.04    8.10
  -4  -4   6   20.13    9.51
  -4  -4   6   33.15    7.29
  -3  -4   6 1342.92   64.89
  -3  -4   6 1497.67   66.89
  -3  -4   6 1342.14   73.75
   2   4  -6  147.35   11.20
  -2  -4   6  151.11   14.19
  -2  -4   6  144.02   14.48
   1   4  -6   -3.62    3.86
   1   4  -6    7.29    4.69
  -1  -4   6    1.92    9.65
   0   4  -6 1023.49   64.15
   0   4  -6 1058.27   49.53
   0   4  -6  955.31   47.33
  -1   4  -6  439.11   22.94
  -1   4  -6  424.67   23.39
  -1   4  -6  426.49   38.32
  -1   4  -6  410.94   24.95
  -2   4  -6   52.72    7.57
  -2   4  -6   59.49    7.20
  -2   4  -6   59.61    9.80
  -3   4  -6   80.28   11.47
  -3   4  -6   71.93    9.23
  -3   4  -6   81.08   11.11
  -4   4  -6  258.54   17.06
  -4   4  -6  266.03   19.30
  -4   4  -6  289.65   18.97
  -4   4  -6  268.72   41.19
  -5   4  -6  165.95   14.47
  -5   4  -6  170.75   12.58
  -5   4  -6  195.07   14.80
  -5   4  -6  129.43   35.44
  -6   4  -6   42.19    6.78
  -6   4  -6   38.03    5.28
  -9  -3   6   75.08    8.35
  -9  -3   6   51.32   13.37
   8   3  -6  135.03   10.34
  -8  -3   6  122.58   16.04
  -8  -3   6  124.38   13.32
  -8  -3   6  102.47   20.37
  -7  -3   6  263.96   17.70
  -7  -3   6  286.14   21.10
  -7  -3   6  249.02   33.49
  -7  -3   6  278.55   24.95
  -6  -3   6  200.44   18.28
  -6  -3   6  198.98   16.63
  -6  -3   6  250.24   33.26
  -6  -3   6  323.70   59.35
  -6  -3   6  209.86   23.03
  -5  -3   6   96.26   11.30
  -5  -3   6   90.16   12.65
  -5  -3   6   45.70   12.83
  -5  -3   6   73.63   13.47
  -5  -3   6   67.67    8.68
  -4  -3   6  935.49   47.92
  -4  -3   6  943.30   46.33
  -4  -3   6 1003.88  110.01
  -4  -3   6  945.30   48.06
  -3  -3   6    4.48    6.41
  -3  -3   6    4.85    5.63
  -3  -3   6    9.73    6.52
   1   3  -6  646.70   59.73
   1   3  -6  596.13   31.86
   0   3  -6   97.57   11.26
   0   3  -6  104.90   20.80
  -1   3  -6   41.84    7.14
  -1   3  -6   41.73    8.18
  -1   3  -6   28.24    5.82
  -2   3  -6  712.13   36.44
  -2   3  -6  779.23   38.98
  -2   3  -6  754.76   54.59
  -2   3  -6  767.86   37.58
  -2   3  -6  692.14   35.35
  -3   3  -6  141.65   12.27
  -3   3  -6  119.82   26.64
  -3   3  -6  132.77   11.93
  -3   3  -6  132.25   13.29
  -4   3  -6   47.05    8.24
  -4   3  -6   22.60    6.94
  -4   3  -6   12.88    5.54
  -4   3  -6   24.61    5.84
  -5   3  -6  393.37   23.29
  -5   3  -6  434.22   23.46
  -5   3  -6  383.79   21.35
  -5   3  -6  377.73   43.07
  -6   3  -6  133.62   11.25
  -9  -2   6   27.60    6.21
  -9  -2   6   19.56    7.71
  -8  -2   6   20.56   10.44
  -8  -2   6   21.48    7.65
  -8  -2   6   23.09    5.50
  -8  -2   6   43.28    8.40
  -7  -2   6  275.23   21.04
  -7  -2   6  262.61   32.37
  -7  -2   6  254.83   24.76
  -7  -2   6  254.36   17.55
  -6  -2   6   74.56   11.85
  -6  -2   6   94.26   11.59
  -6  -2   6   73.19   19.30
  -5  -2   6  429.41   27.19
  -5  -2   6  423.43   26.21
  -5  -2   6  498.04   43.93
  -5  -2   6  320.91   68.51
  -5  -2   6  461.93   25.53
  -4  -2   6  469.27   35.79
  -4  -2   6  757.36   95.13
  -3  -2   6  601.54   33.06
  -3  -2   6  601.79   35.30
  -3  -2   6  580.71   31.32
  -3  -2   6  609.09   39.66
   1   2  -6   31.19    6.77
  -1  -2   6   33.67    8.19
   0   2  -6  253.76   16.75
   0   2  -6  234.03   27.45
  -1   2  -6 1512.91   66.29
  -1   2  -6 1354.99   63.47
  -1   2  -6 1406.26   64.08
  -1   2  -6 1328.99   80.23
  -4   2  -6  851.26   40.63
  -4   2  -6  802.88   38.85
  -4   2  -6  778.10   62.72
  -4   2  -6  778.30   40.59
  -5   2  -6   47.34    6.14
  -5   2  -6   41.78    7.39
  -5   2  -6   44.47    7.32
  -6   2  -6   -2.95    3.92
  -9  -1   6    3.63    6.63
  -9  -1   6    5.73    4.80
  -8  -1   6  473.98   26.84
  -8  -1   6  434.69   36.76
  -8  -1   6  455.58   26.72
  -7  -1   6  181.39   27.55
  -7  -1   6  192.96   17.31
  -7  -1   6  152.00   13.87
  -6  -1   6   17.53    8.61
  -6  -1   6  -15.74    9.36
  -6  -1   6   15.26   12.19
  -6  -1   6    4.40    6.07
  -5  -1   6  585.06   87.51
  -5  -1   6  598.69   31.85
  -5  -1   6  600.90   48.90
  -5  -1   6  585.54   32.86
  -5  -1   6  583.93   34.33
  -4  -1   6  565.30   30.51
  -4  -1   6  502.45   30.76
  -4  -1   6  532.77   44.16
  -4  -1   6  512.27   28.77
  -3  -1   6  153.77   12.04
  -3  -1   6  160.60   14.88
  -3  -1   6  145.11   15.65
  -3  -1   6  157.85   14.43
  -3  -1   6  166.19   13.97
   2   1  -6  847.04   41.04
  -2  -1   6  983.87   45.39
  -2  -1   6  789.81   44.07
  -2  -1   6  743.28   42.57
   1   1  -6  165.54   12.49
   1   1  -6  154.73   14.04
  -1  -1   6  132.63   13.97
  -1  -1   6  167.72   13.60
   0   1  -6  886.88   53.47
   0   1  -6  799.76   38.33
   0   1  -6  768.17   39.56
   0  -1   6  723.34   38.02
  -1   1  -6  259.80   16.64
  -1   1  -6  300.50   18.75
  -1   1  -6  292.73   32.33
  -2   1  -6  468.05   45.27
  -2   1  -6  447.33   25.71
  -2   1  -6  494.53   25.35
  -2   1  -6  507.27   27.31
  -3   1  -6  911.46   66.96
  -3   1  -6  914.14   43.72
  -3   1  -6  890.27   44.61
  -3   1  -6  937.99   45.81
   4  -1   6  138.02   27.27
  -6   1  -6  398.40   20.95
  -9   0   6  138.96   17.96
  -8   0   6   -2.80    5.55
  -8   0   6   -0.63    7.73
  -7   0   6  117.11   11.91
  -7   0   6  128.51   24.23
  -7   0   6  141.28   15.08
  -6   0   6  410.38   24.69
  -6   0   6  394.44   26.52
  -6   0   6  394.14   39.21
  -6   0   6  392.47   23.57
  -5   0   6   19.64    7.69
  -5   0   6   12.09   10.48
  -5   0   6   23.75    7.02
  -5   0   6    9.71    7.86
  -4   0   6   10.01    7.24
  -4   0   6    4.96    9.40
  -4   0   6   -2.11    6.16
  -4   0   6    1.32    5.78
  -4   0   6   -1.08    4.06
  -3   0   6 1124.60   55.27
  -3   0   6 1182.99   56.55
  -3   0   6 1248.30   74.47
  -3   0   6 1238.95   58.15
  -3   0   6 1197.18   58.77
   2   0  -6  567.91   29.97
  -2   0   6  533.65   28.51
  -2   0   6  598.05   29.16
  -2   0   6  633.25   44.97
  -2   0   6  591.02   29.91
  -2   0   6  553.61   31.06
  -2   0   6  563.86   31.82
   1   0  -6   67.26   10.35
   1   0  -6   78.43    9.32
  -1   0   6   61.98    7.35
  -1   0   6   55.36    8.86
  -1   0   6   71.53    9.46
  -1   0   6   51.29    7.78
  -1   0   6   77.44    8.20
  -1   0   6   91.70   21.14
   0   0  -6 1004.52   47.24
   0   0   6  963.15   45.50
   0   0   6  926.05   59.38
   0   0   6  952.72   45.20
   0   0   6  962.94   47.59
  -1   0  -6  229.93   15.54
  -1   0  -6  251.72   15.62
  -1   0  -6  274.15   17.70
   1   0   6  238.86   17.64
   1   0   6  254.90   29.15
  -2   0  -6  183.42   13.32
  -2   0  -6  182.76   15.13
  -2   0  -6  172.50   13.49
   2   0   6  204.21   27.80
  -3   0  -6   23.16    6.47
  -3   0  -6   25.49    6.37
  -3   0  -6   27.93    5.74
   3   0   6   17.80   10.94
  -4   0  -6  280.24   16.99
  -4   0  -6  231.87   16.48
  -4   0  -6  240.93   14.86
   4   0   6  264.82   30.48
  -5   0  -6  319.77   18.37
   5   0   6  308.66   30.04
  -6   0  -6   38.50    5.23
   6   0   6   34.89    9.68
  -8   1   6   94.75   17.55
  -8   1   6   90.75   10.49
  -7   1   6  290.55   29.69
  -7   1   6  261.52   17.27
  -7   1   6  292.99   19.93
  -6   1   6    1.71    9.24
  -6   1   6    2.99    5.59
  -6   1   6   -2.99    6.56
  -6   1   6   13.15    6.66
  -5   1   6   36.31   13.57
  -5   1   6   47.09    9.94
  -5   1   6   51.62    8.73
  -5   1   6   57.55    9.71
  -4   1   6  855.43   41.65
  -4   1   6  806.48   57.57
  -4   1   6  851.92   44.04
  -4   1   6  795.93   40.01
  -4   1   6  846.36   42.99
   3  -1  -6   50.54    8.43
  -3   1   6   39.86   13.56
  -3   1   6   52.04    8.65
  -3   1   6   65.70    8.18
  -3   1   6   53.00    9.15
  -3   1   6   60.97    7.72
  -3   1   6   39.26   10.13
  -3   1   6   51.08    9.16
   2  -1  -6  147.31   13.30
  -2   1   6  134.99   13.92
  -2   1   6  133.63   12.47
  -2   1   6  151.57   24.16
  -2   1   6  128.85   13.40
  -2   1   6  125.96   11.55
  -2   1   6  135.12   14.05
  -2   1   6  169.53   11.97
   1  -1  -6  782.88   39.00
  -1   1   6  749.02   36.99
  -1   1   6  715.80   37.49
  -1   1   6  758.39   39.64
  -1   1   6  796.59   37.27
  -1   1   6  751.85   39.01
  -1   1   6  757.40   52.67
   0  -1  -6  155.57   14.47
   0  -1  -6  176.38   12.76
   0   1   6  172.31   13.38
   0   1   6  176.51   13.06
   0   1   6  178.99   26.20
   0   1   6  190.18   12.71
   0   1   6  163.99   14.25
   0   1   6  176.97   15.19
  -1  -1  -6   -0.76    5.28
  -1  -1  -6    6.49    4.56
  -1  -1  -6    3.85    4.77
   1   1   6    8.38    6.36
   1   1   6    1.26    7.50
   1   1   6    2.86    4.66
   1   1   6    7.35    4.29
  -2  -1  -6  555.74   30.29
  -2  -1  -6  575.01   29.54
  -2  -1  -6  596.15   31.63
   2   1   6  598.59   45.42
   2   1   6  547.08   31.68
  -3  -1  -6  405.63   23.09
  -3  -1  -6  389.62   21.41
  -3  -1  -6  394.37   23.23
   3   1   6  412.87   36.99
   3   1   6  388.82   24.18
  -4  -1  -6  130.10   10.97
  -4  -1  -6  111.27    9.38
   4   1   6  126.55   22.02
  -5  -1  -6  226.55   13.83
   5   1   6  220.91   23.12
  -7   2   6  179.53   14.36
  -6   2   6  299.08   17.74
  -6   2   6  260.93   18.09
  -6   2   6  260.02   29.12
  -6   2   6  263.65   19.93
  -5   2   6  172.81   14.77
  -5   2   6  178.93   16.37
  -5   2   6  162.51   26.01
  -5   2   6  194.70   13.29
  -5   2   6  183.37   17.26
  -4   2   6  177.56   16.24
  -4   2   6  155.84   16.08
  -4   2   6  144.64   12.56
  -4   2   6  138.41   14.06
  -4   2   6  145.78   26.13
  -3   2   6  205.08   15.73
  -3   2   6  216.37   14.97
  -3   2   6  209.04   29.48
  -3   2   6  213.05   17.91
  -3   2   6  232.26   18.51
  -3   2   6  210.85   16.84
  -3   2   6  223.01   15.31
   2  -2  -6 1075.38   52.02
  -2   2   6 1057.20   52.53
  -2   2   6 1031.85   50.24
  -2   2   6 1012.54   49.58
  -2   2   6 1061.56   52.05
  -2   2   6 1000.34   51.78
  -2   2   6 1037.26   66.82
  -2   2   6 1070.56   49.81
   1  -2  -6   58.61    9.31
  -1   2   6   53.13    7.81
  -1   2   6   65.64   15.97
  -1   2   6   67.99    8.88
  -1   2   6   67.43    9.66
  -1   2   6   76.06   11.05
  -1   2   6   57.07    7.59
   0  -2  -6  391.33   23.08
   0  -2  -6  409.44   24.82
   0   2   6  408.30   37.19
   0   2   6  405.88   24.32
   0   2   6  414.44   25.43
   0   2   6  409.05   22.93
   0   2   6  394.03   22.95
   0   2   6  412.87   22.44
  -1  -2  -6  939.25   45.57
  -1  -2  -6  961.06   46.77
   1   2   6  925.61   43.91
   1   2   6  972.02   44.95
   1   2   6  849.44   58.84
   1   2   6  932.30   47.56
  -2  -2  -6   13.95    5.96
  -2  -2  -6   12.77    4.93
  -2  -2  -6    4.30    5.03
   2   2   6    1.01    5.86
   2   2   6   -1.21    8.24
  -3  -2  -6   18.94    4.52
  -3  -2  -6   21.75    5.82
  -3  -2  -6   23.11    5.77
   3   2   6   13.01    9.34
   3   2   6   27.85    7.03
  -4  -2  -6  338.02   18.19
   4   2   6  304.18   27.72
   4   2   6  319.75   18.65
  -6   3   6   50.94    7.52
  -6   3   6   25.59    8.23
  -6   3   6   40.22    6.15
  -5   3   6  257.74   15.67
  -5   3   6  260.74   18.30
  -5   3   6  241.84   18.78
  -5   3   6  252.72   16.69
  -4   3   6  149.59   15.39
  -4   3   6  117.44   12.11
  -4   3   6  113.09   13.16
  -4   3   6  122.76   11.60
  -4   3   6  106.53   10.95
  -4   3   6  138.78   14.71
  -3   3   6  113.89   13.55
  -3   3   6  125.14   15.08
  -3   3   6  147.29   12.84
  -3   3   6  133.56   13.34
  -3   3   6  136.54   14.85
  -3   3   6  130.47   12.07
   2  -3  -6  265.01   19.27
  -2   3   6  267.11   20.08
  -2   3   6  242.25   17.06
  -2   3   6  258.23   19.52
  -2   3   6  259.43   17.12
  -2   3   6  237.03   17.57
  -2   3   6  268.03   19.62
   1  -3  -6  185.85   13.97
   1  -3  -6  197.05   16.13
  -1   3   6  211.69   16.89
  -1   3   6  199.54   13.99
  -1   3   6  182.50   25.68
  -1   3   6  192.74   17.42
  -1   3   6  219.48   15.55
  -1   3   6  191.81   14.37
   0  -3  -6  420.76   23.43
   0  -3  -6  442.44   25.25
   0   3   6  414.66   25.75
   0   3   6  434.56   23.14
   0   3   6  379.50   35.23
   0   3   6  402.69   24.14
   0   3   6  404.11   23.17
   0   3   6  415.84   22.43
  -1  -3  -6   53.99    8.04
  -1  -3  -6   54.40    8.61
   1   3   6   56.67    6.98
   1   3   6   33.10   11.30
   1   3   6   49.96    8.81
   1   3   6   57.81    7.53
  -2  -3  -6  142.40   10.77
  -2  -3  -6  165.08   12.76
  -2  -3  -6  169.19   12.11
   2   3   6  129.46   20.79
   2   3   6  169.08   14.30
  -3  -3  -6  376.91   20.47
   3   3   6  400.86   21.81
   3   3   6  377.29   29.56
  -5   4   6   72.16    9.72
  -5   4   6   74.69    8.95
  -5   4   6   71.44    7.90
   4  -4  -6   -7.05    4.93
  -4   4   6    4.35    5.13
  -4   4   6   -3.98    5.38
  -4   4   6    3.31    4.46
  -4   4   6    4.25    4.66
  -4   4   6   -1.63    3.92
  -4   4   6   -7.52    5.38
   3  -4  -6  370.85   23.13
  -3   4   6  408.32   21.29
  -3   4   6  407.05   23.98
  -3   4   6  384.35   21.20
  -3   4   6  399.31   21.99
  -3   4   6  355.55   22.86
  -3   4   6  389.52   23.88
   2  -4  -6  144.96   14.14
  -2   4   6  155.37   14.94
  -2   4   6  161.47   12.27
  -2   4   6  161.00   14.29
  -2   4   6  159.66   13.15
  -2   4   6  173.67   12.58
   1  -4  -6  181.38   13.66
   1  -4  -6  206.59   15.60
  -1   4   6  215.91   16.75
  -1   4   6  218.93   14.86
  -1   4   6  216.68   13.83
  -1   4   6  210.24   15.82
  -1   4   6  230.38   14.12
   0  -4  -6  177.96   14.18
   0  -4  -6  183.61   12.87
   0   4   6  187.41   15.00
   0   4   6  178.67   11.73
   0   4   6  193.74   13.18
   0   4   6  187.21   12.74
  -1  -4  -6  293.77   15.88
  -1  -4  -6  290.96   16.65
  -1  -4  -6  268.40   19.50
   1   4   6  310.63   18.74
   1   4   6  275.90   16.05
  -2  -4  -6  233.17   13.17
  -2  -4  -6  190.74   11.77
   2   4   6  242.90   14.76
  -4   5   6  330.07   17.29
  -4   5   6  326.51   18.12
  -4   5   6  326.63   16.71
  -3   5   6   21.22    4.63
  -3   5   6   15.27    4.05
  -3   5   6   14.88    5.54
  -3   5   6   14.70    4.60
  -2   5   6   36.63    6.10
  -2   5   6   36.51    5.44
  -2   5   6   51.95    5.78
  -2   5   6   36.73    6.30
  -2   5   6   38.79    5.18
   1  -5  -6  293.43   16.68
  -1   5   6  288.89   17.16
  -1   5   6  325.23   16.20
  -1   5   6  324.04   16.65
  -1   5   6  335.23   18.30
  -1   5   6  336.48   17.11
   0  -5  -6   78.52    6.74
   0  -5  -6   68.81    8.76
   0   5   6   75.04    8.09
   0   5   6   68.13    7.79
   3   9  -7    1.67    4.58
  -3  -9   7    3.00    6.92
   2   9  -7   42.86    7.58
  -2  -9   7   32.09   10.23
   1   9  -7  162.94   10.78
   1   9  -7  123.34   12.55
  -1  -9   7  161.42   19.94
   0   9  -7    8.85    4.22
   0   9  -7    3.40    4.98
   0  -9   7    2.91    8.67
  -1   9  -7    6.59    4.10
   1  -9   7    9.33    8.04
  -2   9  -7  220.30   13.41
   2  -9   7  254.30   20.61
   5   8  -7   40.34    5.97
   5   8  -7   43.16    6.17
  -5  -8   7   39.59    8.90
   4   8  -7   79.62    8.45
   4   8  -7   78.50    9.88
  -4  -8   7   88.55   16.99
   3   8  -7  101.78   12.36
  -3  -8   7   71.78   13.70
   2   8  -7  327.09   21.40
   2   8  -7  317.79   17.67
  -2  -8   7  309.48   29.14
   1   8  -7   37.62    8.12
   1   8  -7   43.17    6.54
  -1  -8   7   34.84   11.91
   0   8  -7  140.18   11.73
   0   8  -7  106.82   11.99
   0  -8   7  129.48   20.35
  -1   8  -7  181.33   13.58
   1  -8   7  192.71   21.45
  -2   8  -7   -1.89    5.86
  -2   8  -7    5.27    4.93
  -2   8  -7    0.15    4.40
   2  -8   7    5.16    7.22
  -3   8  -7   18.74    4.40
  -3   8  -7   15.17    5.08
   3  -8   7   24.14    8.15
  -4   8  -7  119.73    9.15
   4  -8   7  140.32   17.30
   6   7  -7   -0.56    4.11
  -6  -7   7   -1.78    5.62
   5   7  -7  309.42   19.32
   5   7  -7  324.62   19.04
  -5  -7   7  322.72   26.20
   4   7  -7   31.93    7.67
   4   7  -7   29.49    6.67
  -4  -7   7   26.45   10.59
   3   7  -7   98.29   13.32
  -3  -7   7   66.11   14.13
   2   7  -7  319.74   18.63
   2   7  -7  327.28   22.66
  -2  -7   7  309.06   29.27
   1   7  -7  216.50   17.40
   1   7  -7  227.96   15.37
  -1  -7   7  217.75   24.26
   0   7  -7   52.42    7.74
   0   7  -7   36.17    7.55
   0  -7   7   38.34   11.07
  -1   7  -7   72.62   10.87
  -1   7  -7   64.23    8.89
  -1   7  -7   69.25    8.67
   1  -7   7   93.90   17.13
  -2   7  -7   63.07    8.63
  -2   7  -7   32.69    8.80
  -2   7  -7   52.18    7.23
   2  -7   7   50.97   11.14
  -3   7  -7  323.44   19.72
  -3   7  -7  302.85   21.32
  -3   7  -7  309.88   17.63
   3  -7   7  332.30   25.05
  -4   7  -7    4.19    5.69
  -4   7  -7   -5.67    4.29
   4  -7   7    2.10    5.89
   7   6  -7   11.15    4.47
  -7  -6   7    7.80    6.02
   6   6  -7  399.15   21.58
   6   6  -7  373.54   21.35
  -6  -6   7  375.29   27.38
   5   6  -7   21.88    6.42
   5   6  -7   16.49    6.74
  -5  -6   7    6.20    7.80
   4   6  -7    3.25    6.45
   4   6  -7    6.22    5.84
  -4  -6   7    8.16    8.59
   3   6  -7  364.91   23.45
   3   6  -7  335.34   20.88
  -3  -6   7  314.42   29.72
   2   6  -7  224.41   18.70
   2   6  -7  217.94   14.70
  -2  -6   7  217.61   23.87
   1   6  -7   90.39   12.33
   1   6  -7   82.49    9.50
  -1  -6   7  105.74   17.68
   0   6  -7  503.50   27.31
   0   6  -7  450.82   27.75
   0  -6   7  559.68   35.46
  -1   6  -7  130.50   15.50
  -1   6  -7  136.82   13.39
  -1   6  -7  145.36   12.74
   1  -6   7  159.73   19.28
  -2   6  -7   59.68   10.77
  -2   6  -7   57.62    8.77
  -2   6  -7   54.98    7.47
   2  -6   7   69.44   12.53
  -3   6  -7  222.90   16.05
  -3   6  -7  195.38   13.40
  -3   6  -7  199.13   17.40
   3  -6   7  213.85   20.57
  -4   6  -7   58.63    7.58
  -4   6  -7   41.74    8.00
  -4   6  -7   69.70    8.69
  -5   6  -7  217.50   13.06
  -5   6  -7  207.91   12.83
   7   5  -7  291.40   16.98
  -7  -5   7  252.98   18.24
  -7  -5   7  290.97   22.20
   6   5  -7   24.05    6.68
   6   5  -7   17.01    6.09
  -6  -5   7   -0.69    6.27
  -6  -5   7   18.27    8.32
   5   5  -7  289.04   19.43
  -5  -5   7  275.68   24.96
  -5  -5   7  241.35   19.75
  -5  -5   7  248.71   18.95
   4   5  -7  334.89   22.40
  -4  -5   7  308.68   21.78
  -4  -5   7  350.37   29.27
   3   5  -7    6.81    4.74
   3   5  -7   15.33    7.69
  -3  -5   7    0.77    7.16
  -3  -5   7    5.57    6.35
   2   5  -7   65.63    8.39
   2   5  -7   34.71    8.33
  -2  -5   7   31.35   10.22
   1   5  -7 1013.87   48.43
   1   5  -7 1018.98   66.46
   1   5  -7  920.95   49.54
  -1  -5   7 1101.91   70.89
   0   5  -7   59.96    9.71
   0   5  -7   60.72    8.26
   0   5  -7   44.97    7.54
   0   5  -7   52.86    8.84
  -1   5  -7    0.27    4.84
  -1   5  -7   -3.73    6.00
  -1   5  -7    2.32    5.61
  -1   5  -7    0.03    3.35
  -2   5  -7  800.87   62.67
  -2   5  -7  781.04   41.80
  -2   5  -7  783.57   38.38
  -2   5  -7  775.30   39.42
  -3   5  -7   95.95   13.29
  -3   5  -7   95.65    9.14
  -3   5  -7   83.36    9.58
  -4   5  -7   55.47    7.76
  -4   5  -7   57.72    9.27
  -4   5  -7   59.29    8.11
  -5   5  -7   87.18   11.96
  -5   5  -7   95.72    8.73
  -5   5  -7   99.70    8.92
   8   4  -7    0.86    4.00
  -8  -4   7    9.85    5.43
  -8  -4   7   -1.92    4.68
   7   4  -7  127.44   11.59
  -7  -4   7  129.25   12.24
  -7  -4   7  113.82   13.21
  -7  -4   7  133.30   16.37
   4   4  -7  130.89   14.28
  -4  -4   7  142.61   15.43
  -4  -4   7  161.02   16.21
  -4  -4   7  133.02   13.83
   2   4  -7  491.93   25.22
   2   4  -7  402.68   60.97
  -2  -4   7  457.39   28.08
   1   4  -7    1.11    4.73
   1   4  -7   -0.84    2.64
  -1  -4   7    3.30    5.99
   0   4  -7   89.17   10.14
   0   4  -7   70.38    9.04
   0   4  -7   64.37    9.82
  -1   4  -7  603.29   32.97
  -1   4  -7  551.74   46.94
  -1   4  -7  572.88   29.56
  -1   4  -7  582.02   30.53
  -2   4  -7    6.88    5.52
  -2   4  -7    6.47    6.57
  -2   4  -7   10.17    4.66
  -2   4  -7    2.00    3.18
  -3   4  -7   95.17   12.53
  -3   4  -7   78.33   10.44
  -3   4  -7   94.48   10.84
  -4   4  -7  330.87   18.50
  -4   4  -7  302.96   20.11
  -4   4  -7  313.35   18.87
  -4   4  -7  276.20   38.83
  -5   4  -7   68.16    7.82
  -5   4  -7   66.35    9.06
  -5   4  -7   72.18    8.45
  -6   4  -7   11.88    4.88
   8   3  -7  120.93    9.30
  -8  -3   7   93.56   17.76
  -8  -3   7  103.72   11.27
   6   3  -7   90.45   11.75
  -6  -3   7   74.09   10.05
  -6  -3   7   91.39   12.61
  -6  -3   7  105.51   22.67
  -5  -3   7  475.98   27.79
  -5  -3   7  465.73   29.64
  -5  -3   7  526.08   29.65
  -4  -3   7  278.91   19.70
  -4  -3   7  312.67   22.50
  -4  -3   7  282.31   21.51
  -3  -3   7 1192.31   61.16
   2   3  -7  542.37   27.70
   2   3  -7  525.96   70.91
  -2  -3   7  521.46   30.66
  -2  -3   7  496.08   28.08
   1   3  -7  499.46   25.71
   1   3  -7  487.88   43.63
   1   3  -7  510.24   27.76
  -1  -3   7  410.31   27.27
   0   3  -7  359.59   20.30
   0   3  -7  344.42   20.57
   0   3  -7  393.96   23.08
   0   3  -7  330.05   34.83
  -1   3  -7    5.00    4.51
  -1   3  -7    6.89    6.31
  -1   3  -7    1.28    2.65
  -1   3  -7   13.19    5.48
  -2   3  -7  390.49   21.94
  -2   3  -7  374.70   38.67
  -2   3  -7  367.39   20.63
  -2   3  -7  390.21   23.89
  -3   3  -7  622.91   53.81
  -3   3  -7  663.11   33.37
  -3   3  -7  681.98   35.49
  -3   3  -7  674.73   33.87
  -4   3  -7   -0.84    3.08
  -4   3  -7    2.01    4.13
  -4   3  -7    0.16    4.26
  -4   3  -7    6.37    5.43
  -5   3  -7   12.62    4.80
  -5   3  -7   11.55    5.24
  -5   3  -7   16.05    4.10
  -6   3  -7  304.41   17.36
  -8  -2   7    1.14    7.33
  -8  -2   7   -1.21    5.65
  -8  -2   7    3.08    4.28
  -6  -2   7  828.50   40.75
  -6  -2   7  769.15   42.75
  -6  -2   7  854.26   59.14
  -6  -2   7  763.06   40.93
  -5  -2   7   61.75   10.57
  -5  -2   7   63.31   11.01
  -5  -2   7   57.83   17.80
  -5  -2   7   57.22    9.09
  -4  -2   7    0.30    4.47
  -4  -2   7    3.91    6.77
  -4  -2   7   -3.49    5.52
  -4  -2   7   11.30   12.48
  -4  -2   7    0.86    6.52
  -3  -2   7  508.49   32.37
  -3  -2   7  526.81   30.79
  -3  -2   7  726.01   47.83
  -3  -2   7  571.49   32.66
  -3  -2   7  555.90   29.55
   2   2  -7  351.19   58.98
  -2  -2   7  432.93   25.63
  -2  -2   7  463.08   23.56
  -2  -2   7  435.37   24.35
  -2  -2   7  401.66   25.70
   0   2  -7  602.09   29.28
   0   2  -7  604.57   31.13
   0   2  -7  524.29   44.67
   0  -2   7  546.41   28.83
  -1   2  -7  343.11   35.65
  -1   2  -7  375.20   20.81
  -1   2  -7  364.71   20.20
  -1   2  -7  388.67   22.92
  -2   2  -7  157.31   12.20
  -2   2  -7  122.50   11.40
  -2   2  -7  154.67   13.79
  -2   2  -7  117.95   26.21
  -2   2  -7  122.06   10.69
  -3   2  -7  246.51   38.12
  -3   2  -7  331.97   20.00
  -3   2  -7  274.47   17.66
  -3   2  -7  306.61   17.97
  -4   2  -7  184.06   14.06
  -4   2  -7  177.44   12.26
  -4   2  -7  165.59   30.12
  -4   2  -7  184.29   13.02
  -5   2  -7  247.43   13.78
  -5   2  -7  255.70   15.02
  -8  -1   7   26.61    5.05
  -8  -1   7   32.71    7.15
  -8  -1   7   23.14   10.00
  -7  -1   7  164.70   25.40
  -7  -1   7  165.84   15.81
  -7  -1   7  161.58   13.40
  -6  -1   7   20.69    7.65
  -6  -1   7   11.99    6.73
  -6  -1   7   28.65    8.76
  -6  -1   7   10.76   11.51
  -5  -1   7   80.78   18.93
  -5  -1   7   97.13   13.13
  -5  -1   7  108.95   13.61
  -5  -1   7   92.83   10.73
  -4  -1   7  779.56   39.91
  -4  -1   7  819.09   41.45
  -4  -1   7  762.00   37.99
  -4  -1   7  779.17   58.06
  -4  -1   7  778.11   42.22
   3   1  -7   55.61   18.97
  -3  -1   7   56.48    9.57
  -3  -1   7   60.30    8.91
  -3  -1   7   40.33    8.67
  -3  -1   7   44.00   15.12
  -3  -1   7   49.56    7.36
   2   1  -7  128.58   11.81
  -2  -1   7  115.15   29.58
  -2  -1   7   99.99   11.34
  -2  -1   7  124.09   12.84
  -2  -1   7   94.41   13.10
  -2  -1   7  121.23   10.92
   1   1  -7 1409.97   81.92
   1   1  -7 1431.19   64.75
   1   1  -7 1339.90   62.73
  -1  -1   7 1269.03   65.18
  -1  -1   7 1407.34   82.17
  -1  -1   7 1343.19   64.59
  -1  -1   7 1368.19   63.04
   0   1  -7   57.48    8.78
   0   1  -7   47.71    7.33
   0  -1   7   48.20    6.56
   0  -1   7  109.36   26.34
  -1   1  -7   96.43   11.54
  -1   1  -7   91.04    9.95
   1  -1   7  119.12   25.35
   1  -1   7   78.30    9.21
  -2   1  -7  561.69   28.16
  -2   1  -7  482.22   27.73
  -2   1  -7  573.15   30.20
   2  -1   7  545.61   46.18
  -4   1  -7   64.26    7.62
  -4   1  -7   71.72    8.42
  -4   1  -7   68.04    9.03
   4  -1   7   86.09   21.76
  -5   1  -7   79.40    7.47
  -8   0   7   56.42    7.71
  -8   0   7   38.70    9.68
  -7   0   7   41.94   12.43
  -7   0   7   63.93    9.04
  -7   0   7   41.17    6.44
  -6   0   7  278.83   32.44
  -6   0   7  283.33   21.32
  -6   0   7  277.65   19.29
  -6   0   7  307.95   18.87
  -5   0   7  557.43   29.39
  -5   0   7  483.37   44.40
  -5   0   7  554.41   30.55
  -5   0   7  539.54   31.64
  -4   0   7  129.66   27.24
  -4   0   7  134.01   13.50
  -4   0   7  149.28   15.79
  -4   0   7  141.75   12.01
  -4   0   7  145.59   14.93
  -3   0   7   80.46    8.92
  -3   0   7   77.67   10.82
  -3   0   7   68.07   17.29
  -3   0   7   64.02    9.12
  -3   0   7   89.70   12.11
   2   0  -7  668.65   35.14
   2   0  -7  662.96   33.58
  -2   0   7  663.38   33.59
  -2   0   7  688.97   37.07
  -2   0   7  670.70   34.78
  -2   0   7  707.91   34.21
  -2   0   7  675.15   36.07
  -2   0   7  728.85   52.24
   1   0  -7   -0.50    4.28
   1   0  -7   -6.69    4.80
  -1   0   7    1.72    9.44
  -1   0   7    3.98    5.50
  -1   0   7   -0.65    4.28
  -1   0   7   -3.50    5.38
  -1   0   7    2.89    4.95
   0   0  -7   49.34    8.19
   0   0  -7   51.17    7.23
   0   0   7   46.63    8.48
   0   0   7   40.62    6.62
   0   0   7   39.47   13.33
  -1   0  -7 1257.72   58.35
  -1   0  -7 1123.19   56.32
  -1   0  -7 1275.44   56.30
   1   0   7 1196.83   55.40
   1   0   7 1144.81   57.91
   1   0   7 1203.06   73.46
  -2   0  -7  137.98   12.86
  -2   0  -7  148.90   11.49
  -2   0  -7  113.10   11.11
   2   0   7  117.81   23.40
  -3   0  -7   50.23    7.31
  -3   0  -7   47.29    6.37
  -3   0  -7   53.28    8.02
   3   0   7   37.63   12.16
  -4   0  -7  476.69   24.64
  -4   0  -7  454.39   23.40
   4   0   7  521.80   37.11
  -5   0  -7  112.19    8.01
   5   0   7  110.28   15.84
  -7   1   7   61.99   16.24
  -7   1   7   77.55    8.33
  -7   1   7   64.77    8.73
  -6   1   7   16.80    6.25
  -6   1   7    7.82    9.27
  -6   1   7   12.36    5.61
  -6   1   7   21.13    7.44
  -5   1   7  427.95   25.67
  -5   1   7  411.51   22.95
  -5   1   7  450.55   24.77
  -5   1   7  472.56   27.49
  -5   1   7  424.31   38.77
  -4   1   7  335.69   22.32
  -4   1   7  327.23   22.85
  -4   1   7  307.36   19.04
  -4   1   7  320.20   20.46
  -4   1   7  337.75   35.25
   3  -1  -7  325.72   21.07
  -3   1   7  339.55   20.16
  -3   1   7  328.74   35.78
  -3   1   7  338.20   19.48
  -3   1   7  345.42   21.13
  -3   1   7  358.04   22.88
  -3   1   7  347.65   23.26
   2  -1  -7  360.14   22.36
  -2   1   7  349.88   20.25
  -2   1   7  336.82   21.03
  -2   1   7  343.59   22.54
  -2   1   7  387.84   20.94
  -2   1   7  346.71   35.12
  -2   1   7  335.07   23.20
   1  -1  -7  507.89   27.77
  -1   1   7  484.81   28.68
  -1   1   7  454.44   40.65
  -1   1   7  456.83   26.98
  -1   1   7  479.26   25.44
  -1   1   7  470.61   25.96
  -1   1   7  493.93   25.79
   0  -1  -7  402.25   22.66
   0  -1  -7  411.32   24.62
   0   1   7  405.91   25.10
   0   1   7  396.02   37.40
   0   1   7  403.78   22.24
  -1  -1  -7    6.75    6.08
  -1  -1  -7    4.31    4.46
  -1  -1  -7    7.67    5.04
   1   1   7    8.79    4.37
   1   1   7   11.05    6.29
   1   1   7    5.21    9.72
  -2  -1  -7  197.43   15.06
  -2  -1  -7  192.29   13.30
  -2  -1  -7  200.22   13.79
   2   1   7  188.26   15.12
   2   1   7  185.52   25.72
  -3  -1  -7  453.35   23.30
  -3  -1  -7  424.18   23.44
  -3  -1  -7  427.03   21.98
   3   1   7  454.69   35.22
  -4  -1  -7    7.95    3.68
   4   1   7    3.51    6.73
  -7   2   7    3.30    6.15
  -6   2   7  266.62   16.70
  -6   2   7  275.60   15.93
  -6   2   7  271.35   18.16
  -5   2   7  139.80   14.52
  -5   2   7  157.20   12.25
  -5   2   7  135.89   10.92
  -5   2   7  159.32   13.85
  -5   2   7  146.12   22.40
  -4   2   7    4.29    5.40
  -4   2   7   -1.47    4.63
  -4   2   7   -1.60    8.24
  -4   2   7    0.57    6.40
  -4   2   7   10.09    6.76
   3  -2  -7  401.70   24.02
  -3   2   7  410.28   23.43
  -3   2   7  386.91   36.33
  -3   2   7  392.07   21.95
  -3   2   7  407.10   22.69
  -3   2   7  422.74   25.91
  -3   2   7  424.21   25.68
   2  -2  -7  200.57   15.96
  -2   2   7  196.61   14.60
  -2   2   7  208.14   17.76
  -2   2   7  191.80   14.03
  -2   2   7  194.78   27.51
  -2   2   7  186.87   16.91
  -2   2   7  246.84   15.80
   1  -2  -7   12.72    6.46
  -1   2   7   13.67    7.09
  -1   2   7   14.44    5.81
  -1   2   7   10.88    9.79
  -1   2   7   12.99    5.18
  -1   2   7   19.39    6.80
  -1   2   7   12.08    5.42
   0  -2  -7  140.40   13.61
   0  -2  -7  150.98   11.99
   0   2   7  123.64   22.50
   0   2   7  136.78   11.74
   0   2   7  138.36   11.09
   0   2   7  145.24   14.48
  -1  -2  -7  203.04   14.08
  -1  -2  -7  222.20   16.04
  -1  -2  -7  226.28   14.40
   1   2   7  220.93   16.56
   1   2   7  219.31   26.26
  -2  -2  -7  306.13   16.21
  -2  -2  -7  307.05   17.00
  -2  -2  -7  267.26   17.33
   2   2   7  294.38   27.47
   2   2   7  286.17   18.13
  -3  -2  -7   35.02    4.27
  -3  -2  -7   31.34    4.89
   3   2   7   28.97    8.84
   3   2   7   35.76    7.27
  -6   3   7    7.83    5.71
  -5   3   7   30.25    6.33
  -5   3   7   38.88    5.91
  -5   3   7   32.34    4.90
  -5   3   7   28.12    6.87
  -4   3   7  452.99   24.27
  -4   3   7  456.71   26.04
  -4   3   7  456.07   25.44
  -4   3   7  470.79   23.57
   3  -3  -7  203.30   14.95
  -3   3   7  217.15   13.65
  -3   3   7  204.72   14.13
  -3   3   7  204.41   15.90
  -3   3   7  206.28   16.30
  -3   3   7  194.98   13.27
   2  -3  -7   22.99    6.58
  -2   3   7   23.54    6.74
  -2   3   7   27.56    5.62
  -2   3   7   21.72    7.21
  -2   3   7   23.32    6.00
  -2   3   7   32.31    5.63
   1  -3  -7  568.83   30.66
  -1   3   7  611.77   28.69
  -1   3   7  579.58   29.34
  -1   3   7  573.03   30.11
  -1   3   7  547.54   39.21
  -1   3   7  607.94   29.14
  -1   3   7  600.63   31.80
   0  -3  -7  166.97   11.16
   0  -3  -7  146.79   10.49
   0  -3  -7  136.26   12.03
   0   3   7  124.22   18.80
   0   3   7  129.36    9.82
   0   3   7  160.90   13.53
   0   3   7  154.47   10.71
  -1  -3  -7   23.71    4.65
  -1  -3  -7   25.61    4.55
   1   3   7   18.00    7.93
   1   3   7   23.12    5.95
  -2  -3  -7  288.15   18.34
   2   3   7  254.35   16.07
  -4   4   7    8.56    3.45
  -4   4   7   11.85    4.45
  -4   4   7    7.41    3.84
   3  -4  -7   66.30    6.19
  -3   4   7   52.46    5.67
  -3   4   7   54.66    6.20
  -3   4   7   56.74    6.24
  -3   4   7   52.57    6.80
  -3   4   7   67.78    8.10
   2  -4  -7  407.40   19.88
  -2   4   7  394.88   20.31
  -2   4   7  403.74   19.86
  -2   4   7  390.95   21.46
  -2   4   7  398.17   19.76
  -2   4   7  383.69   20.76
   1  -4  -7    0.95    3.16
  -1   4   7    8.64    3.25
  -1   4   7    1.63    4.22
  -1   4   7    5.89    3.49
   2   9  -8  119.22   10.48
  -2  -9   8  127.14   15.07
   1   9  -8   91.16   10.95
   1   9  -8   92.06    8.08
  -1  -9   8   99.35   14.58
   0   9  -8   67.27    7.20
   0  -9   8   72.85   13.05
   4   8  -8    4.63    4.97
  -4  -8   8   -0.15    5.41
   3   8  -8  165.45   14.49
  -3  -8   8  200.07   19.13
   2   8  -8    7.82    6.25
   2   8  -8   14.58    4.50
  -2  -8   8    7.57    8.00
   1   8  -8    3.78    5.35
   1   8  -8   13.45    4.92
  -1  -8   8   12.73    8.17
   0   8  -8  122.19   11.13
   0  -8   8  145.95   17.56
  -1   8  -8  136.20   10.97
   1  -8   8  141.34   16.32
  -2   8  -8   71.15    7.78
  -2   8  -8   76.90    7.26
   2  -8   8   66.31   11.91
   5   7  -8   50.66    7.22
   5   7  -8   71.89    8.05
  -5  -7   8   41.30    8.48
   4   7  -8  356.57   22.75
   4   7  -8  377.93   20.40
  -4  -7   8  375.34   27.15
   3   7  -8    1.62    6.78
  -3  -7   8    8.86    7.46
   2   7  -8   15.53    5.35
   2   7  -8   15.42    7.47
  -2  -7   8   19.79    9.15
   1   7  -8  246.91   16.74
   1   7  -8  256.19   18.01
  -1  -7   8  247.04   23.50
   0   7  -8   82.96    9.34
   0  -7   8  104.49   16.09
  -1   7  -8    2.66    5.03
  -1   7  -8    3.73    6.28
  -1   7  -8    8.01    4.79
   1  -7   8    7.17    6.87
  -2   7  -8  209.14   16.24
  -2   7  -8  212.76   14.51
  -2   7  -8  208.31   13.22
  -3   7  -8   80.63    7.09
  -3   7  -8   89.44    8.85
   6   6  -8   78.99    9.03
   6   6  -8   76.87    8.59
  -6  -6   8   64.77   11.44
   5   6  -8  162.15   14.13
   5   6  -8  148.88   12.04
  -5  -6   8  143.11   16.63
   4   6  -8   90.66   10.95
   4   6  -8  104.05   13.91
  -4  -6   8   97.47   15.88
   3   6  -8  226.02   19.01
   3   6  -8  210.48   13.97
  -3  -6   8  197.52   21.26
   2   6  -8  162.51   13.51
   2   6  -8  189.16   17.00
  -2  -6   8  157.34   19.84
   1   6  -8   15.73    6.83
   1   6  -8   31.34    7.14
   0   6  -8  104.36   10.66
  -1   6  -8  473.16   24.60
  -1   6  -8  431.73   27.16
  -1   6  -8  453.72   25.09
  -2   6  -8   45.09    6.19
  -2   6  -8   42.49    6.94
  -2   6  -8   26.89    7.88
  -3   6  -8    3.91    4.62
  -3   6  -8    5.81    5.46
  -4   6  -8  328.13   17.36
   7   5  -8    9.47    4.18
  -7  -5   8    9.12    4.64
   6   5  -8    1.59    5.07
   6   5  -8   10.99    5.35
  -6  -5   8   13.76    6.53
   5   5  -8  127.38   13.83
  -5  -5   8  103.42   12.72
   4   5  -8  248.20   19.95
   4   5  -8  219.14   45.55
  -4  -5   8  261.72   18.15
   3   5  -8  245.67   17.31
   3   5  -8  297.93   21.93
   3   5  -8  314.39   35.88
  -3  -5   8  280.59   20.06
   2   5  -8  263.80   17.53
   2   5  -8  292.77   20.37
   2   5  -8  243.94   32.83
   1   5  -8  158.55   28.81
   1   5  -8  177.11   13.80
   1   5  -8  157.30   14.74
   0   5  -8  175.72   15.82
   0   5  -8  212.19   14.59
   0   5  -8  166.45   13.35
   0   5  -8  138.41   30.63
  -1   5  -8   44.71    7.16
  -1   5  -8   40.46    8.72
  -1   5  -8   33.71    6.33
  -2   5  -8   17.41    5.84
  -2   5  -8   20.48    7.25
  -2   5  -8   14.17    4.73
  -3   5  -8  383.25   22.96
  -3   5  -8  397.50   21.37
  -4   5  -8   -4.22    3.55
   7   4  -8    8.34    4.52
  -7  -4   8   13.96    6.07
  -7  -4   8    9.11    4.82
   6   4  -8  273.97   18.19
  -6  -4   8  269.75   19.29
  -6  -4   8  274.94   18.22
   5   4  -8   29.56    8.05
   5   4  -8   -0.55   22.02
  -5  -4   8   39.07    8.43
  -5  -4   8   39.07    7.85
   4   4  -8  -17.31   15.18
   4   4  -8    7.10    7.02
  -4  -4   8    3.01    6.02
  -4  -4   8   10.65    7.77
   3   4  -8  470.62   62.34
   3   4  -8  616.42   30.80
  -3  -4   8  626.81   34.38
  -3  -4   8  657.18   32.17
   2   4  -8  134.79   12.14
   2   4  -8  105.92   26.49
  -2  -4   8  128.63   14.07
   1   4  -8  125.19   25.69
   1   4  -8  162.83   13.40
   1   4  -8  166.52   13.10
  -1  -4   8  125.89   13.40
   0   4  -8  578.40   29.58
   0   4  -8  551.09   47.46
   0   4  -8  557.72   29.26
   0   4  -8  596.09   31.96
  -1   4  -8  326.93   21.01
  -1   4  -8  321.18   18.36
  -1   4  -8  278.48   35.63
  -1   4  -8  318.83   19.03
  -2   4  -8  218.72   34.33
  -2   4  -8  272.42   16.78
  -2   4  -8  294.88   19.10
  -2   4  -8  246.58   15.17
  -3   4  -8   46.40    7.59
  -3   4  -8   44.81    6.55
  -4   4  -8  147.33   10.17
  -4   4  -8  140.21   11.25
  -4   4  -8  152.20   14.02
  -7  -3   8  270.36   16.18
  -7  -3   8  245.80   25.56
  -7  -3   8  257.99   17.69
   6   3  -8   44.96    7.92
  -6  -3   8   43.77    7.50
  -6  -3   8   36.49   13.24
  -6  -3   8   63.88   10.04
   4   3  -8  542.45   28.80
  -4  -3   8  658.22   33.74
  -4  -3   8  579.10   30.92
  -4  -3   8  535.97   32.42
   3   3  -8   86.37   10.23
  -3  -3   8  110.18   14.55
  -3  -3   8  103.34   11.92
   2   3  -8   -1.56    3.03
   2   3  -8   -0.68    4.58
  -2  -3   8    5.98    6.55
   1   3  -8  931.41   46.12
   1   3  -8  891.21   63.69
   1   3  -8  953.13   44.26
   1   3  -8  990.97   44.65
  -1  -3   8  872.14   45.87
   0   3  -8  101.24   23.73
   0   3  -8  108.44   12.80
   0   3  -8  111.82   10.78
   0   3  -8  125.46   11.02
  -1   3  -8   17.06    6.80
  -1   3  -8   21.42    6.10
  -1   3  -8   21.17    5.14
  -2   3  -8  239.76   14.97
  -2   3  -8  284.02   18.27
  -2   3  -8  299.67   16.72
  -2   3  -8  228.07   31.28
  -3   3  -8  138.34   11.03
  -3   3  -8  137.83   12.36
  -4   3  -8   92.45    7.88
  -4   3  -8   78.76    7.57
  -8  -2   8   72.25    8.66
  -7  -2   8   79.83    8.94
  -7  -2   8   54.72   12.36
  -7  -2   8   57.21    8.36
   6   2  -8   57.38   52.27
  -6  -2   8   97.51   11.80
  -6  -2   8  111.73   11.77
  -6  -2   8  105.77   13.20
  -6  -2   8  108.82   23.18
   4   2  -8  118.11   10.54
  -4  -2   8  148.00   15.36
  -4  -2   8  142.94   12.90
  -4  -2   8  115.32   14.53
  -4  -2   8  132.59   30.08
   3   2  -8  350.70   21.04
  -3  -2   8  387.35   41.85
  -3  -2   8  405.26   22.81
  -3  -2   8  410.67   24.67
  -3  -2   8  373.33   24.46
  -3  -2   8  402.97   21.91
   2   2  -8  251.68   36.82
   2   2  -8  296.71   17.69
  -2  -2   8  314.03   20.81
  -2  -2   8  301.13   18.11
  -2  -2   8  407.59   39.33
  -2  -2   8  293.32   18.45
  -2  -2   8  268.61   20.17
   1   2  -8   30.23    7.15
   1   2  -8   27.03    5.63
   1   2  -8   36.20    6.14
  -1  -2   8   36.63    7.63
   0   2  -8   92.93    9.19
   0   2  -8   87.35    9.59
   0   2  -8   93.58   11.30
  -1   2  -8  668.65   33.43
  -1   2  -8  599.48   30.30
  -1   2  -8  657.02   31.40
  -1   2  -8  556.06   51.91
  -2   2  -8   70.75    9.18
  -2   2  -8   92.05    9.76
  -2   2  -8   90.43   26.10
  -3   2  -8    8.33    4.18
  -3   2  -8    8.60    4.97
  -3   2  -8    5.22    4.00
  -4   2  -8  311.71   16.56
  -4   2  -8  330.33   17.01
  -7  -1   8  172.65   13.75
  -7  -1   8  193.40   12.53
  -7  -1   8  197.75   22.46
  -6  -1   8   40.35    6.75
  -6  -1   8   46.63    7.78
  -6  -1   8   39.82   12.69
  -6  -1   8   49.48    8.85
  -5  -1   8  210.34   28.77
  -5  -1   8  200.49   17.69
  -5  -1   8  228.44   17.22
  -5  -1   8  233.47   16.00
  -4  -1   8  326.33   34.75
  -4  -1   8  380.39   21.59
  -4  -1   8  378.35   23.26
  -4  -1   8  352.64   19.89
  -4  -1   8  349.74   23.56
  -3  -1   8  235.26   17.77
  -3  -1   8  244.02   31.62
  -3  -1   8  228.54   16.22
  -3  -1   8  253.04   15.70
  -3  -1   8  225.46   18.07
   1   1  -8  374.76   21.53
   1   1  -8  342.36   19.62
  -1  -1   8  377.73   20.26
  -1  -1   8  337.56   22.33
  -1  -1   8  361.39   21.76
  -1  -1   8  345.29   36.78
   0   1  -8  656.98   31.87
   0   1  -8  624.65   33.50
   0   1  -8  632.79   31.33
   0  -1   8  649.70   49.74
   0  -1   8  624.20   31.53
  -2   1  -8  180.83   14.51
  -2   1  -8  187.25   13.14
   2  -1   8  196.53   27.43
  -3   1  -8  409.29   20.97
  -3   1  -8  393.18   22.21
  -3   1  -8  397.30   20.92
   3  -1   8  435.86   33.84
  -4   1  -8   26.65    6.03
   4  -1   8   15.58    8.83
  -7   0   8    9.33    6.92
  -7   0   8    4.95    3.81
  -7   0   8    7.02    4.84
  -6   0   8  237.75   16.00
  -6   0   8  258.81   15.32
  -6   0   8  258.86   17.51
  -6   0   8  224.17   25.69
  -5   0   8  120.90   12.86
  -5   0   8  132.51   12.06
  -5   0   8  115.03   10.08
  -5   0   8  142.66   23.76
  -5   0   8  135.94   14.10
  -4   0   8   -1.26    6.34
  -4   0   8    5.17    9.18
  -4   0   8   -6.98    4.58
  -4   0   8    3.53    4.34
  -4   0   8   -3.03    5.29
  -3   0   8  820.68   39.99
  -3   0   8  847.40   56.91
  -3   0   8  824.11   40.75
  -3   0   8  818.91   42.93
  -3   0   8  832.54   42.30
   2   0  -8  203.62   15.37
   2   0  -8  200.85   13.53
  -2   0   8  196.94   16.77
  -2   0   8  235.25   14.57
  -2   0   8  201.36   27.61
  -2   0   8  176.54   14.34
  -2   0   8  197.60   15.89
   1   0  -8  119.45   12.55
   1   0  -8  125.01   10.80
  -1   0   8  131.04   12.30
  -1   0   8  130.00   13.39
  -1   0   8  118.62   10.85
  -1   0   8  108.42   23.74
   0   0  -8  361.20   22.00
   0   0  -8  365.41   20.32
   0   0   8  366.44   22.82
   0   0   8  367.88   20.10
   0   0   8  372.93   34.92
  -1   0  -8  252.27   16.75
  -1   0  -8  228.99   13.78
  -1   0  -8  226.88   14.71
   1   0   8  262.27   29.10
  -2   0  -8  157.96   12.41
  -2   0  -8  138.60   10.68
   2   0   8  141.68   21.83
  -3   0  -8   10.40    3.47
  -3   0  -8    9.87    3.44
   3   0   8   13.71    7.88
  -6   1   8   -5.67    3.97
  -6   1   8    3.56    4.83
  -6   1   8   -3.60    3.60
  -6   1   8    2.64    6.68
  -5   1   8    9.49    8.38
  -5   1   8   13.54    5.99
  -5   1   8    3.67    4.92
  -5   1   8    7.13    5.47
  -5   1   8   17.12    4.12
  -4   1   8  454.13   25.16
  -4   1   8  483.78   24.52
  -4   1   8  483.03   26.75
  -4   1   8  499.70   38.14
  -4   1   8  451.69   27.02
  -3   1   8   37.72    8.03
  -3   1   8   23.99    5.76
  -3   1   8   29.66    6.33
  -3   1   8   34.57    7.87
  -3   1   8   24.13   11.08
   2  -1  -8   15.18    6.00
   2  -1  -8   18.46    5.15
  -2   1   8   20.19    5.19
  -2   1   8   18.42    6.97
  -2   1   8   15.83    5.52
  -2   1   8   13.51    6.31
  -2   1   8   16.40   10.09
   1  -1  -8  495.97   24.62
   1  -1  -8  455.41   26.13
  -1   1   8  462.58   25.40
  -1   1   8  467.17   24.33
  -1   1   8  469.35   38.53
  -1   1   8  466.23   24.59
  -1   1   8  480.14   27.35
   0  -1  -8  214.30   13.99
   0  -1  -8  215.35   15.64
   0   1   8  220.05   13.30
   0   1   8  210.19   24.82
   0   1   8  215.00   16.26
  -1  -1  -8   27.70    6.35
  -1  -1  -8   42.97    5.80
   1   1   8   42.86    7.00
   1   1   8   28.58   10.18
  -2  -1  -8  235.77   12.95
  -2  -1  -8  203.33   14.67
   2   1   8  241.97   23.09
  -5   2   8  284.22   16.43
  -5   2   8  321.59   18.19
  -5   2   8  315.43   17.49
  -5   2   8  308.00   15.72
  -4   2   8   23.14    4.64
  -4   2   8   19.28    6.04
  -4   2   8   17.65    7.98
  -4   2   8   28.93    6.05
  -4   2   8   34.61    5.70
   3  -2  -8  119.69    9.32
  -3   2   8  127.59   12.27
  -3   2   8  129.15   11.64
  -3   2   8  141.72   10.31
  -3   2   8  128.09   18.77
  -3   2   8  129.45   10.58
   2  -2  -8  402.91   20.56
   2  -2  -8  379.55   24.95
  -2   2   8  408.77   21.13
  -2   2   8  381.87   22.89
  -2   2   8  366.49   30.15
  -2   2   8  405.08   21.99
  -2   2   8  411.79   20.63
   1  -2  -8   61.35    8.80
   1  -2  -8   74.41    7.82
  -1   2   8   71.04    7.86
  -1   2   8   81.37    7.24
  -1   2   8   38.74   10.42
  -1   2   8   55.18    8.23
   0  -2  -8   54.79    5.92
   0   2   8   48.91    7.39
   0   2   8   39.72    9.98
   0   2   8   39.10    4.76
  -1  -2  -8  495.07   23.04
   1   2   8  475.25   25.46
   1   2   8  468.09   31.83
  -2   3   8   23.08    3.93
  -2   3   8   25.80    5.24
   3   8  -9   93.23    8.90
   2   8  -9  212.84   14.69
   2   8  -9  238.99   14.07
   1   8  -9   -0.51    3.32
   0   8  -9   14.04    3.79
   4   7  -9   40.09    6.57
   3   7  -9  103.34   10.89
   2   7  -9  108.09    9.71
   2   7  -9  119.73   11.30
   1   7  -9  167.20   11.66
   1   7  -9  141.58   11.41
   0   7  -9  167.59   11.59
  -1   7  -9   85.09    7.67
  -2   7  -9   60.53    7.04
   5   6  -9   67.72    7.11
   5   6  -9   47.75    7.08
   4   6  -9   -6.09    5.02
   3   6  -9  220.00   14.30
   3   6  -9  267.75   17.82
   2   6  -9  130.79   11.01
   2   6  -9  124.51   11.95
   1   6  -9   83.07    9.29
   1   6  -9   71.87    9.32
   0   6  -9   77.03    8.76
  -1   6  -9  135.22   10.22
  -1   6  -9  144.55   17.85
  -1   6  -9  133.96   10.08
  -2   6  -9  110.21    8.13
  -2   6  -9  114.59    8.87
  -3   6  -9   34.74    5.34
   6   5  -9   -0.51    3.55
   6   5  -9   -0.13    3.74
   5   5  -9  105.55   10.91
   5   5  -9   95.44    9.15
  -5  -5   9   83.12    9.37
   4   5  -9  192.67   15.41
  -4  -5   9  172.69   12.93
   3   5  -9   10.12    6.45
   3   5  -9   11.83    4.77
   2   5  -9   -1.60    4.26
   2   5  -9    3.08    5.30
   2   5  -9    1.29    2.85
   1   5  -9  375.42   22.46
   1   5  -9  456.16   22.60
   1   5  -9  405.23   38.28
   0   5  -9  228.48   14.20
   0   5  -9  236.92   14.58
  -1   5  -9    2.23    3.91
  -1   5  -9    8.72    4.07
  -1   5  -9    4.75    5.04
  -2   5  -9  326.32   17.14
  -2   5  -9  309.66   19.88
  -2   5  -9  304.19   16.24
  -3   5  -9  184.20   10.93
   6   4  -9  135.19   10.70
  -6  -4   9  135.48   10.31
  -6  -4   9  125.40   10.73
   5   4  -9  425.97   23.57
  -5  -4   9  393.08   22.19
   4   4  -9   22.33    5.56
   4   4  -9   33.85    7.29
  -4  -4   9   26.75    5.92
   3   4  -9  249.21   17.19
   3   4  -9  214.70   29.54
   3   4  -9  239.61   14.74
   2   4  -9  439.28   22.29
   2   4  -9  437.87   23.75
   2   4  -9  366.28   38.34
   1   4  -9   14.31    5.27
   1   4  -9   14.99    4.62
   0   4  -9    1.17    3.02
   0   4  -9   -2.35    3.77
   0   4  -9    4.99    5.21
   0   4  -9    8.99    4.24
  -1   4  -9  349.22   18.99
  -1   4  -9  381.19   19.47
  -1   4  -9  348.42   21.02
  -2   4  -9   64.20    6.90
  -2   4  -9   46.36    5.24
  -2   4  -9   40.49    6.39
  -3   4  -9   -2.78    2.84
   6   3  -9  103.81    9.75
  -6  -3   9   99.93   10.27
  -6  -3   9   90.87   16.42
  -6  -3   9  103.26    9.30
   5   3  -9  260.56   16.16
  -5  -3   9  228.55   16.05
  -5  -3   9  244.82   15.28
  -5  -3   9  214.06   15.77
   4   3  -9  102.79    9.23
   4   3  -9  117.81   25.53
  -4  -3   9  101.82   11.78
  -4  -3   9  113.65   12.11
  -4  -3   9  109.88   10.71
   3   3  -9  156.86   26.31
   3   3  -9  185.23   12.41
  -3  -3   9  190.57   15.15
  -3  -3   9  183.35   12.84
   2   3  -9  127.27   25.14
   2   3  -9  191.26   12.29
  -2  -3   9  171.71   13.59
   1   3  -9  105.03   11.37
   1   3  -9   80.89   21.72
   1   3  -9   93.75    9.19
  -1  -3   9   97.82   10.13
   0   3  -9  405.70   19.98
   0   3  -9  373.02   21.39
   0   3  -9  401.22   19.87
   0   3  -9  302.12   33.80
  -1   3  -9    5.29    3.49
  -1   3  -9   10.35    5.06
  -1   3  -9    8.63    4.10
  -2   3  -9   88.05    7.86
  -2   3  -9   84.97    9.05
  -3   3  -9  381.45   18.91
   6   2  -9  317.52   17.04
  -6  -2   9  277.02   24.93
  -6  -2   9  282.48   17.45
  -6  -2   9  313.71   16.60
  -5  -2   9  104.14   19.85
  -5  -2   9  101.55   10.84
  -5  -2   9  124.61   10.21
  -5  -2   9  105.19   11.27
   4   2  -9  126.73    9.76
  -4  -2   9  134.37   12.49
  -4  -2   9  136.47   11.14
  -4  -2   9  120.34   12.54
  -4  -2   9  139.87   23.68
   3   2  -9  515.11   40.00
   3   2  -9  424.89   22.88
  -3  -2   9  424.84   23.52
  -3  -2   9  442.75   38.78
  -3  -2   9  419.30   25.29
  -3  -2   9  459.14   25.61
   2   2  -9  531.26   39.96
   2   2  -9  419.13   22.52
  -2  -2   9  404.40   38.20
  -2  -2   9  367.59   23.80
   1   2  -9   88.06   10.16
   1   2  -9   91.59    8.48
   1   2  -9   79.50    8.78
  -1  -2   9   72.72   16.96
   0   2  -9  200.65   12.92
   0   2  -9  197.02   14.65
   0   2  -9  207.78   12.96
   0  -2   9  229.14   32.19
  -1   2  -9  232.40   13.20
  -1   2  -9  202.80   12.42
  -1   2  -9  203.18   14.27
  -2   2  -9  252.92   14.06
  -6  -1   9    2.22    6.30
  -6  -1   9    0.64    3.36
  -6  -1   9    7.08    4.18
  -6  -1   9    1.42    4.04
  -5  -1   9   78.24    8.26
  -5  -1   9   76.48    9.85
  -5  -1   9   65.72   16.12
  -5  -1   9   73.78    9.70
   4   1  -9  275.53   15.66
  -4  -1   9  287.64   18.65
  -4  -1   9  298.25   28.80
  -4  -1   9  282.54   16.62
  -4  -1   9  293.49   18.48
   3   1  -9   99.94    8.91
  -3  -1   9  101.60   20.75
  -3  -1   9   98.20   11.31
  -3  -1   9   95.52    9.38
  -3  -1   9   93.31   11.18
   2   1  -9   22.80    4.62
  -2  -1   9   19.97   10.45
  -2  -1   9   24.13    6.20
  -2  -1   9   22.25    6.49
   1   1  -9  429.90   24.76
   1   1  -9  490.20   23.59
   1   1  -9  472.13   23.49
  -1  -1   9  461.11   37.62
   0   1  -9   87.24    8.29
   0   1  -9   83.41    9.56
   0   1  -9   76.52    7.78
   0  -1   9   78.41   19.50
  -1   1  -9   63.58   10.07
  -1   1  -9   56.74    5.92
  -1   1  -9   53.56    6.34
   1  -1   9   36.49   10.57
  -2   1  -9  171.10   10.35
   2  -1   9  175.78   19.52
  -5   0   9  177.26   12.61
  -5   0   9  166.35   11.16
  -5   0   9  172.29   19.72
  -5   0   9  163.70   11.99
   4   0  -9    1.90    3.21
  -4   0   9    2.75    7.16
  -4   0   9    1.38    5.00
  -4   0   9   10.08    5.11
  -4   0   9   -0.98    3.66
  -3   0   9   81.69   17.85
  -3   0   9   78.07    8.20
  -3   0   9   72.70    8.77
  -3   0   9   62.80    8.49
  -3   0   9   69.34    8.29
   2   0  -9  463.39   22.47
   2   0  -9  412.62   21.80
  -2   0   9  456.68   34.27
  -2   0   9  432.56   26.58
  -2   0   9  429.43   23.50
  -2   0   9  491.65   22.82
  -2   0   9  416.85   24.25
   1   0  -9   24.22    4.37
   1   0  -9   20.46    4.32
  -1   0   9   27.93    6.22
  -1   0   9   12.73    8.83
   0   0  -9    9.68    3.67
   0   0  -9   10.42    3.51
   0   0   9    7.81    7.78
  -1   0  -9  390.89   19.71
   1   0   9  412.87   29.64
   4  -1  -9   98.78    7.64
  -4   1   9  103.03   16.52
  -4   1   9  113.59    7.85
  -4   1   9  113.06    9.37
  -4   1   9  121.41    9.57
  -4   1   9  119.95    8.33
  -3   1   9  244.83   14.72
  -3   1   9  244.65   13.62
  -3   1   9  240.24   15.32
  -3   1   9  248.84   22.19
  -3   1   9  260.52   13.99
   2  -1  -9   23.72    4.34
   2  -1  -9   28.87    4.33
  -2   1   9   31.57    4.40
  -2   1   9   32.01    5.92
  -2   1   9   29.28    5.13
  -2   1   9   17.31    7.69
   1  -1  -9  197.12   11.22
   1  -1  -9  207.62   11.47
  -1   1   9  203.88   19.94
  -1   1   9  204.33   13.09
   4   6 -10    2.33    3.68
   3   6 -10   37.16    5.36
   3   6 -10   52.72    7.35
   2   6 -10  368.69   17.85
   2   6 -10  334.67   18.33
   1   6 -10    0.56    2.88
   0   6 -10   39.97    4.54
   4   5 -10  189.76   12.35
   3   5 -10  119.50    9.75
   3   5 -10  123.61    8.49
   2   5 -10   56.14    6.44
   2   5 -10   52.76    7.26
   1   5 -10  109.06    8.29
   0   5 -10  175.50   10.53
   5   4 -10   28.62    5.03
   4   4 -10    7.29    4.54
   3   4 -10   92.23    9.02
   3   4 -10   79.66    7.33
   2   4 -10  154.98   10.95
   2   4 -10  177.43   10.69
   1   4 -10  111.26    8.41
   0   4 -10   70.57    6.67
   0   4 -10   83.27    8.97
   5   3 -10   42.38    5.33
   4   3 -10  373.91   18.88
   4   3 -10  404.98   20.67
   3   3 -10   80.12    8.26
   3   3 -10   71.77    6.80
   2   3 -10    0.37    3.58
   2   3 -10    3.78    3.23
   1   3 -10  355.87   18.06
   0   3 -10  144.59    9.12
   0   3 -10  157.36    9.38
   4   2 -10   34.11    5.08
   4   2 -10   24.65    4.15
  -4  -2  10   30.62    5.03
  -4  -2  10   21.36    7.69
   3   2 -10   74.08    6.33
  -3  -2  10   57.19   14.29
  -3  -2  10   67.33    7.36
   2   2 -10  271.98   13.72
   2   2 -10  254.36   14.07
  -2  -2  10  222.31   13.89
  -2  -2  10  263.50   23.54
   1   2 -10   22.71    3.84
  -1  -2  10   12.03    7.33
   0   2 -10    5.53    3.47
   3   1 -10  140.60    8.62
  -3  -1  10  139.44   16.63
   2   1 -10    9.68    2.98
  -2  -1  10    4.22    6.11
   0   0   0    0.00    0.00


 _exptl_absorpt_process_details 'SADABS 2014/5'
 _exptl_absorpt_correction_type   multi-scan
 _exptl_absorpt_correction_T_max  0.7531
 _exptl_absorpt_correction_T_min  0.5234
 _exptl_special_details
)
 The following wavelength and cell were deduced by SADABS from the
 direction cosines etc. They are given here for emergency use only:
 CELL 1.54185    8.345    8.457    8.793  113.746  101.769   91.587
)

_computing_structure_solution     'SHELXT 2014/5 (Sheldrick, 2014)'
;
_shelx_hkl_checksum              81177
loop_
_space_group_symop_operation_xyz
'x, y, z'
'-x, -y, -z'
loop_
_atom_site_type_symbol
_atom_site_label
_atom_site_fract_x
_atom_site_fract_y
_atom_site_fract_z
_atom_site_U_iso_or_equiv
_atom_site_adp_type
_atom_site_calc_flag
_atom_site_refinement_flags_adp
_atom_site_refinement_flags_occupancy
_atom_site_refinement_flags_posn
_atom_site_occupancy
I I1 0.14679(5) 0.24377(5) -0.01961(4) 0.0291(2) Uani d . . . 1
Ni Ni1 0.5 0.5 0.5 0.0125(3) Uani d . P S 1
C C1 0.5993(7) 0.7116(7) 0.5149(7) 0.0160(11) Uani d . . . 1
C C2 0.6838(8) 0.9286(7) 0.4502(9) 0.0240(13) Uani d . . . 1
H H2 0.6953 0.9947 0.3868 0.029 Uiso calc U . R 1
C C3 0.7568(8) 0.9714(7) 0.6134(9) 0.0239(13) Uani d . . . 1
H H3 0.8307 1.073 0.6886 0.029 Uiso calc U . R 1
C C4 0.4860(8) 0.6800(8) 0.2186(8) 0.0233(13) Uani d . . . 1
H H4A 0.5484 0.683 0.1366 0.035 Uiso calc U . R 1
H H4B 0.387 0.7378 0.2073 0.035 Uiso calc U . R 1
H H4C 0.4539 0.5587 0.1958 0.035 Uiso calc U . R 1
C C5 0.2979(7) 0.5977(7) 0.5174(7) 0.0155(11) Uani d . . . 1
C C6 0.0947(8) 0.7473(8) 0.6197(8) 0.0207(12) Uani d . . . 1
H H6 0.0352 0.8175 0.6983 0.025 Uiso calc U . R 1
C C7 0.0458(8) 0.6766(8) 0.4507(8) 0.0214(13) Uani d . . . 1
H H7 -0.0557 0.6862 0.3847 0.026 Uiso calc U . R 1
C C8 0.3408(10) 0.7444(10) 0.8346(8) 0.0319(16) Uani d . . . 1
H H8A 0.3384 0.8681 0.9043 0.048 Uiso calc U . R 1
H H8B 0.4554 0.7216 0.8353 0.048 Uiso calc U . R 1
H H8C 0.2901 0.6741 0.8817 0.048 Uiso calc U . R 1
N N1 0.5875(6) 0.7691(6) 0.3901(7) 0.0187(10) Uani d . . . 1
N N2 0.7034(7) 0.8378(6) 0.6514(7) 0.0190(10) Uani d . . D 1
N N3 0.2494(7) 0.6988(6) 0.6595(6) 0.0180(10) Uani d . . . 1
H H1N 0.732(9) 0.816(9) 0.744(6) 0.022 Uiso d U . D 1
N N4 0.1703(6) 0.5868(6) 0.3892(6) 0.0180(10) Uani d . . D 1
H H2N 0.164(10) 0.532(8) 0.277(3) 0.022 Uiso d U . D 1
loop_
_atom_site_aniso_label
_atom_site_aniso_U_11
_atom_site_aniso_U_22
_atom_site_aniso_U_33
_atom_site_aniso_U_12
_atom_site_aniso_U_13
_atom_site_aniso_U_23
I1 0.0314(3) 0.0305(3) 0.0177(3) -0.00180(18) 0.00244(18) 0.00427(17)
Ni1 0.0106(7) 0.0130(6) 0.0145(6) 0.0007(5) 0.0039(5) 0.0060(5)
C1 0.013(3) 0.016(2) 0.019(3) 0.004(2) 0.005(2) 0.006(2)
C2 0.023(3) 0.017(3) 0.036(3) -0.003(2) 0.006(3) 0.015(2)
C3 0.016(3) 0.016(3) 0.036(3) -0.004(2) 0.004(3) 0.008(2)
C4 0.025(3) 0.027(3) 0.016(3) 0.000(3) 0.003(3) 0.009(2)
C5 0.016(3) 0.013(2) 0.018(3) 0.000(2) 0.005(2) 0.007(2)
C6 0.013(3) 0.021(3) 0.031(3) 0.006(2) 0.009(3) 0.011(2)
C7 0.013(3) 0.025(3) 0.028(3) 0.001(2) 0.003(3) 0.014(2)
C8 0.028(4) 0.045(4) 0.015(3) 0.012(3) 0.005(3) 0.005(3)
N1 0.015(3) 0.020(2) 0.022(2) 0.000(2) 0.003(2) 0.010(2)
N2 0.017(3) 0.019(2) 0.020(2) 0.001(2) -0.001(2) 0.0087(19)
N3 0.017(3) 0.019(2) 0.017(2) 0.0024(19) 0.004(2) 0.0061(18)
N4 0.013(3) 0.023(2) 0.018(2) 0.001(2) 0.002(2) 0.0098(19)
loop_
_atom_type_symbol
_atom_type_description
_atom_type_scat_dispersion_real
_atom_type_scat_dispersion_imag
_atom_type_scat_source
I I -0.3257 6.8362 'International Tables Vol C Tables 4.2.6.8 and 6.1.1.4'
Ni Ni -3.0029 0.5091 'International Tables Vol C Tables 4.2.6.8 and 6.1.1.4'
C C 0.0181 0.0091 'International Tables Vol C Tables 4.2.6.8 and 6.1.1.4'
H H 0.0000 0.0000 'International Tables Vol C Tables 4.2.6.8 and 6.1.1.4'
N N 0.0311 0.0180 'International Tables Vol C Tables 4.2.6.8 and 6.1.1.4'
loop_
_geom_angle_atom_site_label_1
_geom_angle_atom_site_label_2
_geom_angle_atom_site_label_3
_geom_angle_site_symmetry_1
_geom_angle_site_symmetry_3
_geom_angle
C1 Ni1 C1 2_666 . 180.0
C1 Ni1 C5 2_666 2_666 89.5(2)
C1 Ni1 C5 . 2_666 90.5(2)
C1 Ni1 C5 2_666 . 90.5(2)
C1 Ni1 C5 . . 89.5(2)
C5 Ni1 C5 2_666 . 180.0
N2 C1 N1 . . 103.8(5)
N2 C1 Ni1 . . 127.8(4)
N1 C1 Ni1 . . 128.3(4)
C3 C2 N1 . . 107.2(5)
C3 C2 H2 . . 126.4
N1 C2 H2 . . 126.4
C2 C3 N2 . . 106.2(5)
C2 C3 H3 . . 126.9
N2 C3 H3 . . 126.9
N1 C4 H4A . . 109.5
N1 C4 H4B . . 109.5
H4A C4 H4B . . 109.5
N1 C4 H4C . . 109.5
H4A C4 H4C . . 109.5
H4B C4 H4C . . 109.5
N3 C5 N4 . . 103.2(5)
N3 C5 Ni1 . . 128.6(4)
N4 C5 Ni1 . . 128.1(4)
C7 C6 N3 . . 106.7(6)
C7 C6 H6 . . 126.7
N3 C6 H6 . . 126.7
C6 C7 N4 . . 106.8(6)
C6 C7 H7 . . 126.6
N4 C7 H7 . . 126.6
N3 C8 H8A . . 109.5
N3 C8 H8B . . 109.5
H8A C8 H8B . . 109.5
N3 C8 H8C . . 109.5
H8A C8 H8C . . 109.5
H8B C8 H8C . . 109.5
C1 N1 C2 . . 110.9(5)
C1 N1 C4 . . 125.0(5)
C2 N1 C4 . . 124.1(5)
C1 N2 C3 . . 111.8(5)
C1 N2 H1N . . 116.(5)
C3 N2 H1N . . 132.(5)
C5 N3 C6 . . 111.5(5)
C5 N3 C8 . . 125.4(5)
C6 N3 C8 . . 123.0(5)
C5 N4 C7 . . 111.8(5)
C5 N4 H2N . . 127.(5)
C7 N4 H2N . . 122.(5)
loop_
_geom_bond_atom_site_label_1
_geom_bond_atom_site_label_2
_geom_bond_site_symmetry_2
_geom_bond_distance
Ni1 C1 2_666 1.895(6)
Ni1 C1 . 1.895(6)
Ni1 C5 2_666 1.905(6)
Ni1 C5 . 1.905(6)
C1 N2 . 1.351(8)
C1 N1 . 1.356(8)
C2 C3 . 1.332(10)
C2 N1 . 1.391(8)
C2 H2 . 0.95
C3 N2 . 1.388(8)
C3 H3 . 0.95
C4 N1 . 1.445(8)
C4 H4A . 0.98
C4 H4B . 0.98
C4 H4C . 0.98
C5 N3 . 1.349(8)
C5 N4 . 1.356(8)
C6 C7 . 1.326(9)
C6 N3 . 1.385(8)
C6 H6 . 0.95
C7 N4 . 1.375(9)
C7 H7 . 0.95
C8 N3 . 1.460(8)
C8 H8A . 0.98
C8 H8B . 0.98
C8 H8C . 0.98
N2 H1N . 0.90(2)
N4 H2N . 0.89(2)
loop_
_geom_torsion_atom_site_label_1
_geom_torsion_atom_site_label_2
_geom_torsion_atom_site_label_3
_geom_torsion_atom_site_label_4
_geom_torsion_site_symmetry_1
_geom_torsion
C5 Ni1 C1 N2 2_666 -76.8(6)
C5 Ni1 C1 N2 . 103.2(6)
C5 Ni1 C1 N1 2_666 100.5(6)
C5 Ni1 C1 N1 . -79.5(6)
N1 C2 C3 N2 . -0.4(7)
N3 C6 C7 N4 . -0.2(7)
N2 C1 N1 C2 . 0.1(7)
Ni1 C1 N1 C2 . -177.8(5)
N2 C1 N1 C4 . -178.5(6)
Ni1 C1 N1 C4 . 3.6(9)
C3 C2 N1 C1 . 0.2(8)
C3 C2 N1 C4 . 178.8(6)
N1 C1 N2 C3 . -0.3(7)
Ni1 C1 N2 C3 . 177.5(5)
C2 C3 N2 C1 . 0.5(8)
N4 C5 N3 C6 . 0.8(6)
Ni1 C5 N3 C6 . 178.8(4)
N4 C5 N3 C8 . 177.0(6)
Ni1 C5 N3 C8 . -5.0(9)
C7 C6 N3 C5 . -0.4(7)
C7 C6 N3 C8 . -176.7(6)
N3 C5 N4 C7 . -0.9(6)
Ni1 C5 N4 C7 . -178.9(4)
C6 C7 N4 C5 . 0.7(7)
