#------------------------------------------------------------------------------
#$Date: 2019-12-02 13:46:09 +0200 (Mon, 02 Dec 2019) $
#$Revision: 244843 $
#$URL: file:///home/coder/svn-repositories/cod/cif/4/51/38/4513833.cif $
#------------------------------------------------------------------------------
#
# This file is available in the Crystallography Open Database (COD),
# http://www.crystallography.net/
#
# All data on this site have been placed in the public domain by the
# contributors.
#
data_4513833
loop_
_publ_author_name
'Sobczak, Szymon'
'Katrusiak, Andrzej'
_publ_section_title
;
 Singularities in Molecular Conformation
;
_journal_coden_ASTM              CGDEFU
_journal_issue                   11
_journal_name_full               'Crystal Growth & Design'
_journal_page_first              5530
_journal_page_last               5534
_journal_paper_doi               10.1021/acs.cgd.5b01156
_journal_volume                  15
_journal_year                    2015
_chemical_formula_moiety         'C6 H12 O'
_chemical_formula_sum            'C6 H12 O'
_chemical_formula_weight         100.16
_chemical_melting_point          220.65
_chemical_name_common            pinacolone
_chemical_name_systematic        3,3-Dimethyl-2-butanone
_space_group_crystal_system      monoclinic
_space_group_IT_number           11
_space_group_name_Hall           '-P 2yb'
_space_group_name_H-M_alt        'P 1 21/m 1'
_symmetry_space_group_name_Hall  '-P 2yb'
_symmetry_space_group_name_H-M   'P 1 21/m 1'
_atom_sites_solution_hydrogens   difmap
_atom_sites_solution_primary     direct
_atom_sites_solution_secondary   difmap
_audit_block_doi                 10.5517/cc13lkbl
_audit_update_record
;
2015-10-05 deposited with the CCDC.
2016-03-01 downloaded from the CCDC.
;
_cell_angle_alpha                90
_cell_angle_beta                 108.17(2)
_cell_angle_gamma                90
_cell_formula_units_Z            2
_cell_length_a                   5.6991(11)
_cell_length_b                   8.6352(16)
_cell_length_c                   6.9739(13)
_cell_measurement_reflns_used    1363
_cell_measurement_temperature    140(2)
_cell_measurement_theta_max      28.6640
_cell_measurement_theta_min      3.0742
_cell_volume                     326.09(11)
_computing_cell_refinement
;
CrysAlisPro, Agilent Technologies,
Version 1.171.37.31 (release 14-01-2014 CrysAlis171 .NET)
(compiled Jan 14 2014,18:38:05)
;
_computing_data_collection
;
CrysAlisPro, Agilent Technologies,
Version 1.171.37.31 (release 14-01-2014 CrysAlis171 .NET)
(compiled Jan 14 2014,18:38:05)
;
_computing_data_reduction
;
CrysAlisPro, Agilent Technologies,
Version 1.171.37.31 (release 14-01-2014 CrysAlis171 .NET)
(compiled Jan 14 2014,18:38:05)
;
_computing_molecular_graphics    'Olex2 (Dolomanov et al., 2009)'
_computing_publication_material  'Olex2 (Dolomanov et al., 2009)'
_computing_structure_refinement  'ShelXL (Sheldrick, 2008)'
_computing_structure_solution    'ShelXS (Sheldrick, 2008)'
_diffrn_ambient_temperature      140
_diffrn_detector                 'CCD plate'
_diffrn_detector_area_resol_mean 16.1544
_diffrn_detector_type            Eos
_diffrn_measured_fraction_theta_full 0.963
_diffrn_measured_fraction_theta_max 0.964
_diffrn_measurement_device       'four-circle diffractometer'
_diffrn_measurement_device_type  'Xcalibur, Eos'
_diffrn_measurement_method       '\w scans'
_diffrn_orient_matrix_UB_11      0.0882493000
_diffrn_orient_matrix_UB_12      0.0370519000
_diffrn_orient_matrix_UB_13      0.0820526000
_diffrn_orient_matrix_UB_21      -0.0929899000
_diffrn_orient_matrix_UB_22      0.0506014000
_diffrn_orient_matrix_UB_23      0.0111514000
_diffrn_orient_matrix_UB_31      -0.0270511000
_diffrn_orient_matrix_UB_32      -0.0529998000
_diffrn_orient_matrix_UB_33      0.0678341000
_diffrn_radiation_monochromator  graphite
_diffrn_radiation_probe          x-ray
_diffrn_radiation_type           MoK\a
_diffrn_radiation_wavelength     0.71073
_diffrn_reflns_av_R_equivalents  0.0968
_diffrn_reflns_av_unetI/netI     0.0362
_diffrn_reflns_Laue_measured_fraction_full 0.963
_diffrn_reflns_Laue_measured_fraction_max 0.964
_diffrn_reflns_limit_h_max       7
_diffrn_reflns_limit_h_min       -7
_diffrn_reflns_limit_k_max       10
_diffrn_reflns_limit_k_min       -10
_diffrn_reflns_limit_l_max       8
_diffrn_reflns_limit_l_min       -8
_diffrn_reflns_number            5379
_diffrn_reflns_point_group_measured_fraction_full 0.963
_diffrn_reflns_point_group_measured_fraction_max 0.964
_diffrn_reflns_theta_full        25.242
_diffrn_reflns_theta_max         25.974
_diffrn_reflns_theta_min         3.074
_diffrn_source                   'Enhance (Mo) X-ray Source'
_exptl_absorpt_coefficient_mu    0.067
_exptl_absorpt_correction_T_max  1.00000
_exptl_absorpt_correction_T_min  0.72853
_exptl_absorpt_correction_type   multi-scan
_exptl_absorpt_process_details
;
CrysAlisPro, Agilent Technologies,
Version 1.171.37.31 (release 14-01-2014 CrysAlis171 .NET)
(compiled Jan 14 2014,18:38:05)
Empirical absorption correction using spherical harmonics,
 implemented in SCALE3 ABSPACK scaling algorithm.
;
_exptl_crystal_colour            'clear whiteish colourless'
_exptl_crystal_colour_lustre     clear
_exptl_crystal_colour_modifier   whiteish
_exptl_crystal_colour_primary    colourless
_exptl_crystal_density_diffrn    1.020
_exptl_crystal_density_method    'not measured'
_exptl_crystal_description       cylinder
_exptl_crystal_F_000             112
_exptl_crystal_preparation
'The low temperature experiment was performed using OxfordCryo system.'
_exptl_crystal_size_max          0.93
_exptl_crystal_size_mid          0.49
_exptl_crystal_size_min          0.49
_refine_diff_density_max         0.251
_refine_diff_density_min         -0.141
_refine_diff_density_rms         0.035
_refine_ls_extinction_coef       .
_refine_ls_extinction_method     none
_refine_ls_goodness_of_fit_ref   1.120
_refine_ls_hydrogen_treatment    refxyz
_refine_ls_matrix_type           full
_refine_ls_number_parameters     66
_refine_ls_number_reflns         660
_refine_ls_number_restraints     0
_refine_ls_restrained_S_all      1.120
_refine_ls_R_factor_all          0.0521
_refine_ls_R_factor_gt           0.0480
_refine_ls_shift/su_max          0.000
_refine_ls_shift/su_mean         0.000
_refine_ls_structure_factor_coef Fsqd
_refine_ls_weighting_details
'w=1/[\s^2^(Fo^2^)+(0.0467P)^2^+0.0933P] where P=(Fo^2^+2Fc^2^)/3'
_refine_ls_weighting_scheme      calc
_refine_ls_wR_factor_gt          0.1174
_refine_ls_wR_factor_ref         0.1200
_reflns_Friedel_coverage         0.000
_reflns_Friedel_fraction_full    .
_reflns_Friedel_fraction_max     .
_reflns_number_gt                595
_reflns_number_total             660
_reflns_threshold_expression     'I > 2\s(I)'
_cod_data_source_file            1030727-1030734.cif
_cod_data_source_block           pin_lt140
_cod_depositor_comments
;
 Updated bibliographic information.

 Antanas Vaitkus,
 2019-12-02
;
_cod_database_code               4513833
_shelxl_version_number           2013-4
_chemical_oxdiff_formula         C6H12O1
_shelx_space_group_comment
;
The symmetry employed for this shelxl refinement is uniquely defined
by the following loop, which should always be used as a source of
symmetry information in preference to the above space-group names.
They are only intended as comments.
;
_reflns_odcompleteness_completeness 94.43
_reflns_odcompleteness_iscentric 1
_reflns_odcompleteness_theta     28.78
_shelx_res_file
;
TITL lt140 in P21/m #11
REM reset to P21/m #11
CELL 0.71073 5.699064 8.635221 6.973891 90 108.1675 90
ZERR 2 0.001099 0.001639 0.001264 0 0.0207 0
LATT 1
SYMM -X,0.5+Y,-Z
SFAC C H O
UNIT 12 24 2

L.S. 90
PLAN  1
TEMP -133.15
BOND
fmap 2 53
acta
OMIT 0 52
OMIT 5 1 2
OMIT 6 3 1
OMIT 4 1 3
OMIT 0 3 7
OMIT -1 5 1
OMIT 0 4 0
OMIT -1 1 8
OMIT -1 4 1
OMIT 6 0 1
OMIT -1 3 1
OMIT 6 2 1
OMIT 3 4 4
OMIT -2 4 2
OMIT -3 6 3
OMIT -1 2 1
OMIT -2 2 2
OMIT 3 0 4
OMIT -2 0 6
OMIT -1 1 1
OMIT 0 6 0
OMIT 3 2 4
OMIT -4 4 4
OMIT -2 10 2
OMIT -4 2 4
REM <olex2.extras>
REM <HklSrc "%.\\lt140.hkl">
REM </olex2.extras>

WGHT    0.046700    0.093300
FVAR      28.36951
C3    1    0.599719    0.250000    0.276820    10.50000    0.02326    0.02313 =
         0.02527    0.00000    0.00708    0.00000
C2    1    0.578820    0.250000    0.489331    10.50000    0.03002    0.02311 =
         0.02910    0.00000    0.01140    0.00000
O1    3    0.380977    0.250000    0.518553    10.50000    0.03461    0.07611 =
         0.04202    0.00000    0.02086    0.00000
C4    1    0.344220    0.250000    0.120103    10.50000    0.02905    0.04580 =
         0.03350    0.00000    0.00366    0.00000
H4A   2    0.366768    0.250000   -0.020224    10.50000    0.05422
C1    1    0.810292    0.250000    0.665103    10.50000    0.03857    0.07774 =
         0.02464    0.00000    0.00718    0.00000
H1A   2    0.795785    0.283882    0.786620    10.50000   -1.50000
C5    1    0.742618    0.394540    0.251199    11.00000    0.03749    0.02505 =
         0.03466    0.00254    0.01337   -0.00236
H5A   2    0.913791    0.393686    0.346748    11.00000   -1.50000
H5B   2    0.745970    0.400742    0.111075    11.00000   -1.50000
H5C   2    0.659172    0.489240    0.276156    11.00000   -1.50000
H4B   2    0.253606    0.345930    0.134472    11.00000    0.04207
H1B   2    0.962731    0.250000    0.632635    10.50000    0.05484
H1C   2    0.823115    0.126464    0.702668    10.50000    0.04574
HKLF 4

REM  lt140 in P21/m #11
REM R1 =  0.0480 for     595 Fo > 4sig(Fo)  and  0.0521 for all     660 data
REM     66 parameters refined using      0 restraints

END

WGHT      0.0463      0.0938

REM Highest difference peak  0.251,  deepest hole -0.141,  1-sigma level  0.035
Q1    1   0.5942  0.2500  0.3791  10.50000  0.05    0.25
;
_shelx_res_checksum              78418
_shelx_hkl_file
;
   0   0   1 366661. 4478.72  12
   0   0  -1 374051. 2258.46   8
   0   0  -1 355038. 4176.85  12
   0   0  -1 388216. 4138.66  10
   0   0   1 337573. 3911.27  10
   0   0   2 113874. 2526.69   5
   0   0  -2 129973. 3438.83   9
   0   0  -2 142397. 3525.20  10
   0   0   2 114582. 1706.52  14
   0   0  -2 113478. 3324.43  12
   0   0   2 113002. 3545.18  12
   0   0  -2 126679. 1849.46   8
   0   0   2 86094.5 2888.25  10
   0   0  -2 120900. 1622.42  14
   0   0  -2 119323. 2458.83   5
   0   0   2 113895. 1895.56  11
   0   0   3 25366.8 1887.90  10
   0   0  -3 32794.3 1586.97   5
   0   0   3 31712.5 1297.67  11
   0   0  -3 34529.1 2231.24  12
   0   0  -3 35959.9 1262.62   8
   0   0  -3 42299.2 2491.66   9
   0   0  -3 39156.5 2226.52  10
   0   0   3 36485.5 1272.26  14
   0   0  -4 131269. 3667.57   5
   0   0   4 73426.5 3703.95  10
   0   0  -4 131160. 4999.83  12
   0   0  -4 135142. 2737.60   8
   0   0  -4 202513. 6236.61   9
   0   0   4 120411. 3020.76  11
   0   0   4 123845. 2721.31  14
   0   0   5 133009. 3335.05  14
   0   0   5 130188. 3712.86  11
   0   0  -5 137330. 4203.00   5
   0   0  -5 138092. 5902.99  12
   0   0   6 167.670 353.766  10
   0   0  -6 1042.75 403.696   5
   0   0   6 1138.78 359.844  14
   0   0  -6 873.900 528.316  12
   0   0   6 964.960 344.759  11
   0   0  -7 1668.48 756.179   5
   0   0  -7 639.197 582.599  12
   0   0   7 2132.46 650.488  11
   0   0   8 22883.2 2197.77  11
   0   0  -8 25634.6 3378.71  12
   0  -1  -1 368529. 4868.27  12
   0   1   1 352728. 3242.19  10
   0  -1   1 340702. 2753.05   1
   0   1  -1 341001. 3060.10  11
   0  -1  -1 336965. 2926.04   5
   0  -1   1 268306. 4242.00  10
   0  -1  -1 356887. 3199.53   8
   0   1   1 335981. 3078.86   8
   0  -1   1 307025. 2112.36   4
   0   1  -1 341091. 2636.76   1
   0   1   1 333173. 2959.17   5
   0  -1  -1 310334. 2812.33  10
   0  -1   1 328305. 3139.90  11
   0   1  -1 349346. 4295.53  10
   0   1  -1 327998. 2245.26   4
   0   1   1 394293. 4754.28  12
   0   1  -1 317852. 4857.80  12
   0   1  -1 349598. 2999.93  14
   0  -1   1 337514. 3027.50   5
   0   1  -1 326517. 2853.27   5
   0   1  -2 205413. 2111.88   1
   0   1  -2 200628. 3203.53   5
   0   1   2 164460. 3424.16  10
   0   1   2 207813. 1755.27   2
   0   1  -2 214408. 5902.64   9
   0  -1  -2 191299. 2754.60   4
   0   1   2 205660. 2920.12   8
   0   1  -2 207939. 2629.25  14
   0   1  -2 208557. 2844.56  11
   0   1   2 225458. 4723.68  12
   0  -1  -2 237465. 4227.29  10
   0  -1   2 173910. 4836.77  12
   0  -1   2 212421. 2969.99  14
   0  -1  -2 195095. 4385.86  12
   0  -1   2 202362. 3380.67   5
   0  -1   2 159443. 4360.17  10
   0  -1  -2 210174. 3277.42   5
   0   1   2 201651. 3311.20   5
   0   1  -2 239917. 4603.10  10
   0  -1   2 204056. 3070.38  11
   0  -1  -2 224271. 3102.53   8
   0   1  -2 205071. 4788.01  12
   0   1  -3 46650.0 1325.37  14
   0  -1  -3 44676.4 2570.88  12
   0   1   3 49961.1 1526.82  11
   0  -1   3 46425.2 1583.83  14
   0   1   3 46035.9 1636.04   8
   0   1  -3 45647.0 1130.28   8
   0  -1  -3 43086.6 1405.78   4
   0  -1  -3 53366.1 2494.56  10
   0  -1   3 29482.2 2205.92  10
   0  -1  -3 51791.0 1717.03   8
   0   1  -3 43479.1 1833.39   5
   0  -1  -3 46750.9 1913.07   5
   0   1   3 46638.8 1248.39  14
   0   1   3 42725.6 801.912   2
   0   1   3 31535.4 1943.22  10
   0   1  -3 44915.8 995.708   1
   0   1  -3 51874.1 2962.60  12
   0  -1   3 47853.1 1828.04  11
   0   1  -4 2032.06 667.836  12
   0  -1  -4 1137.95 548.708   5
   0  -1   4 912.885 430.423  10
   0  -1  -4 897.060 139.388   1
   0  -1   4 1557.50 435.156  11
   0   1   4 1476.77 280.564  14
   0   1   4 699.427 373.333  10
   0   1  -4 1652.18 277.868   8
   0   1   4 1665.53 353.364  11
   0   1  -4 2295.92 879.289   9
   0  -1   4 1456.25 351.997  14
   0   1  -4 1540.07 697.975   5
   0  -1  -4 834.356 254.161   4
   0  -1  -4 2444.80 773.759  12
   0  -1   5 8368.69 1505.78  10
   0   1  -5 16690.8 946.393   8
   0   1   5 10187.5 1534.43  10
   0  -1  -5 11714.3 783.753   4
   0   1  -5 14876.3 1410.50   5
   0  -1   5 14697.1 1319.14  11
   0   1  -5 16281.2 2113.04  12
   0   1   5 13686.5 1135.81  11
   0  -1   5 15226.6 1197.01  14
   0  -1  -5 15881.1 1466.07   5
   0   1   5 13704.4 963.958  14
   0  -1  -5 14303.7 1959.32  12
   0  -1  -6 15499.9 1580.67   5
   0   1   6 9307.72 1651.14  10
   0   1   6 12559.7 1090.64  14
   0  -1   6 13923.9 1304.62  14
   0   1   6 12587.1 1272.36  11
   0   1  -6 11659.2 1953.42  12
   0   1  -6 13763.1 1517.90   5
   0  -1   6 9133.07 1704.81  10
   0  -1  -6 13351.2 2090.38  12
   0  -1   6 11712.5 1338.60  11
   0   1  -7 31565.2 3432.47  12
   0   1   7 30017.8 1910.46  14
   0   1   7 25405.6 2014.86  11
   0  -1   7 29547.1 2359.93  11
   0  -1  -7 34577.2 2789.60   5
   0  -1   7 28589.6 2045.44  14
   0  -1   7 21400.6 2972.62  10
   0   1   7 20539.5 2932.32  10
   0  -1  -7 29942.2 3358.24  12
   0   1  -7 34811.9 2673.18   5
   0   1  -8 10216.9 1762.30   5
   0  -1  -8 6714.30 1761.18  12
   0  -1  -8 9853.25 1723.53   5
   0   1   8 4925.13 998.015  11
   0  -1   8 6295.93 1195.85  11
   0  -1   8 5878.90 1800.84  10
   0   1  -8 6242.41 1688.52  12
   0   1   8 4639.94 1446.09  10
   0   2   1 267757. 2646.57   5
   0   2   1 306097. 5870.12   9
   0  -2  -1 294033. 3710.89   8
   0   2   1 267728. 3429.15   8
   0  -2   1 209850. 4248.09  10
   0  -2  -1 289250. 2682.34  13
   0  -2   1 268051. 2750.08   5
   0   2  -1 275976. 2482.71   8
   0   2  -1 275781. 3449.42  11
   0   2  -1 275980. 3349.00   1
   0   2  -1 271946. 2563.08   5
   0   2   1 283120. 5018.65  12
   0  -2  -1 275488. 2590.38   5
   0   2  -1 335322. 4858.83  10
   0  -2   1 278024. 3261.41   4
   0  -2  -1 295736. 4111.91   4
   0  -2   1 280787. 3476.98   1
   0  -2   1 276561. 2585.84   8
   0  -2  -2 124370. 2634.03  10
   0  -2   2 114394. 2672.89  11
   0   2  -2 121331. 2230.37   1
   0   2  -2 123221. 2540.58  14
   0   2  -2 116645. 1454.59   8
   0  -2  -2 120991. 2477.57   5
   0   2   2 110955. 2503.22   8
   0  -2   2 107820. 1813.72   4
   0  -2  -2 111129. 3773.36  12
   0  -2   2 92912.4 3651.88  10
   0   2  -2 114573. 2445.18  11
   0  -2  -2 130335. 2790.67   8
   0   2   2 113737. 2516.51   5
   0   2  -2 116137. 2378.72   5
   0   2  -2 151734. 4055.04  10
   0   2  -2 129697. 4427.53  12
   0   2   2 135756. 3960.75  12
   0  -2  -2 124791. 2820.67   4
   0  -2   2 114660. 2638.29   5
   0  -2  -3 56465.0 1544.53   1
   0  -2  -3 51569.8 1992.99   5
   0   2   3 48682.8 2401.46  10
   0   2  -3 50764.4 1926.75   5
   0  -2  -3 59436.3 2459.33  10
   0   2   3 52821.9 1212.51   2
   0  -2   3 54414.7 2125.42  11
   0  -2  -3 48332.1 2867.40  12
   0   2  -3 54994.4 3126.88  12
   0   2   3 47557.5 1823.02   8
   0  -2  -3 49910.1 1874.32   4
   0   2  -3 51865.8 1712.16  14
   0   2  -4 14543.8 1876.21  12
   0  -2   4 7364.48 1299.90  10
   0   2  -4 12334.3 1105.61   5
   0  -2   4 11517.6 1023.82  14
   0   2   4 9276.81 485.796   2
   0  -2  -4 12530.0 1145.97   5
   0   2  -4 11132.2 547.089   8
   0   2   4 11421.8 1048.15   8
   0  -2  -4 12623.0 709.544   1
   0   2   4 11602.6 747.638  14
   0  -2  -4 11532.4 1563.63  12
   0  -2   4 11843.1 1172.18  11
   0  -2  -4 10450.0 1056.80   4
   0   2   4 10957.3 1397.64  10
   0  -2  -5 84486.7 3351.91   5
   0   2  -5 95635.3 5231.28  12
   0  -2  -5 70590.7 2384.06   4
   0   2   5 60675.7 3831.13  10
   0   2   5 66916.7 2359.87  11
   0  -2   5 41729.7 3568.66  10
   0  -2   5 80792.5 3419.51  11
   0  -2  -5 81719.2 4658.32  12
   0  -2   5 85731.7 3036.72  14
   0   2   5 69980.9 2109.70  14
   0   2  -5 78396.5 1717.36   8
   0   2  -5 78461.4 3212.50   5
   0   2  -6 25990.9 2098.43   5
   0  -2   6 24189.8 2066.11  11
   0  -2  -6 28292.9 2191.71   5
   0   2   6 22092.4 1356.60  14
   0  -2  -6 24437.0 2827.62  12
   0   2   6 18693.8 1471.06  11
   0  -2   6 24989.1 1799.49  14
   0   2   6 18418.2 2266.90  10
   0   2  -6 25834.0 2938.82  12
   0   2   7 1263.26 423.140  11
   0  -2   7 1688.39 604.879  11
   0   2  -7 2560.37 761.995   5
   0   2  -7 2207.80 926.734  12
   0  -2  -7 896.315 621.069  12
   0  -2   7 555.908 636.923  10
   0   2   7 1494.64 411.904  14
   0  -2  -7 2161.04 708.161   5
   0  -2  -8 5728.35 1373.53   5
   0  -2   8 4267.07 1005.07  11
   0   2  -8 5278.57 1246.98   5
   0   2   8 3240.14 789.966  11
   0  -2  -8 4404.74 1538.84  12
   0  -2   8 2711.26 1241.58  10
   0   2  -8 4465.69 1431.32  12
   0   3   0 272.704 122.656   8
   0  -3   0 340.214 147.680   3
   0  -3   0 175.149 115.694  10
   0  -3   0 552.044 199.124   1
   0  -3   0 216.113 153.995   4
   0  -3   0 312.706 148.223   8
   0   3   0 263.758 312.665   9
   0   3   0 596.454 176.912  10
   0  -3   1 108256. 2621.40   1
   0   3  -1 128194. 3180.09  10
   0  -3  -1 112728. 1655.10   5
   0  -3  -1 111791. 2995.49   4
   0  -3  -1 83700.0 2434.35   6
   0  -3   1 110610. 2612.70   4
   0   3   1 165227. 5556.89   9
   0  -3   1 104298. 2118.15   8
   0  -3   1 73324.0 2801.10  10
   0   3  -1 163537. 3523.56   6
   0   3   1 98168.7 2414.08   8
   0   3   1 106903. 1841.01  13
   0  -3  -1 111360. 2615.94   1
   0  -3  -1 112823. 1577.35  10
   0   3  -1 204079. 7445.82   9
   0   3  -1 105690. 1549.06   5
   0  -3  -1 114701. 2282.27  13
   0   3  -1 105715. 2524.15   3
   0  -3  -1 112837. 2737.05   8
   0   3  -1 104500. 1968.83   8
   0   3  -1 104242. 2446.11  11
   0   3   2 58530.4 2045.19   8
   0  -3  -2 62841.1 2335.96   4
   0  -3   2 57422.7 1747.70   4
   0  -3   2 62262.9 2065.93   1
   0   3   2 54928.4 1787.04   5
   0  -3   2 43055.0 2772.20  10
   0   3  -2 60308.4 1705.26   5
   0   3   2 87658.1 3583.31   9
   0  -3  -2 67955.1 2059.09   1
   0   3  -2 62159.1 1330.82   8
   0  -3   2 61429.0 2186.22  11
   0  -3  -2 59812.5 1550.80  10
   0  -3  -2 69922.5 1673.32  13
   0   3  -2 62370.5 1221.78   7
   0  -3  -2 63012.6 1770.00   5
   0  -3   3 10476.6 1578.80  10
   0  -3  -3 16326.9 1039.68   1
   0  -3  -3 15469.2 1094.96   5
   0  -3  -3 16088.8 1138.61  10
   0   3  -3 14380.5 574.264   8
   0   3  -3 15401.0 1058.76   5
   0   3   3 14492.3 1112.69   8
   0  -3   3 14450.9 826.656   4
   0   3  -3 15920.8 913.282   7
   0  -3  -3 13560.6 1662.38  12
   0  -3  -3 16227.4 1223.65   4
   0   3  -3 19194.4 2118.13  12
   0  -3   3 16174.0 1289.94  11
   0  -3   4 120.801 61.7643  11
   0  -3  -4 340.785 289.912   5
   0  -3   4 62.6399 128.347  10
   0   3   4 166.650 31.4994   8
   0   3  -4 416.671 410.189  12
   0  -3  -4-129.050 126.568  10
   0   3  -4 189.582 201.236   5
   0   3   4 152.283 126.054   2
   0  -3  -4 232.339 264.182  12
   0   3  -4 104.363 53.7651   8
   0  -3  -4 62.5758 131.288   1
   0   3   5 3946.25 704.243   8
   0  -3  -5 3449.95 1054.65  12
   0   3  -5 5162.66 1294.88  12
   0   3  -5 3447.30 709.684   5
   0   3   5 3780.84 502.119  14
   0  -3   5 3944.14 807.110  11
   0  -3  -5 3353.60 635.649   4
   0  -3  -5 4540.79 783.925   5
   0  -3   5 3242.45 1052.29  10
   0   3   5 1769.21 202.832   2
   0   3   6 6730.96 743.538  14
   0   3  -6 9093.04 1812.29  12
   0   3   6 5293.98 761.092  11
   0   3  -6 7721.16 1137.20   5
   0  -3  -6 6706.28 1607.25  12
   0  -3   6 6955.62 1183.67  11
   0  -3  -6 7441.01 1178.72   5
   0  -3   6 3799.97 1211.97  10
   0  -3   7 6757.44 1413.36  11
   0  -3  -7 4321.26 1477.62  12
   0   3   7 6728.61 848.153  14
   0   3   7 3486.33 742.972  11
   0  -3  -7 6834.97 1358.28   5
   0   3  -7 1544.70 851.041  12
   0   3  -7 9195.86 1440.86   5
   0  -3  -8 4435.70 1509.47  12
   0  -3  -8 5558.67 1325.38   5
   0   3   8 2858.02 730.126  11
   0  -3   8 2838.43 1196.12  10
   0   3  -8 6341.32 1398.20   5
   0   3  -8 3569.26 1277.72  12
   0  -4   0 396230. 6127.65   4
   0  -4   0 387454. 5356.99   8
   0   4  -1 126264. 2534.92   8
   0  -4   1 131303. 2834.77   8
   0  -4  -1 137060. 3737.24   4
   0   4   1 132249. 2426.93  13
   0   4  -1 151821. 1838.59   5
   0  -4  -1 137138. 1664.00   5
   0  -4  -1 120655. 2249.81  10
   0  -4   1 100348. 3624.07  10
   0   4  -1 169999. 4027.68  10
   0   4   1 124246. 3064.54   8
   0   4  -1 131994. 3174.58   3
   0  -4  -1 100469. 2547.70   6
   0   4   1 257573. 8587.11   9
   0  -4   1 127676. 3358.65   4
   0   4  -2 122045. 2289.06   8
   0   4  -2 130290. 2499.62   5
   0   4  -2 238020. 6173.16   6
   0  -4  -2 103923. 3936.06   6
   0  -4   2 122918. 3065.86   4
   0  -4   2 94748.4 4275.02  10
   0   4  -2 122420. 3446.63   3
   0  -4  -2 133722. 2640.71   5
   0  -4  -2 120009. 3753.06   4
   0   4   2 218935. 7316.82   9
   0   4   2 114576. 3145.81   8
   0  -4   2 118390. 2436.83   8
   0  -4  -2 105848. 1865.61  10
   0  -4  -3 20216.6 1287.92   5
   0  -4  -3 17012.8 1538.30   4
   0   4   3 20959.0 1473.79   9
   0   4  -3 18436.2 1181.55   5
   0   4  -3 19281.8 850.314   7
   0  -4   3 16386.4 1143.00   4
   0  -4  -3 17601.3 1023.17  10
   0  -4   3 19831.6 1511.77  11
   0   4  -3 23849.4 2502.75  12
   0   4  -3 18025.3 749.314   8
   0   4   3 17247.9 1340.24   8
   0  -4   3 12256.9 1743.91  10
   0   4  -4 1359.85 557.975   5
   0  -4   4 672.175 424.240  11
   0  -4  -4 691.349 464.134   5
   0   4  -4 1323.60 635.430  12
   0   4  -4 502.048 203.244   7
   0  -4  -4 342.322 153.623  10
   0  -4   4 698.445 544.117  10
   0   4   4 263.987 241.491   8
   0   4   5 49995.9 2689.82   8
   0  -4   5 50087.8 3109.30  11
   0  -4  -5 48648.9 4000.02  12
   0   4   5 48751.3 1545.39   2
   0   4  -5 62031.5 4510.50  12
   0  -4  -5 48072.2 2567.49   4
   0   4  -5 55918.9 2722.10   5
   0  -4  -5 59085.9 2929.22   5
   0   4   6 26042.1 1448.47  14
   0  -4   6 31223.0 2604.48  11
   0  -4  -6 28243.1 2038.70   4
   0   4   6 28111.2 1711.65  11
   0   4  -6 40092.6 4029.11  12
   0  -4   6 16157.4 2617.27  10
   0   4  -6 37033.4 2631.00   5
   0  -4  -6 27808.1 3326.19  12
   0  -4  -6 38619.8 2729.48   5
   0   4   7 695.021 312.371  14
   0  -4   7 751.575 688.347  10
   0  -4  -7-48.2072 225.172  12
   0  -4  -7 604.006 393.254   5
   0   4  -7 1062.75 715.723  12
   0   4   7 291.043 170.500  11
   0  -4   7 638.721 462.384  11
   0   4  -7 652.157 547.613   5
   0   4  -8 352.456 270.006   5
   0   4  -8-6.95132 160.965  12
   0   4   8 217.343 70.3284  11
   0  -4  -8 471.017 305.291   5
   0   5   0-50.4170 137.138   8
   0  -5   0 42.7906 116.649   4
   0  -5   0 243.170 156.337  10
   0  -5  -1 3181.04 689.252   4
   0   5   1 3696.98 461.404  13
   0  -5   1 4104.86 675.382   4
   0  -5  -1 1209.13 202.964   6
   0  -5  -1 2013.20 183.577   5
   0   5  -1 3718.64 392.579   6
   0   5   1 2627.14 510.219   8
   0  -5   1 2257.72 599.375  10
   0   5  -1 2350.78 189.502   5
   0  -5  -1 2618.77 377.721  10
   0   5  -1 3322.63 557.853   3
   0   5  -1 2965.19 431.790   8
   0   5   2 27323.1 3077.06   9
   0   5  -2 19235.9 1089.14   5
   0  -5  -2 20225.1 1158.75   5
   0  -5  -2 14807.3 1445.53   4
   0   5   2 12484.4 1131.88   8
   0   5  -2 13668.5 1206.01   3
   0   5  -2 12869.3 830.137   8
   0  -5   2 8582.99 1380.58  10
   0  -5   2 12487.6 937.374   8
   0  -5  -2 11922.1 1352.91   6
   0  -5   2 12880.0 1145.54   4
   0   5  -2 28605.2 2201.52   6
   0  -5   3 872.723 301.658   4
   0   5   3 1000.85 334.062   8
   0  -5   3 365.443 320.575  10
   0  -5  -3 840.229 387.821   4
   0   5  -3 844.809 167.322   8
   0   5  -3 1262.60 307.769   5
   0  -5  -3 1605.64 432.711   5
   0   5  -3 706.741 347.738   3
   0   5   3 1174.69 479.072   9
   0  -5  -4 1587.61 511.170   5
   0   5  -4 1285.04 867.954  12
   0   5  -4 2638.98 676.946   5
   0  -5   4 523.149 214.404   4
   0  -5   4 731.413 1013.09  10
   0   5   4 935.207 389.192   8
   0   5   5 921.943 419.283   8
   0   5  -5 1628.81 544.657   5
   0  -5   5 898.450 456.621  11
   0  -5  -5 1743.75 591.321   5
   0  -5   5 406.514 459.330  10
   0  -5  -5 420.728 346.360   4
   0   5  -5 755.630 543.431  12
   0   5   5 901.195 253.039   2
   0   5  -6 9198.72 1373.08   5
   0  -5  -6 9991.37 1436.59   5
   0  -5   6 6887.12 1349.90  11
   0  -5  -6 5867.23 1098.30   4
   0   5   6 6611.42 1149.31   8
   0  -5   6 4724.34 1440.10  10
   0   5  -6 9691.02 2025.01  12
   0  -5  -7 9221.34 1669.34   5
   0  -5   7 6934.41 1438.14  11
   0  -5   7 5092.14 1541.38  10
   0   5  -7 8678.31 1596.42   5
   0   5   7 4824.46 798.772  11
   0   5  -7 5089.24 1579.19  12
   0   5   7 4446.73 693.483  14
   0   6   0 450035. 6574.69  13
   0   6   0 429055. 6489.41   8
   0  -6   1 33417.2 2151.85   4
   0  -6  -1 31650.3 1691.07  10
   0   6   1 33180.4 1514.78  13
   0   6   1 29297.4 1780.48   8
   0  -6  -1 32154.7 2286.20   4
   0   6  -1 32319.5 1621.10   8
   0   6  -1 37400.5 2041.66   3
   0  -6   2 311.266 238.139   4
   0   6   2 1011.08 384.443   8
   0   6  -2 1414.12 404.773   6
   0  -6  -2 582.525 240.046   6
   0   6  -2 1142.73 196.077   5
   0   6  -2 1658.23 510.133   3
   0  -6  -2 1427.19 492.678   4
   0   6  -2 1057.90 301.493   8
   0  -6   2 766.993 385.350  10
   0  -6  -2 1256.67 205.807   5
   0  -6  -3 5047.37 992.944   4
   0  -6  -3 7345.54 754.494   5
   0  -6   3 5420.94 870.581   4
   0   6  -3 5954.04 927.796   3
   0   6   3 5527.60 890.571   8
   0  -6   3 3419.25 1071.91  10
   0   6  -3 7084.56 724.049   5
   0   6  -3 6298.86 592.236   8
   0   6  -4 26761.7 2218.16   3
   0   6  -4 29300.5 3531.91  12
   0  -6   4 13492.0 2344.75  10
   0  -6  -4 25266.5 2222.25   4
   0  -6  -4 40410.8 2498.81   5
   0   6  -4 40729.5 2360.77   5
   0  -6   4 25227.3 1737.19   4
   0   6   4 24161.5 1948.49   8
   0  -6   5 22307.0 3029.29  10
   0  -6  -5 30183.4 2526.17   4
   0   6   5 29486.1 2243.34   8
   0   6  -5 49515.5 2984.92   5
   0   6   5 32266.6 1673.15   2
   0  -6  -5 51399.0 3174.40   5
   0   6  -5 41002.7 4163.29  12
   0   6  -6 13.3005 95.0765   5
   0  -6   6 15.7304 629.392  10
   0   6   6-252.411 223.687   8
   0  -6  -6-317.632 423.002   5
   0  -6  -6 116.332 126.503   4
   0   6  -6 213.531 353.289  12
   0   6  -7 68.9703 187.489  12
   0   6   7 797.633 324.593  11
   0   6  -7-39.6379 164.615   5
   0  -6  -7 346.368 434.813   5
   0   6   7 239.885 191.285  14
   0   7   0 207.961 137.344   8
   0   7   0-1.54125 188.517  13
   0  -7   0-34.8839 233.963  10
   0  -7   0 124.881 133.445   7
   0  -7   0-146.621 79.5170   4
   0   7   1 49945.1 2487.14   8
   0   7   1 56090.4 2164.37  13
   0  -7   1 53548.7 3041.54   4
   0  -7  -1 48081.8 2323.82  10
   0   7  -1 51500.4 2258.16   8
   0  -7  -1 57040.8 3275.50   4
   0  -7   2 2398.50 853.783  10
   0  -7  -2 4683.46 974.036   4
   0   7  -2 4337.68 617.604   8
   0  -7   2 4157.06 848.878   4
   0   7   2 3637.14 723.493   8
   0   7  -2 5987.46 952.128   3
   0   7  -3 20477.7 1878.69   3
   0   7   3 18772.2 1708.04   8
   0  -7   3 13380.4 2193.65  10
   0  -7  -3 18764.1 2006.82   4
   0  -7   3 20367.7 1808.04   4
   0  -7  -4 3974.42 1270.47   4
   0  -7   4 702.639 471.490   4
   0   7   4 1143.79 547.893   8
   0   7  -4 1042.82 724.164  12
   0  -7   4 584.704 767.233  10
   0   7  -4 4780.87 1060.11   3
   0   7  -5 14892.4 1867.93   3
   0  -7   5 9500.57 2073.24  10
   0   7   5 14051.4 1203.83   2
   0  -7  -5 16095.4 1922.29   4
   0   7  -5 19539.8 3091.17  12
   0   7   5 14294.7 1669.42   8
   0  -7  -6 5217.92 1134.89   4
   0   7  -6 3525.19 1591.47  12
   0   7  -6 3661.47 966.499   3
   0   7   6 4312.20 988.612   8
   0  -7   6 1945.62 1130.82  10
   0   7   7 10978.1 1135.10  14
   0   7   7 12994.6 1352.49  11
   0   8   0 142474. 4321.60   8
   0   8   0 147530. 4339.23  13
   0  -8  -1 8661.78 1387.29   4
   0   8  -1 7934.27 943.854   8
   0  -8   1 9112.26 1386.71   4
   0   8   1 8969.35 912.087  13
   0  -8   1 6959.64 1335.53  10
   0   8   1 8881.44 1123.77   8
   0  -8   2 906.641 418.660  10
   0   8   2 1606.16 501.708   8
   0  -8   2 1292.48 604.171   4
   0   8  -2 1804.29 429.511   8
   0   8  -2 3021.10 689.412   3
   0  -8  -2 2283.21 843.267   4
   0   8  -3 3733.30 859.228   3
   0  -8   3 2328.78 753.412   4
   0   8   3 1819.54 661.888   8
   0  -8   3 886.845 618.971  10
   0  -8  -3 2195.89 787.412   4
   0  -8  -4 13710.2 1881.14   4
   0  -8   4 8286.97 1902.42  10
   0   8  -4 14963.7 2948.42  12
   0   8  -4 13811.9 1777.37   3
   0   8   4 11479.3 1495.72   8
   0   8   5 14321.1 1788.59   8
   0   8  -5 19453.0 3344.38  12
   0   8  -5 14112.5 1863.08   3
   0  -8  -5 15132.9 2093.96   4
   0  -8  -6-942.251 557.291   4
   0   8  -6 8.70427 290.160  12
   0   9   0 164.966 198.132   8
   0   9   0 107.687 143.273  13
   0  -9   0 144.528 256.001   4
   0   9  -1 646.148 129.541  13
   0  -9  -1 1230.22 506.384   4
   0  -9   1 1130.72 487.567   4
   0   9   1 964.241 385.130   8
   0   9   1 1541.05 473.082  13
   0   9  -1 910.965 347.160   8
   0  -9   2 982.360 557.724   4
   0   9   2 461.566 201.358   8
   0  -9  -2 814.727 453.833   4
   0  -9   2 342.747 317.522  10
   0  -9  -3 377.323 144.154   4
   0   9   3-3.75126 132.416   8
   0  -9   3-24.2277 257.107  10
   0   9  -3 601.803 494.462   3
   0  -9   3 187.406 258.573   4
   0   9   4 621.076 415.448   8
   0   9  -4 1161.99 739.235   3
   0  -9   4 980.557 912.153  10
   0  -9  -4 1001.71 983.172   4
   0   9  -4 696.658 764.162  12
   0  -9   5-402.442 653.863  10
   0  -9  -5-189.899 374.708   4
   0   9  -5-43.6644 163.752  12
   0  10   0 3445.28 818.768   8
   0 -10   0 4111.27 1118.54   4
   0  10   0 2912.22 627.644  13
   0 -10  -1 1240.98 528.439   4
   0  10  -1 2931.58 658.501  13
   0  10  -1 1943.75 560.893   8
   0  10   1 3906.30 717.133  13
   0 -10   1 2161.21 762.185   4
   0  10   1 1790.39 578.778   8
   0  10   2 7296.65 1222.78   8
   0 -10   2 8323.60 1515.17   4
   0 -10  -2 7633.49 1539.28   4
   0 -10   3 266.958 605.384  10
   0 -10   3 805.086 562.889   4
   0 -10  -3 1257.48 637.153   4
   0  10   3 1351.86 617.295   8
   0 -10   4 2820.87 1606.70  10
   0  11   0 271.965 399.984  13
   0 -11   0 548.943 330.010   4
   0  11   0-79.0850 62.5569   8
   0  11  -1 569.665 375.131  13
   0  11   1 423.152 419.853   8
   0 -11   1 159.660 439.164   4
   0 -11   2 150.566 84.3463   4
   1   0  -9 56.3478 239.991  12
   1   0  -8 21157.0 2233.92   5
  -1   0   8 19373.2 1965.06  11
   1   0  -8 21010.1 2831.24  12
  -1   0   8 20774.2 1948.49  14
  -1   0   7 6414.41 995.693  14
   1   0  -7 6088.35 1384.55  12
  -1   0   7 5232.34 987.423  11
   1   0  -7 6772.38 1120.42   5
  -1   0   7 4342.21 1316.54  10
   1   0  -6 744.603 420.057  12
  -1   0   6 5.59718 233.696  10
  -1   0   6 404.468 244.985  14
  -1   0   6 496.554 225.416  11
   1   0  -6 962.729 423.567   5
   1   0  -5 27251.5 1940.85   5
   1   0  -5 30406.6 1920.07   9
  -1   0   5 26036.3 1641.52  11
   1   0  -5 30519.7 968.611   2
   1   0  -5 30141.3 2457.25  12
  -1   0   5 26531.3 1542.41  14
  -1   0   4 33623.6 2640.48   9
   1   0  -4 75340.4 3313.87  12
  -1   0   4 67802.0 2262.89  11
   1   0  -4 65188.5 2619.48   5
   1   0  -4 84875.6 3155.15   9
  -1   0   4 44586.2 3145.30  10
   1   0  -4 78088.9 1560.29   2
  -1   0   4 67603.3 2194.14  14
   1   0  -3 932017. 11158.2  10
  -1   0   3 720831. 6284.60  11
   1   0  -3 774685. 5468.80  11
  -1   0   3 656333. 9125.76  12
  -1   0   3 691433. 6082.83  14
   1   0  -3 868127. 8810.95   9
  -1   0   3 555299. 10197.9   9
  -1   0   3 638349. 12580.4   6
   1   0  -3 778873. 8718.99  12
  -1   0   2 21544.3 1436.66   9
   1   0  -2 30746.8 1283.38  12
  -1   0   2 25203.0 2025.85   6
  -1   0   2 29137.9 1017.65  14
   1   0  -2 32097.8 1536.79   9
  -1   0   2 26278.7 1281.92  12
   1   0  -2 30017.1 959.461  14
  -1   0   2 28535.2 1012.94  11
   1   0  -2 28419.8 906.895  11
   1   0  -2 27290.0 1817.24   6
   1   0  -1 9367.28 745.283   9
  -1   0   1 8957.25 457.381  14
   1   0  -1 9533.60 611.356   7
   1   0  -1 9308.65 424.678  14
  -1   0   1 8692.24 763.827   9
  -1   0   1 9720.16 632.672   7
   1   0  -1 7717.55 757.076   6
  -1   0   1 7267.54 859.523   6
   1   0  -1 8759.91 419.097  11
   1   0   0 602713. 4540.38   7
  -1   0   0 598472. 4598.45   7
  -1   0   0 603041. 6321.80   6
   1   0   0 607410. 4022.19   5
  -1   0  -1 321109. 5560.29  12
   1   0   1 371262. 3315.67   8
   1   0   1 387827. 6078.31  12
  -1   0  -1 360819. 3693.17   5
   1   0   1 412145. 4081.57   5
   1   0   1 295637. 3952.83  10
  -1   0  -1 376439. 4354.32   7
   1   0   1 369654. 4329.69   7
  -1   0  -2 183017. 3562.51   5
  -1   0  -2 174717. 3680.47  10
   1   0   2 155524. 2337.59   8
  -1   0  -2 151993. 2440.86   8
   1   0   2 156435. 4846.17  12
   1   0   2 168687. 2432.11   4
   1   0   2 150179. 1570.73  14
  -1   0  -2 139318. 4533.93  12
   1   0   2 159738. 3258.40   5
  -1   0  -2 158027. 3427.90   7
   1   0   2 113264. 3288.87  10
   1   0   2 139620. 1195.63   2
   1   0   3 448.773 401.967  10
   1   0   3 683.619 367.407  11
   1   0   3 361.644 140.397   4
   1   0   3 338.154 136.396  14
  -1   0  -3 986.160 324.179   5
  -1   0  -3 757.055 228.741   8
   1   0   3 411.838 169.151   8
  -1   0  -4 80562.1 4442.19  12
   1   0   4 87186.3 2094.34  14
   1   0   4 77430.7 2442.42  11
  -1   0  -4 92841.2 2421.26   8
   1   0   4 71141.4 4007.68  10
   1   0   4 88298.6 2209.79   8
   1   0   5 234754. 4059.36  14
  -1   0  -5 216717. 8090.30  12
   1   0   5 215039. 4868.41  11
   1   0   6 1326.93 704.041  10
  -1   0  -6 3001.69 875.243   5
  -1   0  -6 1661.71 788.174  12
   1   0   6 1640.89 467.214  11
   1   0   7 3211.36 1144.71  10
   1   0   7 4665.19 922.800  11
  -1   0  -7 5597.14 1581.54  12
  -1   0  -7 6622.87 1226.63   5
   1   0   8 675.696 545.869  10
   1  -1  -9 1409.46 839.702  12
   1   1  -9 2081.55 983.535  12
  -1   1   8 4294.97 831.699  14
  -1  -1   8 3255.96 852.002  11
  -1  -1   8 3180.13 861.978  14
   1   1  -8 1575.78 890.618   5
   1   1  -8 445.761 425.904  12
   1  -1  -8 2198.49 996.001   5
  -1   1   8 2346.15 753.210  11
   1  -1  -8 1580.05 802.647  12
   1   1  -7 913.521 381.712   5
  -1  -1   7 749.692 331.403  14
  -1  -1   7-131.479 467.461  10
  -1   1   7 380.794 260.009  14
   1  -1  -7 101.740 142.185  12
   1  -1  -7 350.434 270.279   5
  -1  -1   7 682.516 325.992  11
  -1   1   7 738.277 372.106  11
   1   1  -7 909.983 558.853  12
   1   1  -6-104.909 248.475  12
  -1  -1   6 130.996 404.704  10
  -1   1   6-168.001 120.029  14
   1  -1  -6 45.6214 166.095   5
  -1  -1   6 198.611 90.2391  11
   1   1  -6 270.104 244.687   5
   1  -1  -6 262.796 222.725  12
  -1  -1   6 304.500 210.214  14
   1  -1  -6 255.233 223.572   4
  -1   1   6 97.3238 143.893  11
   1   1  -5 5953.47 1077.54   5
  -1  -1   5 644.163 293.465  11
  -1   1   5 549.656 239.354  14
  -1  -1   5 211.945 367.705  10
   1   1  -5 513.735 314.744  12
  -1   1   5 483.828 213.499  11
   1  -1  -5 1759.35 652.077  12
  -1  -1   5 632.110 358.906  14
   1  -1  -5 7362.20 1115.75   5
  -1   1   4 1385.29 422.772   9
  -1  -1   4 1116.28 508.953  10
   1  -1  -4 2798.73 675.968  12
  -1   1   4 2716.44 398.745  11
   1   1  -4 2902.53 543.125   5
   1   1  -4 3684.88 898.968   9
  -1  -1   4 2182.40 486.911  11
  -1  -1   4 633.230 421.622   9
   1  -1  -4 2335.87 466.414   5
   1  -1  -4 3147.53 335.254   2
  -1  -1   4 2604.79 486.795  14
   1   1  -4 3315.02 734.009  12
  -1   1   4 2198.63 363.067  14
  -1   1   3 283980. 5670.10  12
   1  -1  -3 281400. 4373.85   8
  -1  -1   3 246543. 4067.47  14
  -1  -1   3 150414. 5238.81  10
  -1  -1   3 159441. 4932.18  12
   1  -1  -3 370556. 7150.29  10
  -1   1   3 246798. 3232.69  11
  -1   1   3 188412. 4124.48   9
   1  -1  -3 278766. 2913.70   2
  -1   1   3 230470. 7499.73   6
  -1   1   3 246348. 3255.27  14
   1   1  -3 311373. 7615.53   9
  -1  -1   3 256827. 4192.39  11
   1   1  -3 239445. 4306.36   5
   1  -1  -3 258995. 5480.97  12
  -1  -1   3 200078. 6952.37   6
   1   1  -3 297240. 5781.59  12
   1  -1  -3 243149. 4384.00   5
   1   1  -2 492727. 5674.83  12
   1   1  -2 639801. 9190.10   9
   1  -1  -2 467160. 7390.74   6
  -1   1   2 486616. 5306.13   9
  -1  -1   2 477025. 4931.46  14
   1  -1  -2 533379. 3799.37   2
   1   1  -2 490579. 4536.82  14
  -1   1   2 489590. 3810.85   2
  -1   1   2 489655. 3794.59  14
  -1   1   2 536454. 6107.19  12
   1  -1  -2 488195. 5982.17  12
  -1  -1   2 350980. 8531.52   9
  -1   1   2 473737. 3198.24  11
  -1  -1   2 472043. 4819.70  11
  -1   1   2 457587. 8679.80   6
  -1  -1   2 358419. 6890.91  10
   1   1  -2 488586. 4660.90  11
  -1  -1   2 413199. 8205.97   6
   1   1  -2 571869. 8251.23   6
   1   1  -1 589428. 4405.99   7
  -1  -1   1 585722. 4340.07   7
   1  -1  -1 587217. 5125.81   7
  -1   1   1 595765. 6824.48   6
  -1  -1   1 567595. 6623.66   6
  -1  -1   1 542739. 4648.61  14
   1  -1  -1 587139. 3900.14   2
   1   1  -1 584006. 4478.64  14
   1   1  -1 552819. 6061.42   6
  -1   1   1 544709. 3774.38   2
   1   1  -1 734577. 8567.75   9
   1  -1  -1 627359. 6391.78   6
   1   1   0 179329. 3544.32   9
   1   1   0 192770. 2974.11  12
   1   1   0 183493. 2585.89   7
  -1   1   0 194237. 3610.14   6
  -1  -1   0 183768. 2573.15   7
   1   1   0 226510. 3393.16   4
   1  -1   0 192336. 2239.62   5
   1   1   0 175960. 2697.10   8
   1  -1   0 181377. 2556.95   7
   1  -1   0 189689. 2049.21   2
   1   1   0 186634. 2210.17   5
   1  -1   0 180705. 1552.63  11
  -1   1   0 190570. 2056.29   2
  -1  -1   0 144536. 3480.95   9
  -1  -1   0 172486. 3392.46   6
  -1  -1   0 199037. 2050.36  13
  -1   1   0 189063. 2620.84   7
  -1  -1   0 132649. 2698.08  12
   1  -1   1 20308.1 1594.72  12
   1   1   1 29912.3 1177.02   5
  -1   1  -1 22073.5 1603.88  12
   1  -1   1 25544.5 1329.96  10
   1  -1   1 24615.0 838.464  11
  -1  -1  -1 22090.6 1429.49  12
  -1  -1  -1 26675.8 1146.36   4
  -1  -1  -1 23986.9 983.120   5
   1  -1   1 25341.2 1071.86   7
   1   1   1 26599.2 1533.32  12
  -1   1  -1 25441.2 1069.03   7
   1   1   1 22572.3 922.059  10
  -1  -1  -1 23846.0 1084.97   8
   1   1   1 28978.9 1204.47   4
  -1   1  -1 25359.9 978.987   5
  -1  -1  -1 25815.1 1198.87   7
   1  -1   1 32676.2 1224.85   5
   1   1   1 24868.9 1059.51   8
  -1   1  -1 26473.7 723.313   2
  -1  -1  -1 20195.9 1185.78   9
  -1   1  -2 316479. 2348.45   2
  -1  -1  -2 308828. 4376.97   5
   1   1   2 300960. 2906.95   1
   1  -1   2 316884. 4574.52   5
   1   1   2 298343. 3944.71   8
   1   1   2 314097. 4519.40   5
  -1   1  -2 297228. 4259.17   5
  -1  -1  -2 305984. 4168.02   8
   1  -1   2 289028. 2265.59   8
  -1   1  -2 303231. 4511.98   7
   1  -1   2 270435. 5549.89  10
  -1   1  -2 280562. 6726.09  12
  -1  -1  -2 295710. 4364.56   9
  -1   1  -2 298224. 2491.64  14
  -1  -1  -2 326473. 4399.06  10
  -1  -1  -2 310904. 4292.51   4
   1   1   2 256570. 4456.27  10
   1  -1   2 300131. 3842.39  11
  -1   1  -2 356669. 5703.36  10
   1   1   2 299661. 3937.65   4
  -1  -1  -2 268304. 6048.83  12
  -1   1  -3 61898.0 3709.92  12
  -1   1  -3 63571.6 1312.16  14
   1   1   3 56026.6 1774.94   4
  -1  -1  -3 63618.2 2446.65  10
   1  -1   3 52527.2 1128.11   8
   1  -1   3 45174.7 908.747   1
  -1  -1  -3 58794.1 2019.32   8
  -1   1  -3 55067.3 1252.91   8
  -1  -1  -3 57130.6 1813.29   4
  -1   1  -3 81131.4 3138.26   5
   1  -1   3 54306.8 1939.62  11
   1   1   3 53223.6 1189.54  14
   1   1   3 54347.0 1854.74   8
  -1  -1  -3 83510.9 3213.57   5
   1   1   3 48925.6 2593.31  10
   1  -1   3 35487.1 2489.63  10
  -1  -1  -3 49944.3 3079.06  12
  -1   1  -4 90341.8 3799.68   5
   1   1   4 59049.2 2065.98   8
   1  -1   4 61684.3 1932.78  14
   1   1   4 57599.4 1576.58  14
   1  -1   4 58538.9 2361.39  11
  -1   1  -4 61044.0 1542.76   8
   1   1   4 54577.6 2055.42  11
  -1  -1  -4 58338.4 3797.37  12
  -1   1  -4 62298.9 1471.30  14
  -1  -1  -4 92757.0 3879.74   5
   1  -1   4 38198.4 3132.56  10
   1   1   4 47043.8 3011.29  10
  -1   1  -4 64671.7 4158.73  12
   1   1   5 512.127 184.735  14
   1  -1   5 404.644 126.081  14
   1   1   5 831.140 480.699  10
  -1  -1  -5 665.093 434.796  12
   1   1   5 586.472 243.097   8
  -1   1  -5 818.395 477.700   5
  -1   1  -5 608.576 554.561  12
   1  -1   5 730.902 559.099  10
   1  -1   5 781.077 312.220  11
  -1  -1  -5 938.977 327.931   5
  -1  -1  -5 857.705 270.024   9
   1   1   5 465.771 211.396  11
  -1   1  -6 12480.0 1811.71   5
   1  -1   6 6440.86 1536.91  10
  -1  -1  -6 7466.28 1654.10  12
   1   1   6 5861.98 1258.03  10
   1   1   6 6432.05 921.210  11
  -1  -1  -6 13497.6 1921.10   5
   1  -1   6 8693.51 1187.65  11
  -1   1  -6 7304.21 1653.53  12
  -1   1  -7 2445.87 1052.83  12
   1  -1   7 1427.52 874.361  10
   1   1   7 1678.26 547.795  11
  -1  -1  -7 2285.55 1014.50  12
   1   1   7 1622.84 810.918  10
  -1   1  -7 3396.87 892.208   5
   1  -1   7 2433.73 707.719  11
  -1  -1  -7 3043.16 838.146   5
   1  -1   8 229.501 415.154  10
   1   2  -9 4620.42 1493.78  12
   1  -2  -9 3714.58 1369.76  12
   1  -2  -8 15540.5 1959.57   5
   1   2  -8 17339.8 2567.52  12
   1   2  -8 15512.1 1905.46   5
  -1  -2   8 17388.4 2102.85  11
  -1  -2   8 18446.7 1951.01  14
  -1   2   8 14934.9 1530.01  14
  -1   2   8 15646.9 1704.95  11
  -1  -2   8 15532.3 3103.72  10
   1  -2  -8 15654.9 2646.90  12
  -1   2   7 1161.90 382.008  14
   1  -2  -7 1219.27 681.260  12
   1   2  -7 1496.67 688.384  12
  -1  -2   7 851.189 347.119  14
   1   2  -7 1511.90 508.941   5
  -1  -2   7 956.281 705.464  10
  -1  -2   7 1253.11 577.740  11
   1  -2  -7 1712.24 598.446   5
  -1   2   7 1484.13 411.565  11
  -1   2   6 201.861 129.439  11
   1  -2  -6 241.192 143.558   5
  -1  -2   6 414.369 296.212  14
   1  -2  -6 446.069 245.359   4
   1   2  -6 1058.03 552.162  12
   1   2  -6 588.161 302.013   5
   1  -2  -6 314.990 332.277  12
  -1  -2   6-14.7309 136.549  11
  -1   2   6 307.153 208.651  14
  -1  -2   6 578.762 496.112  10
  -1   2   5 2080.46 406.956  14
  -1  -2   5 2188.00 877.213  10
   1   2  -5 2579.12 787.567  12
   1  -2  -5 2525.74 833.666  12
   1  -2  -5 20776.4 1870.52   5
   1   2  -5 16261.8 1653.74   5
  -1  -2   5 2200.50 571.814  14
   1   2  -5 5234.45 780.183   1
  -1  -2   5 2614.06 667.434  11
   1   2  -5 1206.87 1055.93   4
  -1   2   5 1619.52 354.310  11
  -1   2   4 15196.1 889.103  11
  -1   2   4 13655.9 877.757  14
  -1   2   4 7748.20 785.350   9
  -1  -2   4 15999.1 1330.81  14
   1   2  -4 12871.3 1165.83   5
  -1   2   4 12609.0 752.266   2
   1   2  -4 19015.0 1897.42  12
   1  -2  -4 16593.6 1788.46  12
   1   2  -4 13712.4 818.102   4
   1  -2  -4 14585.7 1252.11   5
  -1  -2   4 14498.3 1283.28  11
  -1  -2   4 9220.11 1494.54  10
   1  -2  -3 116924. 3049.45   5
   1   2  -3 138185. 4332.22  12
   1   2  -3 129126. 2691.05   4
   1   2  -3 111481. 2965.73   5
   1  -2  -3 102036. 3831.55  12
  -1  -2   3 68700.6 3585.31  10
  -1   2   3 133895. 2667.89   9
  -1  -2   3 117088. 3136.62  14
  -1  -2   3 62951.4 4419.77   9
  -1  -2   3 118263. 3182.04  11
  -1   2   3 116623. 2124.11   2
   1  -2  -3 169518. 4865.20  10
  -1  -2   2 26426.8 2961.56   9
   1   2  -2 82773.1 4464.59   9
   1   2  -2 44239.9 1641.77  11
  -1  -2   2 33873.0 2366.20   6
  -1   2   2 43233.4 1204.49   2
  -1  -2   2 30763.8 2069.71  10
  -1  -2   2 40528.8 1718.35  14
   1  -2  -2 46284.4 1692.78   8
   1   2  -2 40892.8 1279.92   7
   1   2  -2 50281.9 1724.84   4
   1   2  -2 54392.3 2610.57   6
  -1   2   2 43490.4 2692.80   6
   1   2  -2 42972.0 1589.04  14
   1  -2  -2 42629.0 2273.39   6
   1   2  -2 65031.2 2870.50  10
  -1   2   2 47536.6 2267.54  12
  -1  -2   1 999999. 15644.5   9
  -1  -2   1 609172. 7150.86   6
   1  -2  -1 666151. 6565.24   6
  -1   2   1 663689. 3327.66  13
  -1  -2   1 562741. 6170.38   4
  -1  -2   1 673989. 4440.48   7
   1  -2  -1 729059. 5902.22   8
   1   2  -1 673081. 4404.83   7
  -1   2   1 618160. 4704.92   2
   1   2  -1 657291. 6469.38   4
  -1  -2   1 644349. 7754.04  10
   1   2  -1 659163. 5301.08   3
   1  -2  -1 680542. 5955.73   7
  -1   2   1 718051. 7516.82   6
   1   2  -1 677185. 5926.24   8
   1   2  -1 691750. 6788.67   6
   1   2  -1 636834. 5925.80  14
  -1  -2   0 412074. 8443.63   9
   1   2   0 457656. 5957.58  12
   1  -2   0 450150. 3942.20   8
  -1  -2   0 412974. 5217.35   4
  -1   2   0 421547. 5279.17   6
   1   2   0 397865. 3297.70   5
   1   2   0 403763. 4680.62   8
  -1  -2   0 397099. 4770.49   8
   1   2   0 447219. 5248.64   4
   1  -2   0 400531. 3917.34   7
   1   2   0 403015. 4063.98   7
   1   2   0 457590. 7449.43   9
  -1   2   0 412918. 4038.30   7
  -1   2   0 430026. 3660.75   3
  -1   2   0 398805. 3100.09  11
  -1  -2   0 409048. 4068.34   7
   1  -2   0 429999. 3334.82   5
  -1  -2   0 391188. 5095.37   6
  -1   2   0 423748. 3727.90   2
  -1  -2   0 463012. 4369.42  13
   1   2   0 412872. 3602.59  13
   1   2   1 3981.35 674.939  12
  -1  -2  -1 3895.25 403.594   5
   1  -2   1 4077.72 404.619   7
   1  -2   1 4169.68 430.528  11
  -1  -2  -1 4515.37 551.793   8
   1  -2   1 4300.77 281.138   8
   1   2   1 4160.11 543.423   4
   1   2   1 4241.44 518.815   8
  -1  -2  -1 3367.12 491.960   4
  -1   2  -1 3909.87 413.739   7
   1  -2   1 6151.54 596.962   5
   1   2   1 4208.83 451.393   1
   1   2   1 5963.56 575.983   5
  -1  -2  -1 4307.36 555.124   7
   1   2   1 3453.96 298.785  10
  -1   2  -1 4338.06 381.158  11
  -1   2  -1 3923.88 357.250   2
  -1  -2  -1 3342.36 642.352  12
   1  -2   1 3329.06 566.175  10
  -1  -2  -1 3664.61 685.994   9
   1   2   1 4189.10 569.024   9
  -1   2  -1 4094.70 407.772   5
   1  -2   2 122658. 2820.63  11
  -1   2  -2 126739. 2767.15   7
  -1   2  -2 128340. 5035.77  12
  -1  -2  -2 111382. 3188.79   9
   1   2   2 127765. 2877.51   5
  -1  -2  -2 116807. 2985.87   4
  -1   2  -2 126243. 2757.22   5
  -1  -2  -2 131300. 2858.51   5
  -1  -2  -2 99744.0 3970.69  12
   1   2   2 122142. 2334.49   1
   1   2   2 123248. 2890.90   8
  -1   2  -2 125586. 1943.87   2
   1   2   2 119613. 2790.81  10
   1   2   2 135160. 3084.67   4
  -1   2  -2 126673. 2304.26  14
   1  -2   2 97870.0 3712.55  10
   1   2   3 54570.4 2059.44   8
  -1  -2  -3 63111.3 2484.64   5
  -1   2  -3 54258.0 1528.75  14
  -1  -2  -3 54502.5 2126.35   4
   1  -2   3 53630.5 2138.76  11
   1   2   3 63656.0 2325.77   4
  -1   2  -3 54352.3 1139.60   2
  -1  -2  -3 59317.3 2142.22  10
  -1   2  -3 55282.0 3549.54  12
  -1  -2  -3 50678.8 1979.26   9
  -1  -2  -3 48154.8 3106.62  12
   1  -2   3 37251.6 2648.65  10
  -1   2  -3 60126.6 2421.68   5
   1   2   3 53252.3 2468.82  10
   1  -2   3 56526.0 1526.22   1
  -1   2  -4 69774.2 1755.03  14
   1   2   4 72317.6 2560.12   8
   1   2   4 58463.6 1072.68   2
  -1  -2  -4 65075.9 4068.13  12
  -1  -2  -4 73318.2 2611.76   4
  -1   2  -4 69280.7 1176.02   2
   1   2   4 66618.3 1630.19  14
  -1   2  -4 112575. 4204.83   5
  -1  -2  -4 108339. 4245.73   5
  -1   2  -4 73383.7 4693.45  12
   1   2   4 60681.9 3120.32  10
   1  -2   4 53307.9 3807.74  10
  -1  -2  -4 58163.2 1808.52   9
   1  -2   4 71670.6 2835.28  11
   1   2   5 77157.0 2071.59  14
   1   2   5 81639.9 2941.39   8
  -1   2  -5 126219. 4996.18   5
   1   2   5 47771.9 2153.12  11
   1  -2   5 57278.6 4457.33  10
   1  -2   5 85301.8 3531.10  11
   1   2   5 61417.6 3480.79  10
  -1  -2  -5 75984.8 4872.65  12
  -1  -2  -5 90127.3 2949.92   4
  -1   2  -5 92191.6 5606.42  12
  -1  -2  -5 127168. 5212.02   5
   1   2   6 2419.81 600.961   8
   1   2   6 4482.84 1192.45  10
  -1   2  -6 2760.01 780.792   5
   1  -2   6 3208.60 783.821  11
  -1  -2  -6 1998.30 966.829  12
  -1   2  -6 1903.32 888.883  12
   1  -2   6 2834.18 1198.96  10
   1   2   6 1237.85 279.935  11
  -1  -2  -6 3312.22 848.854   5
  -1   2  -7 284.591 307.787   5
   1  -2   7 967.708 701.600  10
  -1  -2  -7 544.149 357.263   5
   1  -2   7 500.220 347.911  11
  -1   2  -7 47.2870 454.436  12
  -1  -2  -7 132.227 254.303  12
   1   2   7-1065.48 396.422  11
   1  -2   8 5.68896 423.127  10
   1  -3  -8 14060.0 1802.00   5
   1  -3  -8 12899.8 2432.93  12
  -1   3   8 11112.5 1359.91  11
  -1  -3   8 11975.2 1825.78  11
  -1  -3   8 8241.42 2195.20  10
   1   3  -8 14290.2 2373.44  12
   1   3  -8 13818.3 1781.56   5
  -1   3   8 11138.5 1294.35  14
  -1  -3   7 197.770 307.967  10
   1  -3  -7 369.326 406.523  12
   1   3  -7 40.4422 90.7982   5
  -1   3   7-163.425 49.6550  14
  -1   3   7 171.213 199.001  11
   1  -3  -7-10.4954 172.228   5
  -1  -3   7-95.1907 194.478  11
   1   3  -7-44.8361 87.4149  12
  -1   3   6 25644.5 1510.76  14
   1  -3  -6 31687.4 2025.80   4
   1  -3  -6 32495.1 3222.16  12
   1   3  -6 44334.4 3660.74  12
  -1  -3   6 17871.3 2710.52  10
   1   3  -6 32444.1 2255.70   5
  -1  -3   6 36002.5 2633.48  11
   1  -3  -6 35663.5 2438.40   5
  -1   3   6 30325.0 1716.64  11
  -1  -3   5 3408.34 1183.71  10
   1  -3  -5 5794.07 1271.96  12
   1  -3  -5 19530.2 1711.53   5
   1   3  -5 12629.2 1198.31   1
   1   3  -5 13552.9 1446.75   5
  -1   3   5 2849.69 382.388   2
  -1   3   5 2941.86 450.744  14
  -1   3   5 3897.99 571.336  11
   1   3  -5 5752.01 1250.18  12
  -1  -3   5 4869.67 943.775  11
  -1   3   4 49544.0 1564.43   2
  -1   3   4 39485.7 1275.40   9
   1  -3  -4 51913.2 2318.27   5
   1   3  -4 61489.2 3532.37  12
  -1  -3   4 51755.5 2593.44  11
   1   3  -4 49265.7 2238.84   5
   1   3  -4 52468.4 2125.39   1
   1   3  -4 48079.5 1661.06   4
  -1  -3   3 38409.0 2803.26  10
   1   3  -3 86319.9 3982.41  12
   1  -3  -3 74691.1 2457.81   5
   1   3  -3 78411.9 2253.44   4
   1   3  -3 74997.9 2015.56   7
   1   3  -3 71629.5 2363.32   5
   1   3  -3 74037.3 2468.39   1
  -1   3   3 68599.6 1832.29   2
  -1  -3   3 37427.8 3620.27   9
   1  -3  -3 99633.2 3557.04  10
   1   3  -3 75535.3 2180.52   8
  -1   3   2 7570.91 1082.14   6
  -1  -3   2 4884.26 862.230   6
   1  -3  -2 6234.18 894.101   6
  -1  -3   2 4038.97 773.136  10
   1   3  -2 7149.03 739.067   4
  -1   3   2 5756.55 689.931   8
   1   3  -2 7150.99 660.312   8
  -1  -3   2 3674.23 1100.62   9
  -1   3   2 7251.84 598.376   2
   1   3  -2 6712.47 446.939   7
   1   3  -2 6544.17 712.737   3
   1   3  -2 10324.0 1176.40   6
   1  -3  -2 7766.72 510.828  13
   1   3  -2 7363.32 729.838   1
  -1  -3   2 4884.52 660.608   4
  -1   3   1 296032. 4859.84   6
  -1  -3   1 272307. 4619.36   6
   1   3  -1 489095. 11479.0   9
  -1   3   1 252678. 3961.33   8
   1   3  -1 285129. 4616.72   4
   1  -3  -1 297620. 4300.41   8
   1  -3  -1 283457. 4141.15   7
   1   3  -1 273525. 4630.09   1
   1   3  -1 276856. 2753.37   7
   1   3  -1 276783. 4204.69   8
   1  -3  -1 283053. 4222.16   6
  -1  -3   1 253203. 4538.96   4
  -1  -3   1 277719. 4247.82   3
  -1  -3   1 285817. 2809.82   7
  -1   3   1 271814. 2953.60  13
   1   3  -1 252760. 3896.53   3
  -1  -3   1 314550. 5830.25  10
  -1  -3   1 281872. 4360.66   8
  -1  -3   1 398175. 11223.8   9
   1   3  -1 305216. 4460.29   6
   1  -3   0 176991. 2117.20   5
  -1   3   0 178051. 2912.31   3
   1   3   0 168597. 3513.16   1
   1  -3   0 159846. 2616.40   7
   1   3   0 184221. 3800.97   4
  -1   3   0 169970. 2883.65   7
  -1  -3   0 165956. 3727.79   4
   1  -3   0 184260. 2943.76   8
   1   3   0 168697. 2786.40  13
  -1  -3   0 139545. 2870.62   6
   1   3   0 217309. 6261.85   9
   1   3   0 180203. 2112.05   5
  -1  -3   0 154600. 6612.81   9
  -1  -3   0 166848. 2750.70   7
   1  -3   0 173553. 2984.29   3
  -1   3   0 167983. 2550.12  11
  -1  -3   0 189033. 3287.64   3
  -1   3   0 166552. 3117.37   6
   1   3   0 224022. 3449.60  10
   1  -3   0 192337. 3769.54  10
  -1  -3   0 162652. 3488.75   8
   1   3   0 163168. 3328.09   8
   1  -3   1 16752.2 997.200  11
  -1  -3  -1 18328.1 2154.41   9
   1   3   1 18731.3 1563.26   9
  -1  -3  -1 16633.6 821.401   5
   1   3   1 22555.6 1108.32   5
   1  -3   1 16687.1 729.013   8
   1   3   1 18691.5 1199.50   8
  -1  -3  -1 17831.5 1267.23   4
  -1  -3  -1 16397.7 1100.11   7
  -1   3  -1 16591.9 807.916   5
   1  -3   1 13664.3 1289.28  10
   1  -3   1 16920.3 824.506   7
  -1   3  -1 17436.3 868.482   7
  -1   3  -1 16082.3 880.225  11
   1   3   1 16464.7 1076.63   1
  -1   3  -1 16139.4 1026.87   3
   1  -3   1 20635.4 1031.80   5
  -1   3  -2-48.5196 148.564  12
   1   3   2-1.04534 50.4657   9
  -1   3  -2-91.5705 61.9170   5
  -1  -3  -2 98.5170 76.6558   4
  -1  -3  -2 74.4231 81.1672   5
   1   3   2 101.630 98.1737   1
  -1   3  -2 222.552 113.173   7
  -1  -3  -2-116.456 150.772  12
   1  -3   2-92.8650 121.062  11
   1   3   2 116.172 87.2369   5
   1   3   2 5.14814 39.4618  10
  -1  -3  -2 243.716 274.117   9
   1  -3   2 183.510 268.600  10
  -1  -3  -3 26260.5 2528.82  12
  -1   3  -3 24371.7 1404.27   7
   1  -3   3 26421.0 1311.17   1
   1  -3   3 23785.5 1017.31   4
  -1   3  -3 27837.9 1506.75   5
   1   3   3 24759.5 1532.65   8
  -1  -3  -3 26701.8 1544.38   5
  -1  -3  -3 23677.1 1625.50   4
   1  -3   3 21312.7 2144.51  10
   1   3   3 25995.1 1448.42  10
   1  -3   3 25917.6 1685.24  11
  -1  -3  -3 20232.8 1745.45   9
  -1   3  -3 28805.7 2780.97  12
  -1  -3  -4 27.8958 166.441   5
  -1   3  -4 1.76382 65.9108   2
   1  -3   4 41.5613 324.847  10
  -1   3  -4-225.006 288.006  12
   1  -3   4 180.897 223.242  11
   1   3   4 226.676 189.293  10
   1   3   4 131.708 138.670   8
  -1  -3  -4 52.1963 91.8945   4
  -1  -3  -4-241.719 262.777  12
  -1   3  -4-23.9328 16.8097   5
  -1  -3  -4 287.009 195.102  10
   1  -3   5 197.285 57.6081  11
  -1  -3  -5 353.147 340.669   5
  -1  -3  -5-63.7747 148.851  12
   1   3   5 419.401 268.299   8
   1   3   5 307.707 153.665  14
  -1  -3  -5 235.641 42.0813   4
   1  -3   5 51.1930 264.639  10
  -1   3  -5 0.65975 221.300  12
   1   3   5 398.168 347.659  10
  -1   3  -5 405.801 305.169   5
   1   3   6 6766.38 1018.05   8
  -1  -3  -6 5226.76 1546.97  12
   1   3   6 3535.52 703.219  11
  -1  -3  -6 7841.82 1262.46   5
   1  -3   6 8348.54 1295.11  11
  -1   3  -6 3580.39 1234.07  12
  -1   3  -6 7279.17 1209.25   5
   1  -3   6 6600.40 1946.74  10
  -1   3  -7 1390.56 791.559  12
   1  -3   7 922.439 743.442  10
  -1  -3  -7 1129.04 813.266  12
   1   3   7 601.690 330.493  11
  -1  -3  -7 1130.45 500.055   5
   1  -3   7 2433.27 813.018  11
  -1   3  -7 1416.96 536.466   5
   1   4  -8 12483.0 2317.87  12
   1  -4  -8 13191.8 1852.22   5
  -1  -4   8 13919.6 2043.92  11
  -1   4   8 10531.4 1214.48  14
   1   4  -8 12531.8 1790.37   5
  -1   4   8 10057.4 1315.82  11
  -1  -4   8 9371.94 2489.48  10
  -1   4   7 6687.34 865.169  14
  -1  -4   7 8508.97 1449.36  11
   1  -4  -7 8037.86 1283.44   5
   1   4  -7 8773.28 1272.89   5
   1   4  -7 9875.18 1924.85  12
  -1   4   7 7087.10 921.014  11
  -1   4   6-119.825 59.8305  11
  -1   4   6 200.063 192.644  14
   1   4  -6-10.7508 163.987  12
   1  -4  -6 397.814 368.547   4
   1  -4  -6 258.051 275.237   5
  -1  -4   6 425.105 413.059  11
  -1  -4   6 973.218 590.517  10
   1   4  -6-70.4496 127.562   5
  -1  -4   5 17982.0 1832.31  11
  -1  -4   5 11353.9 2556.83  10
   1   4  -5 19962.6 1206.26   8
   1   4  -5 22643.0 2029.28   5
   1   4  -5 20081.8 2423.48  12
  -1   4   5 16201.3 1032.61   2
   1   4  -5 24326.3 1587.65   1
   1   4  -4 11433.4 1063.90   5
   1   4  -4 11347.6 1053.35   1
   1   4  -4 9643.28 898.517   4
   1   4  -4 14255.5 1938.99  12
  -1   4   4 10339.2 1241.18   9
   1   4  -4 11489.2 885.929   7
   1  -4  -4 12597.6 1334.80  10
  -1   4   4 11228.6 814.274   2
   1  -4  -4 10885.1 1070.99   5
   1   4  -4 10954.8 885.667   8
   1   4  -3 10432.6 1012.11   1
   1  -4  -3 12327.1 788.399  13
  -1   4   3 10077.7 1085.87   8
   1  -4  -3 10163.6 880.022   5
   1   4  -3 11551.0 908.171   8
   1   4  -3 11116.4 636.462   7
  -1  -4   3 9664.63 976.615   4
   1   4  -3 10130.1 877.990   5
  -1   4   3 11077.5 846.395   2
  -1  -4   2 1909.94 545.452  10
  -1  -4   2 1776.91 830.086   9
   1   4  -2 3197.08 530.146   3
   1   4  -2 3401.17 235.346   7
  -1   4   2 3847.46 583.479   8
   1   4  -2 4153.99 549.074   8
  -1  -4   2 4162.37 618.182   4
   1   4  -2 3948.75 581.575   1
   1   4  -2 5847.04 867.603   6
   1  -4  -2 3570.54 433.419   5
   1  -4  -2 3498.24 644.938   6
  -1   4   1 468957. 6283.01   6
   1   4  -1 391220. 5985.89   1
   1  -4  -1 421484. 4989.75   6
  -1  -4   1 443974. 6007.29   6
   1   4  -1 384143. 5488.62   8
  -1  -4   1 406781. 6438.82   4
  -1  -4   1 402967. 3362.68   7
   1  -4  -1 390209. 5283.66   7
   1   4  -1 456134. 5229.95   6
  -1  -4   1 388547. 7018.37  10
  -1   4   1 372943. 4152.11  13
  -1  -4   1 399611. 12151.0   9
   1   4  -1 346106. 5129.50   3
  -1   4   1 341577. 4984.61   8
   1   4   0 248423. 2388.13   5
   1  -4   0 249250. 3970.08   8
   1   4   0 232643. 4414.17   8
  -1   4   0 239231. 3609.63   6
  -1  -4   0 223832. 4878.07   4
  -1  -4   0 240673. 3533.94   7
   1  -4   0 245999. 2422.72   5
   1  -4   0 241191. 4841.10  10
  -1   4   0 224078. 3638.25   8
   1  -4   0 229209. 3302.56   7
   1   4   0 305568. 4033.35  10
  -1  -4   0 165102. 7267.69   9
   1   4   0 235200. 4513.07   1
  -1  -4   0 202334. 3369.37   6
  -1   4   0 231022. 3575.92  11
   1   4   0 251915. 3972.13  13
   1   4   1 8421.93 1332.43   9
  -1  -4  -1 5186.48 1214.83   9
  -1  -4  -1 5261.88 763.765   4
   1   4   1 5411.65 698.430   8
  -1  -4  -1 5509.65 477.163   5
   1   4   1 5550.29 507.673   5
  -1   4  -1 6428.31 519.906   7
  -1   4  -1 6239.06 485.918   5
   1  -4   1 7177.85 593.735   8
   1  -4   1 6122.65 552.914   5
   1   4   1 5745.73 713.546   1
   1  -4   1 4898.60 827.540  10
   1  -4   1 5996.39 476.021   7
  -1   4  -1 6125.23 696.150   3
  -1  -4  -2 34667.3 2946.00   9
   1   4   2 41952.6 2365.75   9
   1  -4   2 30886.6 2370.61  10
  -1   4  -2 36841.3 1437.57   5
   1  -4   2 36675.4 1060.05   8
  -1  -4  -2 35310.3 2051.77   4
  -1   4  -2 38343.8 1401.71   7
   1   4   2 36028.5 1588.32   5
   1  -4   2 38229.5 1932.37  11
  -1  -4  -2 38211.7 1486.70   5
   1   4   2 35091.4 1889.65   8
  -1   4  -3 58713.3 4328.06  12
   1   4   3 49154.4 2363.37   8
   1   4   3 64290.1 2218.85   9
   1  -4   3 36096.1 2949.68  10
   1  -4   3 52102.9 1874.13   4
  -1  -4  -3 47829.7 2513.95   4
  -1  -4  -3 45950.5 3438.20  12
  -1  -4  -3 52801.6 2144.57   5
  -1   4  -3 50124.9 1851.41   7
  -1   4  -3 48280.7 1985.20   5
   1  -4   3 53521.4 2570.02  11
  -1  -4  -4 30553.0 3234.62  12
   1   4   4 37641.7 2177.80   8
   1  -4   4 25230.4 1042.71   4
  -1  -4  -4 38803.9 2365.35   4
  -1   4  -4 43218.3 3835.36  12
  -1  -4  -4 42861.6 2243.32   5
   1  -4   4 41277.8 2513.56  11
  -1   4  -4 40076.7 2083.27   5
   1  -4   4 31044.5 3243.70  10
  -1  -4  -5 28561.7 3333.61  12
   1  -4   5 31707.0 2371.47  11
  -1  -4  -5 33670.4 2218.97   5
  -1  -4  -5 28631.3 2082.71   4
   1  -4   5 25296.3 3186.55  10
  -1   4  -5 30842.6 2069.72   5
   1   4   5 28974.7 2027.41   8
  -1   4  -5 34371.3 3692.88  12
   1  -4   6 3966.27 937.909  11
   1   4   6 2495.50 678.931   8
  -1  -4  -6 2512.19 1151.53  12
  -1   4  -6 3026.18 1248.29  12
   1  -4   6 3115.71 1192.55  10
  -1   4  -6 2842.85 706.245   5
  -1  -4  -6 3113.77 794.213   5
   1  -4   7 4137.75 990.164  11
  -1  -4  -7 2767.09 1206.90  12
  -1  -4  -7 3734.05 913.961   5
   1   4   7 3947.31 773.332  11
  -1   4  -7 4567.75 1577.03  12
   1  -4   7 1457.12 780.391  10
  -1   4  -7 4073.72 919.363   5
   1  -5  -8 2459.56 917.304   5
  -1   5   8 2088.32 556.599  11
   1   5  -8 2132.41 1024.23  12
   1   5  -8 2082.99 691.844   5
  -1   5   8 1394.70 449.352  14
   1   5  -7 276.441 340.839  12
   1  -5  -7 271.693 282.584   5
  -1   5   7 378.736 141.180  14
  -1  -5   7-419.060 529.918  10
  -1   5   7 165.669 189.012  11
   1   5  -7 426.871 272.344   5
   1   5  -6 9760.53 1199.98   5
   1  -5  -6 8626.50 1334.70   4
  -1   5   6 9368.30 946.037  14
  -1   5   6 9341.69 953.492  11
   1  -5  -6 10028.2 1298.11   5
   1   5  -6 11662.2 2049.39  12
   1   5  -5 240.091 303.096  12
   1   5  -5 1579.76 822.227   5
  -1   5   5 148.339 178.539   2
  -1  -5   5 408.150 222.854  10
   1  -5  -5 524.348 678.060   5
   1  -5  -4 4450.96 759.972  10
   1   5  -4 3826.82 405.314   7
  -1   5   4 3732.21 755.166   8
   1  -5  -4 3936.70 646.142   5
   1   5  -4 4162.88 546.833   8
   1   5  -4 4996.86 1267.55  12
   1  -5  -4 3563.68 805.710   4
   1   5  -4 3909.64 696.606   1
  -1   5   4 4003.45 590.658   2
   1   5  -4 3809.33 598.362   5
  -1  -5   4 1084.31 585.172  10
  -1   5   3 30269.0 1535.02   2
   1   5  -3 27436.4 1423.78   5
  -1  -5   3 20973.9 1819.59   4
  -1   5   3 28327.1 1859.84   8
   1  -5  -3 32672.4 1575.53   5
  -1   5   3 47019.8 3689.76   9
  -1  -5   3 13733.6 1863.01  10
   1   5  -3 30719.6 2026.61   3
   1   5  -3 31411.5 1577.40   8
   1   5  -3 31266.5 1887.88   1
   1   5  -2 7654.25 626.709   5
   1   5  -2 8549.62 858.430   8
  -1   5   2 7375.84 875.909   8
  -1  -5   2 4591.68 896.096  10
   1  -5  -2 8505.03 655.697   5
  -1  -5   2 4520.22 972.494   4
   1   5  -2 9210.26 1022.95   1
   1  -5  -2 6858.56 790.460   6
   1   5  -2 12282.2 1111.91   6
   1   5  -2 9259.33 993.825   3
  -1  -5   1 106110. 2929.05   6
  -1   5   1 74248.2 2496.90   8
  -1  -5   1 87325.7 3353.38   4
  -1  -5   1 87892.6 1602.82   7
   1   5  -1 84251.7 2790.84   8
  -1   5   1 83489.2 2269.93  13
  -1  -5   1 84827.5 5942.30   9
   1  -5  -1 88938.1 2600.84   7
   1   5  -1 116903. 2663.05   6
   1  -5  -1 103164. 3056.51  10
  -1  -5   1 94484.0 3719.44  10
   1   5  -1 121379. 3682.48  10
   1   5  -1 80057.4 3018.09   1
  -1   5   1 121566. 3216.24   6
   1   5   0-14.3210 26.7559   5
  -1   5   0 397.502 189.236   8
  -1  -5   0 16.2786 37.4623   7
  -1   5   0 43.9883 30.3187   6
  -1  -5   0 57.5550 70.4397   6
   1   5   0 324.096 170.807  13
   1  -5   0 128.492 62.4919   5
   1  -5   0 75.7494 104.948  10
   1   5   0 382.281 266.385   8
  -1  -5   0 254.394 318.374   9
   1   5   0 101.280 42.1831  10
   1   5   0 428.963 263.575   1
  -1  -5   0 57.6996 113.980   4
  -1  -5   0 148.914 142.304  10
   1  -5   0-32.3108 93.6905   7
  -1   5  -1 8955.70 932.871   3
  -1   5  -1 8094.16 698.796   8
  -1  -5  -1 7430.00 1023.49   4
   1  -5   1 8717.13 772.779   8
   1   5   1 6932.39 868.857   8
  -1  -5  -1 7055.02 532.102   5
   1  -5   1 7705.71 604.113   5
   1  -5   1 8014.96 553.642   7
  -1   5  -1 8091.68 551.449   5
   1  -5   1 7172.95 1153.39  10
   1   5   1 7801.03 581.673   5
  -1  -5  -1 5306.66 1388.05   9
   1   5   2 7589.96 747.876   5
   1  -5   2 8946.06 1038.62   4
  -1  -5  -2 7120.28 1041.16   4
   1  -5   2 8768.89 657.029   8
   1  -5   2 6515.66 1189.69  10
   1   5   2 8154.67 978.035   8
  -1   5  -2 8182.56 984.749   3
  -1  -5  -2 8749.64 726.556   5
  -1   5  -2 9040.24 697.509   5
  -1   5  -2 8079.85 611.348   7
   1  -5   2 7655.79 806.132   5
   1   5   3 8157.87 1003.72   9
  -1   5  -3 6758.51 674.809   7
   1  -5   3 6188.57 786.064   4
  -1   5  -3 7903.47 1683.55  12
   1   5   3 7147.04 982.941   8
  -1  -5  -3 7154.17 1118.08   4
  -1   5  -3 6505.89 712.033   5
  -1  -5  -3 6760.95 755.923   5
   1  -5   3 6744.62 983.556  11
   1  -5   3 5072.94 1239.28  10
   1  -5   4 4337.19 1280.92  10
   1   5   4 5651.76 920.215   8
  -1  -5  -4 5748.22 994.246   4
  -1   5  -4 6659.84 1680.65  12
  -1   5  -4 6740.15 846.271   5
   1  -5   4 6908.05 1082.62  11
  -1  -5  -4 7485.29 910.425   5
  -1  -5  -5 90.0119 113.148   5
  -1  -5  -5 282.791 217.557   4
   1   5   5 351.483 157.026   8
   1  -5   5 265.828 477.311  10
   1  -5   5 404.266 301.126  11
  -1   5  -5 897.945 663.239  12
  -1   5  -5 359.072 173.073   5
   1   5   6 506.863 274.536   8
  -1   5  -6-134.749 168.414  12
  -1   5  -6 1232.49 497.234   5
   1  -5   6 337.533 283.046  11
  -1  -5  -6 787.324 401.619   5
   1  -5   6-150.755 186.949  10
  -1   5  -7 1079.47 880.360  12
   1   5   7 15.1894 308.550   8
   1   5   7 1078.53 477.313  11
  -1  -5  -7 58.3952 143.340   5
  -1   5  -7 102.894 89.1144   5
   1   6  -8 10778.3 1664.07   5
   1  -6  -8 12596.2 2002.95   5
   1   6  -7 753.098 526.427  12
   1   6  -7 1096.60 344.912   5
  -1   6   7 851.101 330.841  14
  -1   6   7 1217.43 399.223  11
   1  -6  -7 1233.87 569.843   5
  -1  -6   7 563.516 409.742  10
   1  -6  -6 140.632 149.845   4
   1   6  -6 270.929 289.312   5
   1  -6  -6 372.087 310.855   5
   1   6  -6 75.4400 210.865  12
  -1  -6   6 106.071 292.766  10
   1  -6  -5 4604.27 1029.11   4
  -1   6   5 2113.71 413.908   2
   1   6  -5 1749.27 898.168  12
   1   6  -5 3757.02 1051.50   3
   1   6  -5 2397.91 613.472   5
   1  -6  -5 2417.08 665.395   5
  -1  -6   5 1018.65 831.033  10
  -1   6   4 7622.86 1116.25   8
   1   6  -4 8756.38 913.704   5
   1  -6  -4 8382.88 1293.45   4
  -1  -6   4 6808.56 1003.60   4
   1  -6  -4 8822.21 970.262   5
   1   6  -4 8778.29 1254.65   3
   1   6  -4 7796.92 792.544   8
   1   6  -4 9805.38 1844.42  12
  -1   6   4 7577.79 830.381   2
   1  -6  -3 72846.8 3950.13   4
   1   6  -3 73204.2 3288.04   3
   1   6  -3 67095.8 2497.35   8
   1   6  -3 68394.2 2158.50   5
  -1   6   3 67428.3 3046.50   8
   1   6  -3 69579.5 3119.24   1
   1  -6  -3 74393.5 2342.97   5
   1  -6  -2 4645.28 926.370   4
   1  -6  -2 3492.40 390.090   5
   1   6  -2 4821.88 653.841   6
   1   6  -2 2986.43 347.591   5
   1   6  -2 3064.02 541.069   8
   1   6  -2 4086.90 755.604   1
   1   6  -2 3061.09 633.933   3
   1  -6  -2 2285.25 437.969   6
  -1  -6   2 2281.61 666.635   4
  -1   6   2 2290.02 533.614   8
   1  -6  -2 4463.52 625.914  10
  -1  -6   2 1285.91 575.597  10
   1   6  -1-85.4792 126.168   8
  -1   6   1-298.713 178.060  13
   1  -6  -1-22.0243 67.5213   7
   1   6  -1 563.338 350.853   1
   1   6  -1-172.835 181.010  13
   1  -6  -1-82.9359 168.678   4
  -1   6   1 378.164 183.438   8
   1   6  -1 17.5213 29.9139   5
   1   6  -1 53.4334 39.0634   5
  -1  -6   1 587.669 443.952  10
   1  -6  -1-288.153 220.260  10
  -1   6   0 51961.5 2110.31   8
  -1  -6   0 55802.1 2984.48   4
   1  -6   0 55388.0 2899.86  10
   1   6   0 58677.9 2228.16  13
   1  -6   0 54035.5 1788.44   7
  -1  -6   0 56443.2 1923.51   7
   1   6   0 56037.7 2561.17   8
  -1   6  -1 50967.8 1941.38   6
  -1   6  -1 36299.7 1653.36   8
   1   6   1 35759.1 1176.30   5
  -1  -6  -1 40958.0 2627.57   4
   1   6   1 38452.6 2200.70   8
   1  -6   1 34579.4 1266.19   5
  -1   6  -1 45161.4 2229.10   3
   1  -6   1 46217.4 2644.55   4
   1  -6   1 34015.5 2627.56  10
  -1  -6  -1 38774.4 1701.77   6
   1  -6   1 37248.2 1149.71   7
   1  -6   2 7673.38 1448.40  10
  -1  -6  -2 9519.40 1294.44   4
   1   6   2 9848.66 1157.44   8
   1  -6   2 11011.8 861.371   8
   1  -6   2 8879.26 898.691   5
   1  -6   2 10643.6 1248.75   4
  -1  -6  -2 10792.3 787.295   5
  -1   6  -2 11303.8 780.443   5
  -1   6  -2 11602.1 1224.75   3
  -1   6  -3 10868.8 1539.16   3
   1  -6   3 179.847 281.576   4
  -1  -6  -3 12911.4 1544.69   4
   1  -6   3 1315.54 1367.17  10
  -1   6  -3 508.147 307.521   5
  -1  -6  -3 230.563 250.466   5
   1   6   3 439.672 305.464   8
  -1   6  -3 848.423 571.877  12
  -1   6  -4 23661.9 3322.38  12
   1   6   4 17068.2 1684.36   8
  -1  -6  -4 16710.2 1879.43   4
  -1   6  -4 18548.3 1362.02   5
   1  -6   4 12250.2 2210.27  10
  -1  -6  -4 19006.5 1437.64   5
   1  -6   5 66271.8 3903.97  11
   1   6   5 59606.1 3300.31   8
  -1  -6  -5 59346.8 3576.17   4
  -1   6  -5 57561.3 2746.74   5
  -1  -6  -5 63923.6 3036.61   5
  -1   6  -5 64996.3 5522.61  12
   1  -6   6 1352.26 610.807  11
   1   6   6 1138.28 456.094   8
  -1   6  -6 445.693 519.119  12
   1  -6   6 930.308 880.580  10
  -1  -6  -6 1593.89 612.982   5
  -1   6  -6 1128.33 480.366   5
   1   6   7 996.981 559.685   8
  -1   6  -7 1086.28 443.935   5
  -1  -6  -7 1190.54 455.489   5
  -1   7   7 1153.87 487.871  14
   1   7  -7 750.416 706.473  12
   1   7  -6 388.840 391.546  12
   1   7  -6 400.487 282.063   3
   1  -7  -6-228.549 260.498   4
  -1  -7   6-111.560 412.489  10
  -1   7   5 1369.75 444.142   2
   1   7  -5 2449.07 1150.76  12
  -1  -7   5 1436.57 947.533  10
   1   7  -5 2895.70 1047.06   3
   1  -7  -4 11654.7 1717.06   4
  -1  -7   4 8855.48 1309.07   4
  -1   7   4 11004.5 1443.45   8
  -1   7   4 11340.8 1104.35   2
   1   7  -4 16096.5 2547.93  12
   1   7  -4 11880.3 1528.41   3
  -1  -7   4 4781.00 1358.21  10
  -1  -7   3 6493.21 1413.97  10
  -1   7   3 9896.89 1229.22   8
  -1  -7   3 8710.93 1323.44   4
   1   7  -3 9764.05 1013.48   8
   1  -7  -3 11279.7 1665.04   4
   1   7  -3 11118.3 1378.79   3
   1   7  -2 46104.9 2593.76   3
   1  -7  -2 44581.9 3139.60   4
  -1   7   2 37607.3 2234.23   8
   1   7  -2 41241.9 2172.44   8
  -1  -7   2 37926.2 2722.85   4
   1  -7  -1 37351.3 2798.99   4
  -1   7   1 27667.6 1549.52  13
   1  -7  -1 29173.9 1664.54   7
  -1  -7   1 29118.5 2451.22   4
   1   7  -1 27236.5 1862.76  13
   1   7  -1 28631.1 1871.36   8
   1  -7  -1 37419.0 2396.73  10
  -1   7   1 25065.2 1724.73   8
  -1  -7   1 31250.6 2500.62  10
   1  -7   0 41193.7 2827.38   4
  -1   7   0 33025.0 1849.42   8
  -1  -7   0 34179.6 2581.61   4
   1   7   0 34604.6 2124.85   8
   1   7   0 38166.9 1994.07  13
   1  -7   0 33146.9 2459.29  10
   1  -7   0 35085.6 1478.00   7
   1  -7   1 2119.42 670.776   4
   1   7   1 1850.95 477.964   8
  -1  -7  -1 1232.76 511.345   4
  -1   7  -1 1177.90 352.775   8
   1  -7   1 1216.22 504.136  10
  -1   7  -2 35841.5 2337.67   3
   1  -7   2 34123.1 2420.15   4
   1   7   2 31381.1 2224.31   8
  -1  -7  -2 30640.2 2556.44   4
   1  -7   2 27440.8 2970.00  10
  -1   7  -3 2207.11 773.593   3
   1  -7   3 1163.92 560.069  10
   1   7   3 1667.44 566.816   8
   1  -7   3 1162.73 457.245   4
  -1  -7  -3 1706.13 822.154   4
  -1   7  -3 2534.77 1091.11  12
   1   7   4 27271.6 2249.98   8
  -1  -7  -4 30895.1 2700.95   4
  -1   7  -4 30946.2 4087.57  12
  -1   7  -4 31101.2 2518.43   3
   1  -7   4 19952.1 3133.79  10
  -1   7  -5 0.41786 318.546   3
  -1   7  -5 281.627 436.587  12
   1   7   5-240.219 58.5589   8
  -1  -7  -5 215.250 122.154   4
   1  -7   5 44.1361 357.033  10
   1   7   6 10091.8 1521.37   8
  -1   7  -6 9289.14 2319.37  12
   1   8  -6 545.832 624.015  12
   1  -8  -6 1011.15 612.000   4
  -1  -8   6 516.685 670.034  10
   1   8  -5 1468.24 609.779   3
   1  -8  -5 1325.19 683.712   4
  -1   8   5 303.354 331.016   2
   1   8  -5 246.168 531.915  12
  -1  -8   5 440.852 402.378  10
  -1   8   4 4095.66 706.250   2
   1  -8  -4 3150.64 866.549   4
   1   8  -4 4568.77 973.569   3
  -1   8   4 3436.52 847.842   8
  -1  -8   4 4556.49 982.644   4
  -1  -8   4 2115.75 1036.12  10
   1   8  -3 32472.1 2467.97   3
   1  -8  -3 31239.2 2802.11   4
   1   8  -3 28408.5 1814.46   8
  -1  -8   3 27919.4 2498.41   4
  -1   8   3 24306.8 2093.71   8
  -1  -8   2 56.2099 126.541   4
   1  -8  -2-231.951 139.032   4
   1   8  -2-145.580 80.7646   8
  -1   8   2-104.461 157.783   8
   1  -8  -2-58.6109 99.9373   7
  -1  -8   2 86.4035 359.840  10
  -1  -8   1-37.3137 287.745   4
  -1   8   1 278.241 138.884   8
  -1   8   1 254.149 231.579  13
   1   8  -1-299.465 229.602   8
   1  -8  -1 107.765 288.433   4
   1   8  -1 304.499 177.632  13
   1  -8  -1 312.925 182.775   7
  -1  -8   1-221.395 287.243  10
   1  -8  -1 39.4803 71.3079  10
  -1   8   0 23414.8 1738.45  13
  -1   8   0 20850.6 1607.06   8
   1   8   0 20077.9 1732.16   8
   1  -8   0 21634.5 2208.77   4
  -1  -8   0 21304.7 2217.67   4
   1   8   0 23970.9 1685.25  13
   1  -8   0 20319.3 2034.91  10
  -1   8  -1 15270.4 1304.15   8
   1   8   1 14643.2 1550.79   8
  -1  -8  -1 15987.5 1971.06   4
   1  -8   1 12752.9 2007.22  10
   1  -8   1 18372.9 1988.34   4
  -1   8  -2 4820.39 904.685   3
   1  -8   2 2352.09 814.547  10
   1   8   2 3636.53 803.704   8
   1  -8   2 4339.46 983.964   4
  -1  -8  -2 4315.55 982.252   4
  -1   8  -3 5571.47 1213.81   3
  -1  -8  -3 4621.94 1663.38   4
   1   8   3 781.103 519.939   8
   1  -8   3 2488.67 1580.85  10
   1  -8   3 455.632 404.711   4
   1   8   4 6482.44 1178.99   8
  -1  -8  -4 6689.70 1350.46   4
  -1   8  -4 7540.08 1286.41   3
   1  -8   4 5541.10 1610.36  10
  -1   8  -4 9690.20 2347.66  12
  -1   8  -5 29086.7 2722.78   3
   1   8   5 28147.3 2498.44   8
  -1  -8  -5 27052.1 2909.03   4
  -1   8  -5 30765.0 4234.63  12
   1   9  -6 6186.42 1901.97  12
   1   9  -5 1550.96 1046.54  12
  -1   9   5 683.772 316.909   2
  -1  -9   5 1439.30 1208.65  10
   1  -9  -4 178.174 264.315   4
  -1   9   4 257.479 401.618   8
   1   9  -4 199.576 297.873   3
  -1   9   4 238.063 191.551   2
  -1  -9   4 624.309 570.672  10
   1  -9  -3 2796.74 1049.53   4
  -1   9   3 2579.56 718.450   8
   1   9  -3 2947.10 764.331   3
  -1  -9   3 1972.30 893.959   4
  -1  -9   3 529.475 468.250  10
   1   9  -2-72.2510 114.060   8
  -1   9   2-233.706 294.893   8
   1   9  -2-239.946 366.396  13
  -1  -9   2-94.6070 236.509   4
   1  -9  -2-197.569 253.435   4
  -1  -9   1 16781.2 2252.94   4
   1  -9  -1 18285.3 2227.36   4
  -1   9   1 13604.9 1483.45   8
   1   9  -1 14750.1 1535.42   8
  -1   9   1 14551.3 1289.59  13
   1   9  -1 15880.0 1616.40  13
   1   9   0 342.555 345.132   8
  -1   9   0 161.084 291.187   8
   1  -9   0 319.771 387.730   4
  -1   9   0-0.50532 260.462  13
  -1  -9   0 440.065 372.561   4
   1   9   0 482.818 270.451  13
   1  -9   1 409.319 367.500  10
   1  -9   1 529.335 381.980   4
   1   9   1 822.157 430.348   8
  -1   9  -1 81.9178 96.8795   8
  -1  -9  -1 669.140 448.232   4
   1   9   2-155.878 189.726   8
  -1  -9  -2-226.715 288.862   4
   1  -9   2 203.459 342.976  10
   1  -9   2-181.084 362.568   4
   1   9   3-10.9444 47.3934   8
  -1  -9  -3 266.877 373.205   4
   1   9   4 2641.13 818.491   8
  -1   9  -4 3033.17 1427.34  12
  -1  -9  -4 2265.31 929.169   4
  -1   9  -4 3062.34 793.819   3
   1  -9   4 1292.84 1014.18  10
  -1  10   4 898.314 399.717   2
  -1  10   3-71.6781 238.507   2
  -1  10   3 239.071 183.872   8
   1 -10  -3 59.5926 257.667   4
  -1 -10   3 441.786 521.126   4
  -1  10   2 28.4615 144.303   8
   1  10  -2-212.002 342.077  13
   1 -10  -2 191.581 40.2126   4
  -1 -10   2 39.9179 208.963   4
  -1  10   1 19751.5 1953.74   8
   1  10  -1 20886.6 1955.04   8
  -1 -10   1 24415.1 2725.73   4
   1  10  -1 20223.1 1925.04  13
  -1  10   1 19796.8 1585.48  13
   1 -10  -1 24272.6 2754.84   4
   1 -10   0 8652.46 1586.21   4
  -1  10   0 8285.49 1180.53   8
   1  10   0 7246.74 1158.90   8
  -1 -10   0 8600.91 1650.21   4
   1  10   0 8416.77 1105.00  13
  -1  10   0 9227.96 1178.45  13
  -1  10  -1 1569.02 413.555  13
   1  10   1 2237.78 670.997   8
  -1 -10  -1 1574.76 728.233   4
   1 -10   1 1844.84 747.051   4
   1  10   2 1572.31 698.628   8
   1 -10   2 1673.11 684.334   4
   1 -10   2 1047.48 787.761  10
  -1 -10  -2 1045.95 596.279   4
   1 -10   3 2657.10 1253.56  10
  -1 -11   3 929.889 740.831   4
  -1  11   2 2653.03 781.394   8
  -1 -11   2 2463.79 876.053   4
  -1  11   1 6604.76 1229.67   8
   1  11  -1 6494.65 1119.49   8
  -1  11   1 5605.33 916.290  13
   1  11   0 1882.56 652.617   8
  -1  11   0 2419.64 607.877  13
  -1  11  -1-21.7231 119.299  13
   1 -11   1 376.634 421.141   4
   1 -11   2 614.909 69.5899   4
  -2   0   9-471.745 543.150  14
  -2   0   9-327.739 296.696  11
   2   0  -8 7187.25 1317.03   5
  -2   0   8 6508.61 1155.36  14
   2   0  -8 7436.88 1546.27  12
  -2   0   8 6527.88 1141.96  11
   2   0  -7 5280.01 1048.33   5
   2   0  -7 5437.49 1209.86  12
  -2   0   7 4134.57 845.070  11
  -2   0   7 5516.96 946.794  14
  -2   0   6 2095.90 960.403   9
   2   0  -6 5022.75 1073.49  12
  -2   0   6 3506.31 690.398  11
  -2   0   6 2712.50 653.579  14
  -2   0   5 38133.3 2019.13  14
   2   0  -5 36848.8 2282.80   5
  -2   0   5 40844.2 2043.29  11
   2   0  -4 248.614 147.681  12
   2   0  -4 238.698 186.138   9
  -2   0   4-52.4220 200.179   9
  -2   0   4 11.3907 270.508   6
  -2   0   4 408.511 183.488  11
  -2   0   4 142.078 159.170  12
  -2   0   4 106.155 81.9043  14
  -2   0   3 57828.6 3196.09   9
  -2   0   3 55575.5 3470.31   6
   2   0  -3 97326.9 3483.86   9
  -2   0   3 64068.6 2228.07  12
  -2   0   3 69604.7 2138.95  14
   2   0  -3 79675.4 2259.97  12
  -2   0   3 74215.8 2011.14  11
   2   0  -3 78126.7 1852.69  11
   2   0  -3 74532.3 2642.46   7
  -2   0   2 20303.9 1686.27   9
  -2   0   2 15665.8 898.453  14
  -2   0   2 17580.0 1216.99   7
   2   0  -2 15702.4 781.658  14
  -2   0   2 13853.6 1692.34   6
   2   0  -2 18740.4 1227.76   7
   2   0  -2 15836.1 782.173  11
   2   0  -2 15444.3 1502.68   6
  -2   0   1 8222.53 1065.57   9
  -2   0   1 7858.43 540.743  14
  -2   0   1 9007.85 440.151  13
   2   0  -1 10252.2 524.295  14
  -2   0   1 6276.18 515.659  12
   2   0  -1 8369.98 801.758   7
  -2   0   1 8448.96 772.942   7
   2   0  -1 8883.90 1026.05   6
  -2   0   1 6494.21 892.324   6
  -2   0   0 293556. 2683.88  14
   2   0   0 305165. 4172.82   5
   2   0   0 300354. 4566.87   7
   2   0   0 309340. 2178.28  14
  -2   0   0 316350. 4801.14   7
  -2   0   0 315058. 6657.33   6
   2   0   1 234244. 3755.50   8
   2   0   1 243553. 5988.63  12
   2   0   1 232862. 4419.99   7
  -2   0  -1 228858. 3835.85   5
   2   0   2 439913. 6792.38   7
   2   0   2 454250. 3681.48   2
   2   0   2 443508. 5183.84   8
   2   0   2 526406. 6330.93   4
  -2   0  -2 435672. 5912.88   5
  -2   0  -2 356996. 8367.93  12
   2   0   2 416423. 6999.71  10
   2   0   3 4205.17 868.896  10
  -2   0  -3 6133.20 760.585   5
   2   0   3 5573.97 598.347   8
   2   0   3 6380.48 658.505   4
   2   0   3 6742.30 704.266  11
  -2   0  -3 5513.47 1195.27  12
   2   0   3 4198.18 285.404   2
   2   0   4 1288.63 297.539   8
   2   0   4 1187.02 368.783  11
  -2   0  -4 1109.41 530.382  12
  -2   0  -4 1560.63 451.369   5
   2   0   4 832.124 383.222  10
  -2   0  -5 12458.1 1346.17   5
  -2   0  -5 12159.2 2112.25  12
   2   0   5 10305.4 1110.51  11
   2   0   5 9742.38 1896.06  10
  -2   0  -6 12855.8 1492.62   5
  -2   0  -6 9253.50 2001.71  12
   2   0   6 10428.6 1268.28  11
   2   0   6 9850.31 1858.37  10
  -2   0  -7 4563.23 1523.40  12
   2   0   7 4711.53 955.885  11
   2   0   7 4438.81 1380.81  10
  -2   0  -7 6450.26 1164.03   5
  -2  -1   9 4774.88 1128.12  14
  -2   1   9 4831.13 1042.54  14
  -2  -1   9 5741.46 1243.37  11
  -2   1   9 3982.44 948.929  11
   2   1  -8 698.741 340.869   5
   2   1  -8 708.742 486.377  12
  -2  -1   8 1131.42 462.262  14
   2  -1  -8 512.401 443.068  12
  -2   1   8 619.720 361.494  11
   2  -1  -8 956.832 465.286   5
  -2  -1   8 412.950 311.973  11
  -2   1   8 523.831 261.605  14
  -2   1   7 2982.81 728.853  11
  -2   1   7 3549.95 693.440  14
  -2  -1   7 3859.04 831.990  14
   2   1  -7 4461.11 1082.78  12
   2  -1  -7 2940.55 978.117  12
   2   1  -7 3328.93 789.535   5
   2  -1  -7 3191.65 793.440   5
  -2  -1   7 4480.18 891.685  11
  -2  -1   6 5410.07 1551.73   9
  -2   1   6 8089.98 1455.10   9
  -2  -1   6 16988.5 1593.08  14
  -2   1   6 15485.9 1350.64  14
   2   1  -6 15792.6 1636.24   5
   2  -1  -6 20073.2 2225.97  12
  -2   1   6 16485.1 1387.88  11
  -2  -1   6 16309.2 1620.16  11
   2  -1  -6 15791.8 1659.66   5
   2   1  -6 17579.7 1934.34  12
  -2  -1   5 12071.6 2216.27   9
  -2   1   5 18228.3 2229.72   9
  -2   1   5 18995.8 1310.67  11
  -2   1   5 19242.7 1327.64  14
  -2  -1   5 20394.8 1585.68  14
   2   1  -5 21015.8 1692.57   5
   2  -1  -5 20456.4 1701.54   5
   2   1  -5 29947.2 2096.18  12
   2  -1  -5 23582.9 2075.60  12
  -2  -1   5 19076.9 1536.52  11
   2  -1  -4 8849.79 1106.10  12
  -2   1   4 6712.69 1113.11   9
  -2  -1   4 6291.94 1521.14   6
  -2  -1   4 11166.4 1024.07  11
  -2   1   4 10148.0 816.674  11
  -2   1   4 8373.71 759.669  14
  -2  -1   4 13494.1 1191.34  14
  -2  -1   4 4771.45 905.451  12
   2   1  -4 12976.7 1148.61  12
  -2   1   4 9589.16 1145.49  12
  -2  -1   4 7032.05 1644.40   9
   2   1  -4 10180.7 1097.08   7
  -2   1   4 6165.32 1490.18   6
  -2   1   3 3854.02 588.173  12
  -2   1   3 3722.94 709.680   9
   2   1  -3 3660.34 581.982   7
  -2  -1   3 4277.68 588.455  14
   2   1  -3 3718.95 483.182  11
  -2  -1   3 1304.96 610.926   9
  -2   1   3 3528.66 378.770  11
  -2   1   3 2967.40 810.651   6
  -2  -1   3 2637.71 775.505   6
   2   1  -3 4192.88 479.080  12
  -2   1   3 3536.48 439.336  14
   2  -1  -3 3792.83 615.402   7
   2  -1  -3 4545.67 358.987  11
   2  -1  -2-19.0469 58.3672   2
  -2  -1   2 103.286 214.000   9
   2  -1  -2 136.972 198.950   6
   2   1  -2-59.1676 116.746   6
   2   1  -2 34.3481 71.0880   9
  -2  -1   2 176.125 125.551  14
  -2   1   2 196.325 222.668   9
  -2   1   2-5.03866 139.270   6
  -2  -1   2-202.649 178.265   6
   2  -1  -2-62.1735 82.7790   7
  -2  -1   2 114.717 118.631   7
   2  -1  -2 67.4801 28.1667  11
   2   1  -2 389.431 201.787   7
  -2  -1   1 30823.0 1444.26   7
  -2  -1   1 31547.4 1266.80  14
  -2   1   1 29803.4 1500.35   7
   2  -1  -1 36976.2 1283.50   2
  -2   1   1 33959.6 978.957  14
  -2  -1   1 24617.4 1936.70   9
   2   1  -1 35543.4 981.128  13
   2   1  -1 38069.9 1151.99  12
   2  -1  -1 31691.9 1500.76   7
   2   1  -1 31311.6 1471.48   7
  -2  -1   1 32548.7 1176.49  13
   2   1  -1 31983.1 1124.55  14
   2  -1  -1 32752.5 1966.21   6
   2   1  -1 36351.6 2098.93   6
   2   1  -1 39442.9 2226.26   9
  -2   1   1 28393.6 1832.84   6
  -2  -1   1 23641.1 1681.18   6
  -2  -1   0 93993.2 3609.48   9
  -2   1   0 94385.2 3483.58  12
   2   1   0 103319. 1817.87  14
   2  -1   0 105319. 2718.52   7
   2   1   0 101034. 2717.20   8
  -2   1   0 113213. 1450.06  14
  -2  -1   0 89451.8 2692.48  12
   2   1   0 103138. 2732.80   7
   2   1   0 136258. 3417.93  12
  -2  -1   0 106925. 2798.00   7
  -2   1   0 108366. 2828.70   7
   2  -1   0 111979. 2440.45   5
   2   1   0 110661. 2438.11   5
  -2   1   0 104075. 3773.51   6
  -2  -1   0 105870. 3794.96   6
   2  -1   0 117415. 2172.95   2
  -2  -1  -1 5600.61 881.686   9
   2   1   1 5977.68 377.106  14
   2   1   1 6158.26 667.337   8
  -2  -1  -1 6078.57 637.800   5
   2   1   1 7545.07 859.855   4
   2   1   1 8770.42 1117.34  12
   2  -1   1 7187.78 501.307   2
   2   1   1 6222.71 747.431   7
   2  -1   1 6194.49 697.609   7
  -2  -1  -1 4533.70 777.254  12
  -2   1  -1 5079.99 908.342  12
  -2   1  -1 6011.84 629.991   5
   2  -1   1 6968.95 514.240  11
  -2  -1  -2 129377. 4174.22   9
   2   1   2 136617. 3194.94   8
   2  -1   2 135127. 2495.68   8
   2   1   2 153222. 3641.98   4
   2  -1   2 130320. 3639.86   7
   2   1   2 121203. 3482.09  10
  -2  -1  -2 108802. 4492.82  12
  -2   1  -2 129379. 3209.31   5
  -2   1  -2 118273. 5137.27  12
  -2  -1  -2 132378. 3283.00   5
   2  -1   2 128207. 2664.24  11
   2  -1   2 129474. 2097.60   2
   2  -1   2 123978. 4120.02  10
  -2  -1  -3 7870.49 1378.34  12
  -2  -1  -3 11712.1 1280.96   9
   2   1   3 10007.8 915.423   4
   2  -1   3 9704.10 638.892   8
   2   1   3 10078.2 897.290   8
   2  -1   3 9751.54 891.581  11
   2   1   3 8379.83 381.540  14
   2  -1   3 12209.7 886.453   4
   2  -1   3 8583.63 1310.41  10
  -2   1  -3 9044.49 1582.41  12
  -2   1  -3 9192.07 961.804   5
  -2  -1  -3 9685.28 1003.90   5
   2   1   3 7702.18 1082.36  10
  -2   1  -4 33626.1 2073.65   5
  -2  -1  -4 39918.3 2401.94   9
   2  -1   4 32981.0 1177.75   8
   2   1   4 35361.5 1740.52   8
  -2  -1  -4 31818.4 3057.47  12
  -2   1  -4 33824.4 3309.11  12
  -2  -1  -4 34247.3 2076.04   5
   2  -1   4 34105.6 1876.23  11
   2   1   4 31766.3 1707.81  11
   2   1   4 32994.6 1019.31  14
   2   1   4 28604.8 2541.88  10
   2  -1   4 27031.4 2677.53  10
   2   1   5 3421.04 591.569   8
  -2   1  -5 1809.73 869.927  12
  -2  -1  -5 1576.60 814.877  12
   2  -1   5 4089.57 1426.04  10
   2  -1   5 3212.84 658.793  11
   2   1   5 2610.95 538.086  11
   2   1   5 5112.81 1396.42  10
  -2   1  -5 2454.86 660.893   5
  -2  -1  -5 2576.40 761.530   5
   2   1   6 2562.14 877.285  10
   2   1   6 2301.97 596.945  11
  -2  -1  -6 2491.68 1072.52  12
  -2   1  -6 3024.30 1155.35  12
   2  -1   6 2568.80 637.377  11
  -2   1  -6 3669.51 790.037   5
  -2  -1  -6 3466.04 824.503   5
   2  -1   6 2328.07 1005.27  10
  -2   1  -7 11694.0 1560.86   5
   2  -1   7 10764.3 1531.70  11
  -2  -1  -7 9911.17 2291.80  12
  -2  -1  -7 11854.3 1606.14   5
  -2   1  -7 11231.1 2349.43  12
   2   1   7 7881.46 1244.13  11
   2  -1   7 10070.3 2124.71  10
  -2   2   9 438.146 290.749  14
  -2   2   9 731.767 491.394  11
  -2  -2   9 1078.88 562.493  14
  -2   2   8 485.383 296.300  11
  -2  -2   8 142.278 152.877  14
   2  -2  -8-263.575 306.933   5
   2   2  -8-429.242 380.363   5
   2  -2  -8-190.945 246.078  12
  -2   2   8 563.880 363.663  14
  -2  -2   8 82.6631 126.056  11
   2  -2  -7 10321.4 1434.19   5
   2   2  -7 11786.9 1499.13   5
  -2  -2   7 10663.4 1484.84  11
  -2   2   7 9424.79 1145.40  14
   2  -2  -7 11369.0 1890.56  12
   2   2  -7 13693.3 1891.60  12
  -2  -2   7 11094.7 1480.47  14
  -2   2   7 10723.0 1199.40  11
   2  -2  -6 11449.5 1700.34  12
  -2   2   6 11411.2 1110.11  11
   2   2  -6 15631.7 1770.69   5
  -2   2   6 10773.7 1067.04  14
   2  -2  -6 15916.6 1807.88   5
   2   2  -6 14438.9 1746.60  12
  -2  -2   6 11741.2 1465.02  11
  -2  -2   6 11686.4 1417.17  14
  -2   2   5 4923.85 917.288   9
  -2  -2   5 4203.79 1423.42   9
   2  -2  -5 6527.46 979.186   5
   2   2  -5 6382.13 934.441   5
  -2   2   5 5963.87 713.819  14
  -2  -2   5 6902.36 1001.74  14
  -2  -2   5 6192.87 911.620  11
   2   2  -5 8664.22 1246.83  12
   2   2  -5 7083.04 994.532   7
  -2   2   5 6714.62 724.663  11
  -2  -2   4 33858.8 3926.42   9
  -2   2   4 50528.1 2523.74   9
  -2   2   4 44126.4 3783.72   6
  -2  -2   4 33582.9 3259.13   6
   2   2  -4 49983.4 2287.96   7
  -2  -2   4 50918.1 2438.15  14
  -2   2   4 43889.1 1688.93  14
  -2   2   4 48750.9 1621.81  11
  -2  -2   3 20152.7 2821.51   9
  -2   2   3 22121.3 2442.99   6
  -2  -2   3 20753.1 2334.60   6
  -2   2   3 36033.1 2068.47   9
  -2   2   3 27385.9 1179.41  14
  -2   2   3 25520.3 1213.16   2
  -2   2   3 32440.5 1988.23  12
   2   2  -3 30977.0 1631.01  12
  -2   2   3 26157.7 891.572  11
   2   2  -3 27228.6 1479.24   7
   2  -2  -3 27331.8 1756.71   7
  -2  -2   3 27382.9 1670.78  14
  -2   2   2 146938. 5081.63   6
  -2  -2   2 142937. 5061.97   6
  -2  -2   2 140644. 5918.41   9
  -2  -2   2 165450. 3315.49   7
   2   2  -2 168055. 3412.13   7
  -2   2   2 143772. 2785.38   2
  -2  -2   2 136187. 3424.84  14
   2  -2  -2 154939. 3816.87   7
   2   2  -2 152926. 2993.35   3
   2  -2  -2 153648. 4617.65   6
   2   2  -1 1545.65 281.576  13
   2  -2  -1 1323.28 407.553   6
   2   2  -1 1655.45 464.353   6
  -2  -2   1 1104.76 498.830   9
  -2  -2   1 1523.53 269.868   3
  -2   2   1 1105.97 371.716   6
  -2  -2   1 1395.89 425.379   6
  -2   2   1 1492.82 353.610   7
   2   2  -1 1485.24 318.205  14
  -2   2   1 2177.86 337.915   2
   2   2  -1 1276.65 302.930   8
   2   2  -1 1390.74 332.389  12
   2  -2  -1 1765.17 208.601   3
   2   2  -1 1455.04 308.983   7
  -2  -2   1 1694.31 333.591   7
   2  -2  -1 1099.39 244.110   7
  -2  -2   0 5172.29 975.872   9
   2   2   0 7604.68 1041.89   9
   2   2   0 7087.71 781.062   8
   2  -2   0 6992.16 441.135  11
  -2   2   0 6624.48 466.501   3
  -2   2   0 6938.43 580.102   2
  -2  -2   0 6998.38 850.104  12
   2   2   0 6675.49 699.205   7
   2   2   0 8289.30 862.628  12
  -2  -2   0 6240.84 711.861   7
   2  -2   0 6511.83 679.052   7
   2   2   0 5825.06 626.791   5
   2   2   0 5690.45 566.812  14
  -2   2   0 7211.51 737.817   7
   2  -2   0 7060.74 603.917   5
  -2   2   0 6059.06 931.508   6
  -2  -2   0 4519.14 915.611   6
  -2  -2  -1 57912.8 3125.97   9
   2   2   1 70407.0 2461.07   8
  -2   2  -1 73802.7 1824.85   2
  -2   2  -1 66015.8 3705.42  12
   2   2   1 72325.7 2618.01   7
  -2  -2  -1 56193.4 2923.04  12
   2  -2   1 69284.4 2361.20   7
  -2  -2  -1 70056.4 2190.92   5
  -2   2  -1 69922.3 2126.47   5
   2  -2   1 74532.1 1878.55  11
   2  -2   1 68009.3 2799.22  10
  -2   2  -2 88201.7 1666.70  14
  -2  -2  -2 71315.7 3276.26   9
  -2   2  -2 90340.8 1972.42   2
   2   2   2 84375.9 2789.26   8
   2  -2   2 88815.2 1763.53   8
   2  -2   2 88129.4 2888.25   7
  -2  -2  -2 75248.4 3772.91  12
  -2   2  -2 78787.8 4260.61  12
   2  -2   2 87830.8 2476.14  11
  -2   2  -2 86962.4 2627.65   5
  -2  -2  -2 88754.0 2702.65   5
   2  -2   2 77375.6 3477.21  10
   2   2   2 83874.3 2662.22  10
   2   2   3 85.7963 115.566  10
  -2   2  -3 240.326 219.105  12
   2   2   3 272.783 183.499   8
  -2  -2  -3-253.540 190.932   9
  -2   2  -3 232.357 238.745   5
  -2  -2  -3-211.164 328.098  12
   2  -2   3 14.7866 19.3352   8
  -2   2  -3 4.49072 35.3418  14
   2  -2   3-190.680 258.433  11
   2   2   3 76.6915 101.558   1
  -2  -2  -3-155.954 148.681   5
   2  -2   3 460.231 289.570  10
  -2  -2  -4 12476.2 1333.63   9
   2   2   4 12477.9 621.823  14
   2   2   4 13607.8 1194.51   8
  -2  -2  -4 12461.7 1960.27  12
  -2   2  -4 14156.7 2278.36  12
  -2   2  -4 12524.9 1242.74   5
  -2  -2  -4 13329.4 1303.59   5
   2  -2   4 14494.2 1335.37  11
   2   2   4 13989.2 1671.37  10
   2  -2   4 10312.0 1641.36  10
   2  -2   5 10111.7 1251.04  11
   2   2   5 9610.62 1037.44   8
  -2  -2  -5 8452.20 1801.39  12
  -2   2  -5 9372.79 1934.13  12
  -2   2  -5 8649.76 1127.91   5
  -2  -2  -5 11029.1 1311.01   5
   2   2   5 8118.72 946.362  11
   2   2   5 9173.15 1480.35  10
   2  -2   5 7952.20 1763.14  10
  -2  -2  -6 198.836 239.501  12
  -2   2  -6 179.725 282.922  12
  -2  -2  -6 111.829 291.390   5
   2  -2   6 85.8321 137.762  11
   2   2   6 265.240 220.952  11
  -2   2  -6 282.903 245.422   5
   2  -2   6 132.675 232.174  10
  -2  -2  -7 4272.92 1494.92  12
  -2   2  -7 4898.78 1580.39  12
   2   2   7 3264.71 791.954  11
   2  -2   7 5498.64 1115.50  11
   2  -2   7 3853.06 1406.86  10
  -2   2  -7 5604.35 1080.71   5
  -2  -2  -7 6135.55 1161.83   5
  -2   3   9 16939.0 1853.54  14
  -2   3   8 183.533 174.144  11
   2   3  -8 155.521 278.908   5
  -2  -3   8 368.222 332.033  11
  -2   3   8-266.451 215.281  14
   2  -3  -8-384.689 615.401   5
  -2  -3   7 3163.01 1303.80  10
   2  -3  -7 6240.90 1111.34   5
   2   3  -7 5742.25 1047.46   5
  -2  -3   7 6165.31 1184.63  11
   2   3  -7 6472.03 1169.25   7
  -2   3   7 6011.95 879.697  14
  -2  -3   7 6988.29 1215.08  14
   2   3  -7 8268.04 1530.54  12
  -2   3   7 6239.11 880.641  11
  -2  -3   6 1656.61 541.029  11
  -2   3   6 1162.00 275.886  11
  -2  -3   6 1812.85 532.124  14
   2   3  -6 1792.90 463.734   1
   2   3  -6 2842.07 821.093  12
   2   3  -6 1203.44 352.255   5
   2  -3  -6 1511.35 507.232   5
   2   3  -6 1376.83 471.128   7
  -2  -3   6 961.892 812.393  10
  -2   3   6 1446.21 363.850  14
  -2   3   5 10154.5 1136.95   9
  -2  -3   5 4274.73 1428.36   9
   2   3  -5 11121.1 1219.56   5
   2  -3  -5 11937.6 1340.15   5
  -2   3   5 8480.69 839.432  14
  -2  -3   5 12056.7 1378.61  14
   2   3  -5 17344.2 1884.49  12
   2   3  -5 11696.0 1184.46   7
  -2   3   5 11846.6 899.103  11
  -2  -3   5 4753.42 1367.95  10
  -2   3   4 2053.84 347.232   2
  -2   3   4 3066.39 637.914   9
  -2  -3   4 1690.74 979.227   9
  -2   3   4 2468.41 954.858   6
  -2  -3   4 1918.63 806.565   6
  -2  -3   4 2241.03 625.567  14
  -2   3   4 1934.70 287.761  11
  -2  -3   4 1155.99 746.301  10
   2   3  -4 2483.05 468.742   7
   2   3  -4 2793.90 695.663  12
  -2  -3   3 101699. 7057.48   9
  -2   3   3 138142. 6241.07   6
  -2  -3   3 88233.6 4914.69   6
  -2   3   3 139510. 1824.56  11
  -2   3   3 135350. 2949.36   2
   2   3  -3 177618. 4830.73  12
   2   3  -3 138376. 3180.00   7
   2  -3  -3 127085. 3983.68   7
  -2  -3   2 13178.5 2452.61   9
  -2   3   2 13015.6 1506.76   6
   2   3  -2 14506.4 1442.21   6
   2   3  -2 14495.9 1185.34   8
   2   3  -2 14430.0 960.359   7
  -2   3   2 12018.9 830.866   2
  -2  -3   2 12817.2 1477.79   6
  -2  -3   2 12163.1 875.393   7
   2  -3  -2 12292.5 1119.31   7
   2   3  -2 13404.1 980.936   3
   2  -3  -2 14698.1 1389.91   6
  -2  -3   1 135563. 6742.61   9
   2   3  -1 167545. 3216.40  13
   2   3  -1 163438. 3936.44   8
   2   3  -1 201472. 4525.28  12
   2   3  -1 165101. 3291.91   7
  -2  -3   1 163811. 3296.10   7
  -2   3   1 167383. 3076.63   2
  -2   3   1 162157. 1583.58  11
   2  -3  -1 191448. 5004.22   6
   2   3  -1 220682. 5346.39   6
   2  -3  -1 156912. 3560.16   7
   2  -3  -1 177845. 2777.02   3
  -2   3   1 154410. 4337.64   6
  -2  -3   1 133870. 4053.96   6
  -2   3   0 31692.9 1225.17   3
   2   3   0 28752.0 1524.22   7
   2   3   0 31640.6 1306.42   5
   2   3   0 30432.7 1731.54   8
  -2  -3   0 26523.1 1786.63   4
   2   3   0 36147.4 2046.79  12
  -2   3   0 31669.8 1599.45   7
  -2   3   0 31779.4 1300.77   2
   2  -3   0 31071.5 1141.85  11
   2  -3   0 29800.3 1490.41   7
  -2   3   0 29522.6 904.466  11
   2  -3   0 31598.1 1307.68   5
  -2   3   0 32405.5 2020.80   6
  -2  -3   0 27488.7 1919.24   6
   2  -3   1 87276.1 2369.37  11
  -2  -3  -1 67640.8 4010.96   9
   2   3   1 84697.8 2958.63   8
  -2  -3  -1 78318.8 3063.16   4
  -2  -3  -1 75748.5 3614.69  12
  -2   3  -1 73372.1 4194.21  12
  -2   3  -1 84363.8 2106.48   2
  -2   3  -1 83207.1 2353.65   5
  -2  -3  -1 82604.6 2362.06   5
  -2   3  -1 84886.2 1885.04  11
   2  -3   1 81737.8 2520.98   7
   2  -3   1 84669.4 3388.61  10
  -2  -3  -2 31755.1 2545.16   9
  -2  -3  -2 36834.6 2124.62   4
   2  -3   2 32878.9 940.782   8
   2   3   2 34989.1 1944.49   8
   2  -3   2 36990.0 1757.54  11
  -2  -3  -2 37152.3 1758.56   5
  -2   3  -2 37593.0 1726.94   5
   2  -3   2 34843.4 1807.40   7
  -2  -3  -2 35312.5 2879.94  12
  -2   3  -2 36805.0 3256.07  12
   2   3   2 35481.4 1756.96   1
  -2   3  -2 35991.2 1344.58   2
   2   3   2 37179.8 1604.49  10
   2  -3   2 28535.0 2348.68  10
  -2  -3  -3 10195.7 1451.65   9
  -2  -3  -3 12416.7 1139.40   5
   2   3   3 10974.7 1140.30   8
  -2   3  -3 10588.1 738.972  14
  -2  -3  -3 10148.3 1177.53   4
  -2  -3  -3 9843.60 1658.70  12
  -2   3  -3 9510.75 1729.49  12
  -2   3  -3 10354.3 1000.14   5
   2  -3   3 10682.4 1060.40  11
   2   3   3 12257.8 1191.54  10
   2  -3   3 7293.99 1384.40  10
  -2   3  -3 11918.5 764.935   2
   2   3   3 11457.4 925.567   1
  -2  -3  -4 16879.1 1697.38   9
  -2  -3  -4 21108.5 1663.09   5
   2  -3   4 20513.8 1653.83  11
   2   3   4 20291.2 1582.53   8
  -2   3  -4 19905.4 913.666   2
  -2  -3  -4 17558.7 2509.09  12
  -2   3  -4 22168.9 2860.63  12
  -2   3  -4 20845.2 1558.89   5
   2   3   4 22034.7 1886.08  10
   2  -3   4 16525.4 2266.65  10
  -2   3  -5 12646.8 1397.41   5
   2   3   5 13152.4 1352.19   8
  -2   3  -5 11257.4 2211.44  12
  -2  -3  -5 11539.6 2206.20  12
   2  -3   5 13867.6 2489.40  10
  -2  -3  -5 13406.0 1480.73   5
   2  -3   5 13932.7 1561.33  11
  -2   3  -6 1567.99 931.423  12
   2   3   6 1818.52 577.894   8
   2  -3   6 1573.16 522.306  11
  -2  -3  -6 1140.34 753.740  12
   2   3   6 2122.09 602.541  11
   2  -3   6 1758.38 988.749  10
  -2   3  -6 1705.39 577.335   5
  -2  -3  -6 1574.21 536.880   5
  -2  -3  -7 763.465 450.025   5
   2  -3   7-162.192 296.799  10
  -2   3  -7 902.922 443.910   5
  -2   4   8 3522.52 719.016  14
  -2  -4   8 1387.37 947.937  10
   2   4  -8 4641.26 1051.66   5
   2  -4  -8 4941.40 1051.05   5
   2   4  -7 6361.29 1085.69   5
  -2   4   7 4439.57 740.253  14
   2   4  -7 8847.71 1758.97  12
   2  -4  -7 7662.20 1243.16   5
  -2   4   7 6627.12 884.028  11
  -2  -4   7 3038.06 1293.35  10
   2   4  -6 29498.6 2032.93   1
  -2   4   6 13621.3 1158.41  14
   2  -4  -6 28974.5 2245.76   5
   2   4  -6 28061.0 1993.22   7
   2   4  -6 42125.9 3417.19  12
  -2   4   6 24153.5 1432.91  11
   2   4  -6 25905.1 2098.22   5
  -2  -4   6 15600.6 2690.26  10
  -2   4   5 4243.59 695.991   9
  -2  -4   5 1380.26 838.029   9
   2   4  -5 4322.57 710.140   8
  -2   4   5 3484.07 538.028   2
   2   4  -5 3891.91 756.706   1
   2   4  -5 4883.56 1042.48  12
   2   4  -5 3746.24 649.870   7
  -2   4   5 3864.67 478.288  11
   2   4  -5 3871.75 746.772   5
   2  -4  -5 3304.58 664.945   5
  -2   4   5 2898.72 487.796  14
  -2  -4   5 1540.22 986.003  10
  -2  -4   4 37044.9 4632.25   9
  -2   4   4 90208.5 5800.13   6
  -2  -4   4 46654.6 4076.57   6
   2   4  -4 76263.7 2935.02   8
   2   4  -4 80169.6 2560.40   7
   2  -4  -4 82111.3 1884.38  13
  -2   4   4 71560.2 2338.68   2
   2   4  -4 110603. 4860.18  12
  -2   4   4 77346.2 1830.41  11
  -2  -4   4 38437.6 3432.66  10
   2   4  -4 74725.8 3105.48   1
  -2  -4   3 18445.0 3202.80   9
  -2   4   3 34233.4 3087.99   6
  -2  -4   3 20388.7 2368.46   6
   2   4  -3 33922.2 1915.62   8
   2   4  -3 33936.9 1455.49   7
  -2   4   3 31878.8 1509.52   2
   2  -4  -3 30796.4 2035.94   7
  -2  -4   3 16657.4 2037.96  10
   2   4  -3 31481.8 1860.24   3
  -2  -4   2 231700. 11189.1   9
   2   4  -2 216134. 4376.55   3
  -2   4   2 207794. 5845.13   6
  -2  -4   2 192370. 5579.12   6
   2  -4  -2 207536. 4737.80   7
   2   4  -2 219667. 4866.00   8
  -2  -4   2 210085. 3482.07   7
  -2   4   2 173432. 3368.82   2
   2   4  -2 217346. 3515.32   7
   2  -4  -2 217951. 5262.12   6
   2   4  -2 251133. 5761.42   6
  -2  -4   1 9308.80 2118.40   9
  -2  -4   1 12793.1 938.936   7
  -2   4   1 13032.9 1300.63   6
   2   4  -1 12438.8 1146.24   8
  -2  -4   1 11657.9 1235.47   4
   2   4  -1 12262.2 954.030  13
   2   4  -1 13514.8 945.546   7
   2  -4  -1 12410.1 1040.29   7
  -2   4   1 12402.2 640.074  11
   2   4  -1 18371.2 1498.77  10
  -2   4   1 12834.0 905.432   2
   2   4  -1 18292.3 1565.45   6
   2   4  -1 20555.5 1654.23   6
   2  -4  -1 12168.7 876.941   3
  -2  -4   1 9117.06 1085.83   6
  -2  -4   0 53477.8 4875.25   9
  -2   4   0 66571.8 2045.14   3
  -2  -4   0 58008.8 2884.69   4
   2   4   0 57842.5 2576.84   8
   2  -4   0 57007.4 2107.42   7
   2  -4   0 62120.0 1806.57   5
   2   4   0 58638.9 1804.69   5
  -2   4   0 57446.7 1541.42  11
  -2   4   0 61103.0 2035.64   2
   2   4   0 59105.8 2577.82   1
   2  -4   0 66604.7 2926.77  10
  -2   4   0 63358.5 2797.19   6
  -2  -4   0 48547.2 2441.39   6
  -2  -4  -1 32259.4 3552.82   9
   2  -4   1 35868.5 1384.17   8
   2   4   1 32896.7 1966.36   8
  -2  -4  -1 32764.2 2178.92   4
   2   4   1 34905.2 1966.04   1
   2  -4   1 32724.7 1594.29   7
   2  -4   1 35079.9 1659.18  11
  -2   4  -1 32164.4 1444.13   5
  -2  -4  -1 30519.4 1462.66   5
  -2   4  -1 35043.3 1531.27   2
  -2   4  -1 32797.1 1608.29   3
   2  -4   1 34945.4 2398.59  10
  -2  -4  -2 14636.1 2280.86   9
  -2   4  -2 12394.1 854.669   2
   2   4   2 13724.9 1186.51   1
   2  -4   2 12015.4 626.230   8
   2   4   2 13301.4 1290.33   8
  -2  -4  -2 12590.2 1399.23   4
   2  -4   2 12822.7 1649.02  10
  -2   4  -2 13613.5 2196.69  12
   2  -4   2 14390.6 1125.37   7
   2   4   2 12248.1 719.202  10
  -2   4  -2 12735.5 1019.49   5
  -2  -4  -2 13765.8 1082.60   5
   2  -4   2 14171.3 1225.35  11
   2  -4   3 256.380 307.743  11
  -2  -4  -3 225.115 243.074   9
  -2   4  -3 416.957 164.400   2
   2   4   3 86.8509 99.3801   8
  -2   4  -3 102.342 38.1166   5
  -2  -4  -3 16.1822 42.4326  12
   2   4   3 127.058 107.557   1
  -2   4  -3 89.2236 178.750  12
  -2  -4  -3 29.5275 89.8445   4
   2   4   3 124.603 104.289  10
   2  -4   3 38.2051 213.999  10
  -2  -4  -3 31.4890 152.104   5
  -2   4  -4 22890.7 1125.52   2
   2   4   4 21898.7 1782.56   8
  -2  -4  -4 23172.4 2049.65   4
  -2  -4  -4 21220.1 2877.64  12
  -2   4  -4 21700.9 2896.36  12
  -2   4  -4 22902.1 1679.40   5
  -2  -4  -4 24481.4 1792.71   5
   2  -4   4 24757.7 1987.95  11
   2  -4   4 20297.0 2611.79  10
   2   4   5 7478.34 1072.69   8
  -2  -4  -5 6627.27 1103.66   4
  -2   4  -5 7834.51 1935.29  12
  -2  -4  -5 5228.19 1614.23  12
  -2   4  -5 7126.89 1029.05   5
  -2  -4  -5 7574.24 1096.28   5
   2  -4   5 7838.46 1237.94  11
   2  -4   5 5227.30 1528.57  10
  -2   4  -6 697.329 263.690   5
   2   4   6 948.470 419.227   8
  -2  -4  -6 1175.88 823.649  12
  -2   4  -6 1746.68 992.465  12
   2  -4   6 1235.08 539.743  11
   2  -4   6 388.896 598.040  10
  -2  -4  -6 1790.41 596.781   5
  -2   5   8 793.087 397.841  14
   2   5  -8 668.092 383.081   5
   2  -5  -8 216.354 219.916   5
   2  -5  -7 310.685 413.791   4
  -2   5   7 107.049 186.582  14
   2   5  -7-112.590 259.285   5
   2  -5  -7-220.496 175.120   5
  -2  -5   7 623.906 807.301  10
  -2   5   6 974.823 239.941   2
  -2   5   6 1555.90 450.108  14
  -2  -5   6 1477.37 920.749  10
   2   5  -6 1298.26 456.335   1
  -2   5   6 1446.76 319.030  11
   2   5  -6 1910.46 777.006  12
   2   5  -6 1395.02 496.505   5
   2  -5  -6 1902.69 552.180   5
  -2   5   5 1153.29 319.258   2
   2   5  -5 973.868 381.375   1
   2   5  -5 892.505 339.473   8
   2   5  -5 658.142 457.417  12
   2   5  -5 822.302 379.511   5
   2  -5  -5 1280.92 442.941   5
  -2   5   5 1130.58 293.850  11
  -2  -5   5 1138.23 686.916  10
  -2  -5   4 2645.71 1336.89   9
   2   5  -4 9764.60 1087.70   8
   2   5  -4 9625.05 1203.66   1
   2   5  -4 9139.31 1014.08   5
   2  -5  -4 10102.8 1079.80   5
  -2   5   4 9896.74 915.020   2
   2   5  -4 11249.5 824.629   7
   2   5  -4 13170.0 1848.98  12
   2   5  -4 9304.32 1167.49   3
  -2  -5   4 5600.74 1404.32  10
  -2   5   3 15600.9 2012.21   6
  -2  -5   3 7781.14 1370.34   6
  -2  -5   3 7340.67 2092.10   9
   2   5  -3 14959.3 1327.76   8
   2   5  -3 14510.3 830.390   7
   2   5  -3 13950.5 1400.49   1
   2  -5  -3 11786.3 1322.66   7
  -2   5   3 12766.0 996.554   2
  -2  -5   3 5386.34 1234.89  10
   2   5  -3 14097.6 1312.97   3
  -2  -5   2 3914.73 461.874   7
  -2   5   2 5130.74 995.302   6
  -2  -5   2 4954.58 964.388   6
   2   5  -2 4640.58 710.925   3
  -2  -5   2 3507.29 1492.73   9
   2   5  -2 4757.46 507.926   7
   2   5  -2 4500.07 745.310   8
   2  -5  -2 4465.29 741.322   7
  -2   5   2 4018.50 392.979  13
  -2   5   2 3772.92 547.698   2
  -2  -5   2 3621.18 758.841   4
   2   5  -2 4110.75 770.993   1
   2  -5  -2 4960.83 789.400   6
   2   5  -2 6054.97 892.262   6
  -2   5   1 21485.4 1742.65   6
  -2  -5   1 12795.6 2684.77   9
  -2  -5   1 14189.4 1408.32   6
  -2   5   1 17346.2 930.009  11
   2   5  -1 18282.4 1504.70   8
  -2  -5   1 15433.7 1628.82   4
   2   5  -1 18677.5 1583.11   1
   2   5  -1 17826.6 1274.97  13
  -2  -5   1 17788.9 1114.00   7
   2  -5  -1 17221.8 1280.64   7
   2  -5  -1 17034.9 969.158   5
   2   5  -1 17150.3 961.482   5
  -2   5   1 18181.3 1215.49   2
  -2  -5   0 1661.36 918.102   9
  -2  -5   0 2108.01 525.500   6
   2   5   0 2915.88 491.714  13
   2   5   0 2962.56 597.880   1
   2   5   0 2624.86 598.226   8
  -2   5   0 2459.81 436.753   2
   2  -5   0 2425.21 372.823   5
   2   5   0 2465.34 353.628   5
  -2  -5   0 2311.11 649.728   4
   2  -5   0 2664.30 491.943   7
   2   5   0 4143.31 611.003  10
  -2   5   0 2602.39 573.889   6
   2  -5   0 3129.92 691.498  10
  -2  -5  -1 2448.16 687.693   6
  -2  -5  -1 2871.05 1313.22   9
  -2   5  -1 2256.81 414.679   2
   2   5   1 2893.21 592.260   8
  -2   5  -1 2591.73 499.999   3
   2  -5   1 2469.71 406.771   8
  -2  -5  -1 3005.14 735.578   4
   2   5   1 2533.30 558.876   1
   2  -5   1 2773.40 438.754   7
  -2   5  -1 2390.26 500.487   7
   2   5   1 2608.06 271.923  10
  -2   5  -1 3532.95 793.301   6
   2  -5   1 2499.28 638.462  10
  -2  -5  -2 13522.7 2661.58   9
   2   5   2 18642.9 1612.36   8
   2  -5   2 18109.5 892.869   8
  -2  -5  -2 18806.0 1846.74   4
   2  -5   2 18689.5 2151.49  10
  -2   5  -2 20128.4 2718.35  12
   2  -5   2 17485.3 1261.41   7
  -2   5  -2 18789.5 1227.09   5
   2  -5   2 19906.4 1537.06  11
  -2  -5  -2 19018.2 1290.58   5
  -2   5  -2 18477.1 1205.31   2
   2   5   2 20175.2 1552.46   1
  -2   5  -2 18376.2 1468.69   3
  -2  -5  -3 146.958 284.723   9
  -2   5  -3 112.614 103.691   2
  -2   5  -3 356.704 501.834  12
  -2  -5  -3 78.3291 159.401   4
   2  -5   3 92.7980 175.626  11
   2   5   3-136.422 176.555   8
   2  -5   3-166.874 220.229  10
  -2   5  -3 66.8909 173.324   5
  -2  -5  -3 444.775 308.043   5
  -2  -5  -4 17820.7 1921.00   4
   2   5   4 17133.4 1706.13   8
   2  -5   4 18557.1 1825.90  11
  -2   5  -4 18932.2 2938.67  12
  -2  -5  -4 19894.5 1644.28   5
  -2   5  -4 17086.3 1086.97   2
   2  -5   4 12565.8 2200.71  10
  -2   5  -4 17667.9 1464.98   5
   2   5   5 646.295 414.282   8
  -2  -5  -5 777.474 554.723   4
  -2  -5  -5 684.671 607.481  12
  -2   5  -5 91.7216 223.403  12
   2  -5   5 1152.17 460.861  11
   2  -5   5-43.9094 345.741  10
  -2   5  -5 605.457 333.496   5
  -2  -5  -5 1134.20 554.029   5
  -2   5  -6 724.025 692.081  12
   2  -5   6 1230.91 535.877  11
   2   5   6 796.783 378.230   8
  -2  -5  -6 637.139 600.383  12
   2  -5   6 832.275 806.972  10
  -2   5  -6 1448.34 524.477   5
  -2  -5  -6 1442.33 589.554   5
   2   6  -8 397.576 308.051   5
   2  -6  -8 649.281 474.205   5
   2  -6  -7 1787.34 706.524   4
  -2  -6   7 685.165 787.549  10
   2   6  -7 1053.19 440.195   5
   2  -6  -7 1604.33 501.144   5
  -2   6   7 2165.10 540.727  14
   2   6  -6 3169.89 1034.31   5
   2  -6  -6 16477.3 2380.31   4
   2  -6  -6 4536.55 1309.03   5
  -2   6   6 684.479 637.846   2
   2   6  -6 660.731 508.781  12
   2   6  -6 12630.1 1921.81   3
   2   6  -6 9701.20 1408.88   1
  -2  -6   6 1332.80 1852.23  10
   2   6  -5 4735.20 906.736   1
   2  -6  -5 6265.52 949.407   5
  -2  -6   5 2381.25 1031.07  10
  -2   6   5 4712.26 685.857   2
   2   6  -5 7223.74 1544.33  12
   2   6  -5 5936.77 1087.31   3
   2   6  -5 6034.71 872.278   5
   2   6  -4 374.470 127.139   5
   2   6  -4-143.816 250.685   8
   2   6  -4 480.162 276.389   3
  -2   6   4 659.906 241.249   2
   2   6  -4-64.3660 213.275   1
   2   6  -4 355.683 342.413  12
   2  -6  -4 128.763 155.513   5
  -2  -6   4-200.962 415.099  10
   2   6  -3 11598.6 1299.47   3
  -2  -6   3 4245.79 1616.47   9
  -2  -6   3 6015.66 1193.96   4
   2   6  -3 12419.6 1398.90   1
   2   6  -3 12810.2 1276.89   8
   2  -6  -3 11926.2 1043.19   5
   2  -6  -3 10217.1 1272.20   7
  -2   6   3 12257.3 1049.00   2
  -2  -6   3 6483.47 1467.71  10
  -2  -6   2 252.611 483.169   9
   2  -6  -2 52.6382 118.967   6
  -2   6   2 313.407 179.848  13
  -2   6   2 426.059 267.377   6
  -2  -6   2-0.35280 49.5058   6
   2   6  -2-0.21815 242.748  13
  -2   6   2 139.899 43.3242   2
  -2  -6   2-35.9707 104.261   4
   2   6  -2 544.763 276.541   1
   2  -6  -2 214.064 76.1163   7
   2   6  -2 73.9477 266.593   8
   2  -6  -1 270.296 109.479   5
  -2  -6   1 310.498 538.152   9
  -2   6   1 362.196 197.312   6
  -2  -6   1-24.8189 93.3857   6
   2   6  -1 273.458 226.055  13
   2   6  -1 547.920 316.741   8
  -2  -6   1 418.301 233.508   4
  -2   6   1 596.775 247.519   2
   2   6  -1 784.664 334.310   1
  -2  -6   1 304.186 119.098   7
   2  -6  -1 280.010 188.404   7
   2  -6  -1 236.949 216.394  10
   2   6   0 5519.62 897.583   1
   2   6   0 7758.35 766.139  10
  -2  -6   0 3474.94 1396.30   9
   2  -6   0 6137.42 1087.77  10
   2   6   0 4648.96 789.740   8
   2   6   0 5549.13 747.220  13
   2  -6   0 4995.51 529.111   5
   2  -6   0 5623.46 679.660   7
  -2  -6   0 4176.56 998.363   4
  -2   6   0 5108.79 691.501   2
  -2   6   0 7442.61 916.753   6
  -2  -6   0 4396.77 731.831   6
  -2  -6  -1 10620.2 2339.23   9
  -2   6  -1 16621.6 1368.16   3
   2   6   1 14784.3 1499.54   8
  -2  -6  -1 13409.7 1622.29   4
   2  -6   1 15576.1 1076.12   7
   2  -6   1 14381.1 1867.59  10
   2   6   1 15789.9 1535.51   1
  -2   6  -1 19763.4 1763.32   6
  -2  -6  -1 17492.8 1614.41   6
  -2   6  -1 15412.4 1199.47   2
   2  -6   2 50813.7 2017.35   7
   2   6   2 52136.9 2927.14   8
  -2  -6  -2 51209.9 3318.45   4
  -2   6  -2 50959.5 2067.17   5
  -2  -6  -2 49451.7 2096.37   5
   2  -6   2 46061.6 3618.99  10
  -2   6  -2 53649.9 2197.52   2
  -2   6  -2 55683.6 2713.81   3
  -2   6  -3 786.979 256.699   5
  -2  -6  -3 365.328 311.443   5
  -2   6  -3 469.552 298.388   3
   2   6   3 774.148 364.484   8
   2  -6   3 333.620 253.018   4
  -2   6  -3 863.323 609.030  12
  -2  -6  -3 238.779 311.259   4
  -2   6  -3 395.565 189.182   2
   2  -6   3 307.913 116.183  10
   2   6   4 81.1126 207.117   8
  -2   6  -4 151.568 423.188  12
  -2  -6  -4-86.6357 290.000   4
   2  -6   4 359.973 107.059  11
   2  -6   4 590.077 468.980  10
  -2   6  -4 335.777 292.786   5
  -2  -6  -4 84.9402 207.842   5
   2   6   5 5592.03 1040.53   8
  -2   6  -5 6341.65 982.016   5
  -2  -6  -5 7115.21 1078.07   5
  -2   6  -5 5720.98 1712.55  12
   2  -6   5 6529.87 1252.43  11
  -2  -6  -5 5635.71 1187.43   4
   2  -6   5 5510.64 1728.31  10
   2   6   6 4316.93 974.428   8
   2  -6   6 4838.21 1203.13  11
  -2   6  -6 3644.67 830.163   5
  -2  -6  -6 4845.09 940.626   5
   2  -7  -7 4430.71 1201.94   4
  -2   7   6 636.315 249.832   2
   2   7  -6-453.459 451.660   3
   2  -7  -6 676.762 535.182   4
  -2  -7   6 1408.26 1037.40  10
   2  -7  -5 4026.64 1123.66   4
   2   7  -5 4868.09 1041.31   3
  -2   7   5 3789.66 627.863   2
   2   7  -5 5598.70 1505.04  12
  -2  -7   5 1683.93 976.785  10
   2   7  -5 4677.78 904.573   1
   2   7  -4 9447.78 1337.87   3
   2   7  -4 7841.72 1037.35   8
  -2   7   4 8171.63 941.659   2
   2   7  -4 8197.92 1230.11   1
  -2  -7   4 4574.13 1396.25  10
   2   7  -3 6521.48 1091.72   3
   2   7  -3 5116.05 946.245   1
   2   7  -3 6086.59 926.503   8
   2  -7  -3 4802.32 894.941   7
  -2  -7   3 4404.52 968.971   4
  -2   7   3 5866.81 843.836   2
  -2  -7   3 2605.64 940.773  10
  -2  -7   2 206.287 273.941   9
   2   7  -2 187.888 150.645   8
   2   7  -2 478.664 323.121   1
  -2   7   2 655.205 306.621   2
   2   7  -2-394.764 256.241  13
  -2   7   2 252.223 157.388  13
  -2  -7   2 187.994 295.070   4
   2  -7  -2 39.4993 231.980   7
   2  -7  -2 87.9331 167.947  10
  -2  -7   1 1681.40 1066.67   9
   2   7  -1 2877.39 742.009   1
  -2  -7   1 2210.49 769.133   4
   2   7  -1 2522.76 592.363   8
  -2   7   1 3512.66 537.011  13
   2   7  -1 2963.41 600.878  13
  -2   7   1 3117.79 569.047   2
   2  -7  -1 3073.47 576.861   7
   2  -7  -1 3581.37 849.409  10
  -2  -7   0 257.131 588.498   9
   2   7   0 403.601 304.827   8
   2  -7   0 36.0534 138.038   7
   2   7   0 411.760 280.986  13
  -2   7   0 33.0198 96.2571   2
  -2  -7   0 230.611 312.209   4
   2   7   0 136.385 211.469   1
   2  -7   0 102.666 350.130  10
   2  -7   1 14772.7 1997.21  10
  -2   7  -1 19819.9 1597.79   3
   2   7   1 16474.8 1688.78   8
  -2  -7  -1 14784.2 1971.82   4
  -2   7  -1 15508.6 1286.02   2
  -2   7  -2 8640.09 1152.41   3
   2  -7   2 8967.58 1329.03   4
   2   7   2 7989.42 1212.32   8
  -2  -7  -2 7191.11 1314.19   4
   2  -7   2 6532.90 1522.60  10
  -2   7  -2 7519.20 891.226   2
   2  -7   3 6091.01 1050.70   4
   2   7   3 6180.34 1069.02   8
  -2   7  -3 5617.79 1728.54  12
  -2  -7  -3 7300.09 1338.27   4
  -2   7  -3 7213.81 855.831   2
  -2   7  -3 6339.47 1017.79   3
   2  -7   3 4425.32 1331.36  10
   2   7   4 13172.3 1629.48   8
  -2  -7  -4 11547.7 1811.13   4
  -2   7  -4 13340.5 2783.00  12
   2  -7   4 10620.6 2363.72  10
  -2   7  -4 11261.5 1551.21   3
  -2   7  -5 4096.46 959.133   3
   2   7   5 5686.26 1171.09   8
  -2   7  -5 3994.03 1561.73  12
  -2  -7  -5 6557.00 1399.94   4
   2  -7   5 3495.60 1546.13  10
  -2   8   6 193.318 328.992   2
  -2  -8   6 1570.92 1625.70  10
   2   8  -5 1391.80 964.174  12
   2  -8  -5 1575.70 714.336   4
  -2   8   5 1089.08 387.287   2
   2   8  -5 1379.40 651.954   3
  -2  -8   5-258.535 501.597  10
   2   8  -4 564.360 345.331   3
  -2   8   4 302.414 273.935   2
   2  -8  -4-47.6935 143.083   7
  -2  -8   4 131.115 479.019  10
   2   8  -4-26.1442 117.143   1
   2  -8  -3 6928.07 1381.72   4
   2   8  -3 7769.83 1219.77   3
   2   8  -3 5935.62 926.583   8
  -2  -8   3 6183.44 1212.19   4
   2   8  -3 6544.14 1167.37   1
  -2   8   3 6474.27 933.377   2
  -2  -8   3 2536.05 1035.17  10
   2  -8  -3 5043.38 936.664   7
  -2   8   2 485.187 244.414  13
   2   8  -2 165.221 164.471  13
   2   8  -2 287.700 284.421   8
  -2   8   2 420.649 297.930   2
  -2  -8   2 5.27623 269.335   4
   2  -8  -2-33.6523 174.862   7
   2   8  -2 480.863 394.299   1
   2  -8  -2 28.0523 151.596  10
   2  -8  -1 569.594 462.248   4
  -2   8   1 61.6539 146.931  13
   2   8  -1 490.491 327.824  13
  -2   8   1 528.955 249.414   2
   2   8  -1 271.446 302.641   1
  -2  -8   1 61.3689 309.213   4
   2   8  -1 347.198 239.934   8
   2  -8  -1 118.567 209.374  10
   2   8   0 1662.67 521.952   8
   2   8   0 1962.12 513.270  13
   2  -8   0 891.640 534.203   4
  -2  -8   0 1483.29 723.367   4
  -2   8   0 1607.57 411.585   2
   2  -8   0 2051.49 812.078  10
   2  -8   1 9439.76 1479.07   4
   2   8   1 9466.40 1321.80   8
  -2  -8  -1 7417.65 1452.68   4
   2  -8   1 7106.43 1521.45  10
  -2   8  -1 8604.10 1025.33   2
   2  -8   2 24428.7 2339.00   4
   2   8   2 20529.0 2012.74   8
  -2   8  -2 24532.4 2029.73   3
  -2  -8  -2 21564.2 2472.35   4
   2  -8   2 17119.8 2479.64  10
  -2   8  -2 21914.2 1639.33   2
  -2   8  -3 1304.41 459.595   3
   2   8   3 1178.23 532.756   8
  -2  -8  -3 1022.66 524.959   4
  -2   8  -3 497.643 242.799   2
  -2   8  -3 328.591 408.186  12
   2  -8   3 829.215 546.009  10
  -2   8  -4 342.137 158.297   3
   2   8   4 401.149 57.0764   8
  -2  -8  -4 141.255 218.142   4
  -2   8  -4-15.9335 198.383  12
   2  -8   4 213.613 617.529  10
  -2  -8  -5 3951.18 1125.43   4
   2  -9  -5 3539.26 1026.92   4
  -2   9   5 3035.51 686.370   2
   2  -9  -5 3160.11 920.054   7
  -2  -9   5 1858.95 1254.47  10
   2   9  -4 4760.05 1063.72   3
  -2   9   4 3418.87 688.612   2
   2  -9  -4 3352.75 1021.06   4
   2  -9  -4 3279.83 884.932   7
  -2  -9   4 1475.59 844.084  10
   2   9  -3 2302.39 667.751  13
   2  -9  -3 2986.64 990.146   4
   2   9  -3 2930.84 707.918   8
  -2   9   3 2786.57 682.254   2
  -2  -9   3 1971.08 811.177   4
   2   9  -2 120.722 167.521   8
   2   9  -2-342.003 232.829  13
  -2   9   2 100.421 169.443   2
  -2  -9   2 366.757 422.588   4
   2  -9  -1 10939.1 1777.07   4
   2   9  -1 8445.03 1242.00   8
   2   9  -1 8798.02 1106.45  13
  -2  -9   1 8299.91 1639.06   4
  -2   9   1 10082.9 1172.62   2
  -2   9   1 9086.66 1022.07  13
  -2   9   0 370.756 210.276   2
   2   9   0 32.0010 183.950   8
   2  -9   0 1016.70 666.435   4
  -2  -9   0 355.099 306.602   4
   2  -9   0 421.536 485.250  10
   2   9   1 186.103 270.973   8
   2  -9   1 333.214 144.084   4
  -2   9  -1 180.422 132.683   2
  -2  -9  -1 314.675 295.425   4
   2  -9   1 225.320 458.486  10
   2  -9   2 2012.80 718.741   4
   2   9   2 2585.27 779.243   8
  -2   9  -2 1908.22 523.945   2
  -2  -9  -2 3019.05 949.924   4
   2  -9   2 1823.62 892.156  10
  -2   9  -3 1587.26 544.973   3
   2   9   3 1102.59 442.119   8
  -2   9  -3 926.193 314.890   2
  -2   9  -3 575.904 688.052  12
  -2  -9  -3 970.173 614.994   4
   2  -9   3 900.247 779.206  10
  -2  10   3 1934.53 590.014   2
  -2 -10   3 1803.88 698.047   4
   2  10  -2 18669.9 1926.39   8
  -2 -10   2 23915.8 2853.36   4
   2  10  -2 19897.8 2057.90  13
  -2  10   2 17056.3 1707.57   2
   2 -10  -1 445.635 517.697   4
   2  10  -1 1128.74 504.824  13
  -2  10   1-236.298 252.213   2
  -2 -10   1-46.6841 439.010   4
   2  10  -1 338.915 352.859   8
   2 -10   0 10694.7 1766.68   4
   2  10   0 10127.0 1481.09   8
  -2 -10   0 9277.91 1822.44   4
  -2  10   0 10140.8 1256.32  13
  -2  10   0 9254.40 1220.10   2
   2  10   1 3283.17 862.311   8
   2 -10   1 3587.09 1036.43   4
  -2  10  -1 2621.11 644.787   2
  -2 -10  -1 4245.32 1290.13   4
   2 -10   2 58.2869 495.264   4
  -2  10  -2 281.568 275.884   2
  -2  10  -3 448.363 224.691   2
   2  11  -1 11163.7 1636.87   8
  -3   0   9 152.310 131.482  14
   3   0  -9 1383.79 635.430   7
   3   0  -8 12169.5 1768.07   5
  -3   0   8 11725.6 1592.42  14
  -3   0   8 12281.4 1578.42  11
   3   0  -8 12461.5 1884.26   7
   3   0  -7 13428.8 1727.23   5
  -3   0   7 13195.7 1545.90  14
  -3   0   7 13036.7 1477.43  11
   3   0  -7 13411.4 1774.20   7
  -3   0   6 825.023 420.141   9
  -3   0   6 930.283 783.087   6
  -3   0   6 715.921 303.315  14
   3   0  -6 1672.44 572.697  12
  -3   0   6 1294.01 413.239  11
   3   0  -6 1727.80 552.251   7
  -3   0   5 1796.84 803.981   9
  -3   0   5 1944.19 1094.99   6
  -3   0   5 1550.34 498.451  12
  -3   0   5 2216.46 508.267  14
   3   0  -5 3397.62 755.215   7
  -3   0   4 6499.87 1353.92   9
  -3   0   4 7286.78 1494.16   6
  -3   0   4 4293.39 607.260  12
  -3   0   4 10314.5 1027.17  14
   3   0  -4 9804.45 1184.04   7
  -3   0   3 215466. 7569.67   6
  -3   0   3 214753. 6944.74   9
  -3   0   3 195856. 4101.35  14
   3   0  -3 236415. 5398.15   7
   3   0  -3 179502. 2353.47  13
   3   0  -3 215715. 3386.86  11
  -3   0   2 90526.4 4350.96   9
  -3   0   2 86989.9 2431.37  14
   3   0  -2 89721.5 3144.03   7
   3   0  -2 85825.1 1265.43   3
  -3   0   1 1587.14 593.382   6
  -3   0   1 1974.69 632.546   9
   3   0  -1 2478.48 294.972  14
  -3   0   1 2121.49 325.231  14
  -3   0   1 2344.19 294.639  13
  -3   0   1 1984.55 405.268  12
   3   0  -1 1770.92 444.755   7
  -3   0   0 65473.0 3572.62   9
  -3   0   0 58441.8 1528.42  14
  -3   0   0 45343.0 2509.25  12
   3   0   0 58586.5 2550.26   7
   3   0   0 73232.0 3357.69  12
  -3   0   0 59624.3 3510.52   6
  -3   0  -1 509.387 225.732   5
   3   0   1 454.704 308.840   7
   3   0   1 398.980 255.273   8
   3   0   2 4542.03 659.040   8
   3   0   2 5139.23 887.604   7
  -3   0  -2 2849.12 857.637  12
  -3   0  -2 4180.80 678.362   5
   3   0   2 3688.38 826.176  10
  -3   0  -3 3105.05 667.282   5
   3   0   3 2421.18 506.375   8
  -3   0  -3 2994.17 951.305  12
   3   0   3 2717.77 592.605  11
   3   0   3 1757.54 633.849  10
  -3   0  -4 5493.11 966.114   5
   3   0   4 7506.35 851.724   8
  -3   0  -4 4406.25 1282.22  12
   3   0   4 5349.93 751.287  11
   3   0   4 7464.69 1491.83  10
   3   0   5 4445.03 791.140  11
  -3   0  -5 5833.01 1035.42   5
  -3   0  -5 4806.49 1449.38  12
   3   0   5 4976.26 1276.43  10
  -3   0  -6 9815.06 2273.75  12
  -3   0  -6 13154.1 1685.04   5
   3   0   6 11490.8 1396.16  11
   3   0   6 11480.4 2151.49  10
  -3   1   9 4002.20 1005.47  14
  -3  -1   9 4384.28 1133.70  11
  -3  -1   9 4597.37 1098.49  14
   3   1  -9 4412.58 1140.10   7
  -3   1   8 174.882 307.819  14
  -3  -1   8 63.5026 161.573  14
  -3  -1   8 124.505 226.713  11
  -3   1   8 34.0205 128.649  11
   3   1  -8 931.846 471.617   5
   3  -1  -8-165.082 177.216   5
   3   1  -8 277.293 369.775   7
   3  -1  -8 182.656 163.507   7
  -3   1   7-143.602 212.401  14
  -3  -1   7 302.089 539.088   9
  -3  -1   7 488.568 317.539  14
   3   1  -7-107.188 242.902   5
   3  -1  -7 41.3309 267.876   5
  -3  -1   7 382.895 141.182  11
  -3   1   7-18.7228 105.872  11
   3   1  -7-69.7782 216.499   7
   3  -1  -7 108.244 254.693   7
  -3  -1   6 645.827 556.504   9
  -3   1   6 9.14052 162.415   9
  -3   1   6 45.1194 357.418   6
  -3  -1   6 276.494 552.465   6
  -3   1   6 193.594 182.715  14
  -3  -1   6 64.0619 60.4854  14
   3   1  -6 47.3534 77.2724  12
  -3   1   6 116.443 129.600  11
   3   1  -6-21.2321 143.796   7
   3  -1  -6 177.870 279.539   7
  -3  -1   5 8680.61 2055.82   9
  -3   1   5 12522.8 1821.23   9
  -3   1   5 15087.8 2572.14   6
  -3  -1   5 15480.3 2648.63   6
  -3  -1   5 17041.7 1550.52  14
   3   1  -5 21604.4 1488.46  12
   3   1  -5 18250.0 1713.90   7
   3  -1  -5 16242.8 1702.82   7
  -3   1   5 15900.4 1184.57  11
  -3   1   5 17151.0 1399.68  14
  -3  -1   4 6915.78 1590.29   9
  -3   1   4 8244.08 1336.80   9
  -3   1   4 7121.90 1496.11   6
  -3  -1   4 5834.77 1364.10   6
  -3  -1   4 9428.56 1060.82  14
   3   1  -4 7439.25 588.944  12
  -3   1   4 8944.75 940.128  12
   3  -1  -4 9325.41 1179.44   7
  -3   1   4 8756.50 894.736  14
   3  -1  -4 11363.9 633.143  11
   3   1  -4 9022.25 1117.50   7
  -3  -1   3 1069.86 579.889   9
  -3   1   3 1164.03 501.663   9
  -3   1   3 1063.55 537.461   6
  -3  -1   3 807.268 485.733   6
  -3   1   3 818.741 234.276  14
  -3  -1   3 813.194 270.148  14
   3   1  -3 840.133 166.680  13
  -3   1   3 629.467 268.996  12
   3  -1  -3 1395.74 188.351  11
   3   1  -3 1379.11 427.779   7
   3  -1  -3 1278.20 442.264   7
   3   1  -2 3390.55 340.036   3
  -3   1   2 3536.87 823.818   9
   3  -1  -2 2739.70 264.597  11
  -3  -1   2 2020.66 677.208   9
  -3   1   2 1872.38 615.572   6
  -3  -1   2 1217.88 555.965   6
  -3   1   2 2815.85 404.150  14
   3   1  -2 3312.93 355.630  13
  -3  -1   2 2513.44 457.092  14
   3   1  -2 2347.72 499.224   7
   3  -1  -2 2996.60 587.401   7
  -3  -1   1 49302.3 3297.11   9
   3  -1  -1 58620.7 2515.57   7
  -3  -1   1 59337.7 2030.87  14
  -3   1   1 55177.6 1531.99  14
   3   1  -1 56088.7 1588.44  14
  -3  -1   1 61414.3 1813.57  13
  -3  -1   1 37932.2 1628.49  12
   3   1  -1 57671.1 2463.23   7
   3   1  -1 74704.5 2474.62  12
  -3   1   1 40931.3 2262.19  12
  -3   1   1 47635.4 2877.67   6
  -3  -1   1 45108.1 2803.01   6
  -3  -1   0 8803.58 1369.20   9
   3   1   0 10471.9 1049.15   8
  -3   1   0 10476.5 576.363  14
   3   1   0 9918.23 564.386  14
  -3  -1   0 8244.43 1012.97  12
   3   1   0 10078.9 1058.03   7
   3  -1   0 10211.2 1046.08   7
  -3   1   0 8548.85 1186.66  12
   3   1   0 13693.0 1323.03  12
  -3   1   0 8898.15 1376.27   6
  -3  -1   0 10043.7 1451.80   6
  -3  -1  -1 41085.2 2920.93   9
   3   1   1 47257.8 2234.09   8
   3   1   1 41450.2 830.194  14
  -3   1  -1 40136.0 832.460  14
   3   1   1 47591.1 2474.91   7
   3  -1   1 46619.2 2377.88   7
  -3  -1  -1 36692.1 2534.88  12
  -3   1  -1 40897.2 3021.47  12
  -3   1  -1 46772.5 2093.24   5
  -3  -1  -1 45722.2 2084.36   5
   3  -1   1 53775.8 1633.88  11
  -3   1  -2 225.706 242.854   5
  -3  -1  -2 251.782 172.050   5
  -3  -1  -2 959.383 479.784   9
   3   1   2 176.560 192.430   8
   3  -1   2 716.781 254.006   8
  -3  -1  -2 400.558 323.422  12
   3   1   2 322.843 280.148   7
   3  -1   2 697.990 321.923   7
   3  -1   2 612.680 242.360  11
  -3   1  -2 240.888 311.034  12
   3  -1   2 728.215 392.349  10
   3   1   2 257.238 291.907  10
  -3   1  -3 429.213 242.977   5
  -3  -1  -3 461.511 245.555   5
  -3   1  -3 1080.29 607.218  12
  -3  -1  -3 655.052 386.618   9
  -3  -1  -3 692.769 460.341  12
   3  -1   3 655.393 215.895   8
   3   1   3 680.489 265.460   8
   3  -1   3 763.556 308.899  11
   3   1   3 610.811 379.682  10
   3  -1   3 327.511 319.496  10
  -3  -1  -4 6204.42 1176.52   9
  -3  -1  -4 5117.33 1361.99  12
   3   1   4 7848.75 896.749   8
  -3   1  -4 5586.63 965.399   5
  -3   1  -4 5381.92 1413.62  12
  -3  -1  -4 7567.99 1089.13   5
   3  -1   4 6240.11 840.368  11
   3   1   4 6326.62 905.993  11
   3   1   4 6163.74 1206.13  10
   3  -1   4 6585.56 1340.34  10
  -3  -1  -5 1143.15 686.541  12
  -3   1  -5 470.019 415.964  12
   3  -1   5 932.215 384.326  11
   3   1   5 1161.57 409.986  11
   3   1   5 1278.15 566.616  10
   3  -1   5 1353.31 768.466  10
  -3   1  -5 998.923 457.256   5
  -3  -1  -5 1337.25 510.951   5
  -3  -1  -6 2543.27 1118.41  12
  -3   1  -6 3122.17 1282.90  12
   3  -1   6 2563.95 701.701  11
   3   1   6 2427.00 667.366  11
   3  -1   6 1678.65 796.214  10
  -3   1  -6 3416.47 787.010   5
  -3  -1  -6 3278.76 853.160   5
   3  -1   7 2103.12 1005.74  10
  -3   2   8 6035.84 1077.03  14
   3  -2  -8 6100.28 1278.25   5
  -3  -2   8 5701.70 1170.86  14
   3   2  -8 5773.83 1201.77   5
   3   2  -8 5153.07 1124.28   7
  -3  -2   7-424.799 492.814   9
  -3   2   7 260.288 252.984  14
  -3  -2   7 18.2297 225.379  14
   3   2  -7 196.622 162.519   5
   3  -2  -7-239.767 310.523   5
  -3   2   7-127.903 147.821  11
   3   2  -7 253.334 192.224   7
   3  -2  -7-164.022 95.0212   7
  -3   2   6 6989.97 1354.38   9
  -3  -2   6 3220.45 1376.49   9
  -3   2   6 6648.91 1971.30   6
  -3  -2   6 6379.14 1933.82   6
  -3   2   6 6725.47 895.478  14
  -3  -2   6 8770.82 1304.66  14
   3   2  -6 10393.6 1263.26  12
   3   2  -6 6859.85 1112.76   7
   3  -2  -6 8340.03 1332.25   7
  -3   2   6 7427.81 854.500  11
  -3  -2   5 27206.7 4138.09   9
  -3   2   5 42926.9 3088.86   9
  -3   2   5 43667.2 4437.80   6
  -3  -2   5 33598.6 3872.10   6
  -3   2   5 39086.5 1976.01  14
  -3  -2   5 48281.1 2758.43  14
   3   2  -5 61481.3 2481.04  12
   3   2  -5 49148.4 2690.94   7
   3  -2  -5 43599.6 2822.70   7
  -3   2   5 44138.4 1815.27  11
  -3  -2   4-125.731 241.884   9
  -3   2   4 543.146 225.469  14
  -3   2   4 504.517 339.326   9
  -3   2   4 201.079 378.685   6
  -3  -2   4 366.617 204.729   6
  -3  -2   4 213.250 191.341  14
  -3   2   4 609.143 353.359  12
   3   2  -4 575.372 184.863  12
  -3   2   4 489.781 161.819  11
   3   2  -4 524.413 255.815   7
   3  -2  -4 708.082 344.525   7
  -3   2   3 17801.4 2369.02   6
  -3  -2   3 20165.0 2380.78   6
  -3  -2   3 22828.8 2950.70   9
  -3   2   3 26292.8 2225.00   9
  -3   2   3 18694.6 1105.43  14
  -3  -2   3 22515.1 1640.73  14
   3   2  -3 18676.5 1143.34  13
  -3   2   3 29037.1 1837.80  12
   3   2  -3 25321.0 1693.00   7
   3  -2  -3 24248.6 1825.14   7
   3   2  -3 22901.8 1307.37   3
  -3  -2   2 66683.6 3692.91   6
  -3  -2   2 58558.3 4295.68   9
   3   2  -2 99361.4 2223.99   3
   3  -2  -2 96887.1 1482.08   3
  -3  -2   2 85444.3 2939.23  14
   3   2  -2 92458.4 3101.00   7
  -3   2   2 89658.3 2133.46  14
   3   2  -2 91506.4 2112.35  13
   3   2  -2 112824. 1927.74  12
   3  -2  -2 86592.0 3235.60   7
  -3   2   2 71033.0 3813.55   6
  -3  -2   1 30056.4 2926.12   9
   3   2  -1 45258.5 2315.59   8
  -3   2   1 47772.7 1382.10  14
   3   2  -1 61225.6 2226.51  12
   3   2  -1 44236.0 2154.91   7
   3  -2  -1 46823.9 2293.46   7
   3  -2  -1 46849.2 906.498  11
  -3  -2   1 45466.4 1526.38   3
  -3  -2   1 31818.8 2506.14   6
  -3   2   1 39368.8 2699.61   6
  -3  -2   0 14175.3 1837.82   9
   3   2   0 17788.9 1454.73   8
   3   2   0 17210.0 960.292  14
  -3  -2   0 16128.7 1529.78  12
   3   2   0 16818.2 1375.75   7
   3  -2   0 17084.7 1367.03   7
  -3   2   0 15027.4 1806.41  12
   3  -2   0 18130.1 807.241  11
  -3   2   0 16391.8 722.847   3
  -3   2   0 17271.9 1909.41   6
  -3  -2   0 16196.2 1844.36   6
  -3  -2  -1 38522.5 3027.50   9
   3   2   1 50677.8 2571.63   7
   3   2   1 50592.0 2433.70   8
   3   2   1 48442.9 1462.51  14
  -3  -2  -1 38380.8 2694.75  12
   3  -2   1 50807.4 2445.55   7
  -3   2  -1 39803.5 3090.12  12
  -3   2  -1 49059.9 2157.92   5
  -3  -2  -1 48670.2 2175.55   5
   3  -2   1 50419.5 1678.45  11
   3  -2   1 56085.4 2946.65  10
  -3   2  -2 185.662 93.5817   5
  -3  -2  -2 338.240 173.815   5
  -3  -2  -2 68.3630 144.118   9
   3   2   2 40.7915 95.5912   8
   3   2   2 83.6296 73.2529  14
   3  -2   2 271.360 114.911   8
  -3  -2  -2 127.475 112.722  12
  -3   2  -2 38.9284 106.580  12
   3  -2   2 3.48319 196.357   7
   3  -2   2 73.0245 26.0634  11
   3  -2   2 137.617 300.289  10
   3   2   2 263.532 198.132  10
  -3  -2  -3 28305.7 2585.91   9
   3   2   3 33465.9 2024.59   8
   3  -2   3 36123.5 1388.46   8
  -3  -2  -3 27786.7 2884.69  12
  -3   2  -3 31972.2 3413.01  12
  -3   2  -3 34834.9 2113.65   5
  -3  -2  -3 35094.8 2159.40   5
   3  -2   3 32822.5 1869.26  11
   3   2   3 36869.9 2512.27  10
   3  -2   3 33122.6 2894.97  10
  -3  -2  -4 1160.95 653.379   9
   3   2   4 4373.24 758.211   8
  -3  -2  -4 1839.28 903.706  12
  -3   2  -4 1281.83 842.118  12
   3  -2   4 3990.67 702.855  11
   3   2   4 5299.67 1242.26  10
   3  -2   4 6519.01 1509.36  10
  -3   2  -4 1839.37 644.799   5
  -3  -2  -4 1697.75 672.659   5
  -3  -2  -5 657.339 562.590  12
  -3   2  -5 580.788 523.099  12
   3  -2   5 1077.65 405.152  11
   3   2   5 1004.22 429.070  11
   3  -2   5 497.340 574.278  10
  -3   2  -5 1370.45 572.876   5
  -3  -2  -5 777.127 425.391   5
   3  -2   6 8626.40 1354.87  11
  -3  -2  -6 8608.36 2108.74  12
  -3   2  -6 7889.28 2047.31  12
  -3   2  -6 10152.0 1456.05   5
  -3  -2  -6 9613.51 1473.50   5
   3   2   6 8524.51 1138.95  11
   3  -2   6 10223.0 2219.20  10
   3  -3  -8 8594.10 1474.48   5
  -3   3   8 6317.04 1063.75  14
   3   3  -8 8545.18 1414.28   5
  -3  -3   8 9128.80 1624.71  14
  -3  -3   7-7.93164 366.530   9
  -3  -3   7 916.508 564.591  14
  -3   3   7 486.448 303.861  14
   3   3  -7 508.022 339.398   5
   3  -3  -7 549.351 410.980   5
   3   3  -7 408.179 441.524   7
   3   3  -6 27718.6 2268.22   5
   3  -3  -6 26954.3 2240.62   5
  -3   3   6 20979.2 1539.47  14
  -3  -3   6 29625.4 2445.35  14
   3   3  -6 32566.1 2327.86   7
   3  -3  -6 29028.6 2590.70   7
  -3   3   6 28295.6 1595.35  11
  -3  -3   5 17424.8 3534.87   9
  -3   3   5 35008.6 2694.07   9
  -3   3   5 29838.7 3689.50   6
  -3  -3   5 21726.3 3109.27   6
  -3   3   5 25452.8 1550.68  14
  -3  -3   5 29989.8 2336.10  14
   3   3  -5 43542.0 2352.13  12
   3   3  -5 33197.4 2147.97   7
   3  -3  -5 30037.6 2407.88   7
  -3   3   5 29274.3 1352.76  11
  -3  -3   4 69793.8 6804.65   9
  -3   3   4 93190.7 6001.03   6
  -3  -3   4 76040.7 5369.14   6
  -3   3   4 150700. 5295.40   9
  -3  -3   4 106153. 3985.42  14
  -3   3   4 97474.9 2758.64  14
   3   3  -4 150250. 3773.00  12
   3   3  -4 113627. 3666.54   7
   3  -3  -4 105910. 4138.79   7
  -3   3   4 97380.3 1852.74  11
  -3  -3   3 2706.98 1223.81   9
  -3   3   3 2688.83 895.653   6
  -3  -3   3 2728.91 909.694   6
  -3   3   3 2492.40 429.841   2
  -3   3   3 2718.09 439.013  14
   3   3  -3 1778.67 384.778  13
   3   3  -3 2453.25 503.187  12
   3   3  -3 3453.74 646.499   7
   3  -3  -3 2758.79 690.963   7
   3   3  -3 3535.97 564.088   3
  -3   3   2 46742.0 3198.42   6
  -3  -3   2 37490.7 2903.80   6
  -3  -3   2 33544.8 3536.94   9
   3  -3  -2 57507.4 1511.93   3
   3   3  -2 57592.1 1986.62   3
   3   3  -2 65836.0 2172.07  12
   3   3  -2 51737.1 2631.34   8
  -3   3   2 52331.0 2032.69   2
   3   3  -2 53347.5 1861.08  13
   3   3  -2 53643.6 2335.89   7
   3  -3  -2 49424.0 2507.06   7
  -3  -3   1 10994.7 1903.37   9
   3   3  -1 21379.6 1457.40  12
   3   3  -1 16153.1 1457.44   8
   3  -3  -1 15191.4 1306.01   7
  -3   3   1 16623.0 1130.08   2
   3   3  -1 17944.0 1369.42   7
  -3   3   1 13799.1 1585.89   6
  -3  -3   1 12390.1 1545.71   6
  -3   3   0 45681.7 1442.80   3
   3   3   0 43519.2 2399.50   8
  -3   3   0 42422.9 1782.97   2
   3   3   0 41284.8 2218.57   7
   3  -3   0 43331.9 2187.80   7
  -3   3   0 37702.3 3040.17  12
   3  -3   0 47422.5 1506.60  11
  -3   3   0 41750.3 2888.51   6
  -3  -3   0 41628.4 2897.48   6
  -3  -3  -1 8559.79 1596.53   9
   3   3   1 12415.9 1278.93   8
  -3   3  -1 9743.28 848.948   2
   3   3   1 12376.2 1314.14   7
  -3  -3  -1 7940.57 1457.29  12
   3  -3   1 11345.9 1154.78   7
  -3   3  -1 10379.7 1745.35  12
   3  -3   1 12031.5 905.757  11
  -3   3  -1 11480.7 1034.52   5
  -3  -3  -1 10921.0 1050.71   5
  -3  -3  -1 12629.8 1787.85   6
  -3   3  -1 14376.0 1902.52   6
  -3  -3  -1 12218.0 1796.69   6
   3  -3   1 13275.0 1522.82  10
  -3  -3  -2 35084.4 3161.63   9
   3   3   2 45881.5 2500.90   8
   3  -3   2 46332.1 2076.87  11
   3  -3   2 44852.6 2443.49   7
  -3  -3  -2 41934.9 3453.66  12
  -3   3  -2 39863.8 3573.35  12
  -3   3  -2 47295.6 2281.64   5
  -3  -3  -2 46930.5 2312.95   5
   3  -3   2 44707.4 3127.38  10
   3   3   2 45165.2 2207.86  10
  -3   3  -3 968.792 383.925   5
  -3  -3  -3 1199.18 448.322   5
  -3  -3  -3 436.403 313.601   9
   3   3   3 613.218 328.290   8
   3   3   3 421.369 228.698   1
  -3  -3  -3 643.288 422.738  12
  -3   3  -3 725.557 480.153  12
   3  -3   3 689.951 370.490  11
   3   3   3 1033.02 400.611  10
   3  -3   3 512.649 263.034  10
   3   3   4 12444.2 1349.50   8
  -3  -3  -4 9638.83 2000.84  12
  -3   3  -4 8352.96 1971.80  12
  -3   3  -4 11064.2 1331.63   5
  -3  -3  -4 10563.6 1336.58   5
   3  -3   4 13598.1 1438.16  11
   3  -3   4 10277.6 1958.19  10
   3   3   5 919.781 363.944   8
  -3  -3  -5 832.201 637.704  12
  -3   3  -5 974.045 682.082  12
   3  -3   5 1114.94 410.603  11
   3  -3   5 646.363 333.989  10
  -3   3  -5 884.968 452.241   5
  -3  -3  -5 1022.97 442.652   5
   3  -3   6 1378.05 552.951  11
  -3  -3  -6 557.361 582.601  12
  -3   3  -6 1224.32 801.169  12
   3   3   6 1588.05 562.222  11
   3  -3   6 410.543 459.889  10
  -3   3  -6 944.927 446.883   5
  -3  -3  -6 1321.97 501.105   5
  -3   4   8 1430.83 414.386  14
   3   4  -8 2106.74 678.799   5
   3  -4  -8 2076.36 737.928   5
  -3  -4   7 1808.34 1139.39   9
   3  -4  -7 5903.29 1210.98   5
   3   4  -7 5668.66 1145.62   5
  -3   4   7 2149.17 474.303  14
  -3  -4   6 2647.19 1396.65   9
   3  -4  -6 5909.49 1100.10   5
  -3   4   6 3594.22 641.839  14
   3   4  -6 5732.23 975.707   7
   3   4  -6 3873.89 810.845   5
   3  -4  -6 5307.57 1175.07   7
  -3  -4   5 42413.4 5696.34   9
  -3   4   5 106480. 4501.11   9
  -3   4   5 81384.3 6086.91   6
  -3  -4   5 48009.2 4638.83   6
  -3   4   5 63695.0 2473.61  14
   3   4  -5 102603. 4154.81  12
   3   4  -5 83532.6 3294.73   7
   3  -4  -5 75001.1 3909.06   7
  -3  -4   4 16.4351 467.434   9
   3   4  -4 50.5548 230.571   3
  -3   4   4 50.7037 383.393   6
  -3  -4   4 155.263 377.419   6
   3   4  -4 709.971 387.323  12
   3   4  -4 441.815 16.6920   8
  -3   4   4 301.134 98.1870  11
   3   4  -4 546.950 273.784   7
   3  -4  -4 373.727 219.885   7
  -3   4   4-144.140 176.731   2
   3   4  -3 4306.62 660.932   3
  -3   4   3 2964.42 535.912   2
  -3  -4   3 2290.22 1391.04   9
  -3   4   3 2938.79 887.804   6
  -3  -4   3 2444.30 906.666   6
   3   4  -3 4121.07 767.180   8
   3   4  -3 2703.89 533.637  13
   3   4  -3 4006.92 649.013   7
   3  -4  -3 3653.03 765.677   7
  -3   4   2 33168.5 2759.72   6
  -3  -4   2 21724.4 2244.54   6
  -3  -4   2 22696.0 3800.59   9
  -3   4   2 32192.9 1683.19   2
   3   4  -2 31130.9 2127.98   8
  -3   4   2 30758.3 754.395  13
   3   4  -2 43677.9 2286.70  12
   3   4  -2 32342.2 1784.95   7
   3  -4  -2 28373.0 1907.52   7
   3   4  -2 32038.8 1673.23  13
   3  -4  -2 32229.2 1367.03   3
   3   4  -1 65306.7 3091.07   8
   3   4  -1 72548.7 2253.77  13
   3   4  -1 68459.5 2717.55   7
  -3   4   1 66794.3 2341.76   2
   3  -4  -1 64648.3 2772.64   7
  -3   4   1 62931.9 3401.10   6
  -3  -4   0 10493.2 2144.79   9
  -3   4   0 16619.8 1021.87   3
   3   4   0 15086.4 1485.23   8
   3   4   0 14672.0 1348.14   7
  -3   4   0 14027.9 1065.57   2
   3  -4   0 13820.4 1253.62   7
  -3   4   0 16836.7 1807.40   6
  -3  -4   0 11493.7 1569.84   6
  -3  -4  -1 45522.0 4078.22   9
   3   4   1 64895.3 3145.36   8
  -3   4  -1 66929.0 2308.31   2
   3  -4   1 62019.8 2699.23   7
  -3   4  -1 61016.6 4548.40  12
   3  -4   1 65850.9 2403.32  11
   3  -4   1 63272.7 3569.33  10
  -3   4  -1 83619.9 4544.37   6
  -3  -4  -1 67683.9 4182.35   6
  -3   4  -1 64219.0 2290.14   3
  -3   4  -2 444.382 246.854   2
  -3   4  -2 136.000 205.887   5
  -3  -4  -2 227.067 154.953   5
  -3  -4  -2 96.6366 206.903   9
   3   4   2 61.3008 62.5670   1
   3   4   2 576.946 308.868   8
  -3  -4  -2 371.885 327.813  12
  -3   4  -2-60.4571 254.685  12
   3  -4   2 728.451 315.192   7
   3  -4   2 29.3631 124.277  11
   3  -4   2 385.142 208.942  10
   3   4   2 80.4600 59.1504  10
  -3  -4  -3 35583.6 3407.62   9
   3   4   3 47954.2 2370.86   1
   3   4   3 48707.0 2780.91   8
  -3   4  -3 46430.3 1861.02   2
  -3  -4  -3 41891.5 3908.13  12
  -3   4  -3 46868.5 4311.67  12
  -3   4  -3 50460.5 2539.81   5
  -3  -4  -3 46975.1 2548.72   5
   3  -4   3 50950.9 2657.22  11
   3  -4   3 49175.2 3947.20  10
  -3   4  -4 2555.91 645.168   5
  -3  -4  -4 1383.76 601.203   5
   3   4   4 2950.72 758.793   8
  -3  -4  -4 1637.36 915.444  12
  -3   4  -4 1632.24 912.032  12
   3  -4   4 3324.53 803.911  11
   3  -4   4 1808.26 909.048  10
  -3   4  -5 5251.25 1723.67  12
  -3  -4  -5 5899.28 1092.69   5
   3   4   5 5879.91 1036.84   8
  -3  -4  -5 4977.61 1614.87  12
  -3   4  -5 6178.90 1052.58   5
   3  -4   5 6134.96 1121.71  11
   3  -4   5 3034.57 1204.92  10
  -3   4  -6 7451.96 1254.86   5
  -3  -4  -6 7749.51 1342.44   5
   3  -4   6 6576.94 1268.37  11
   3   5  -8 2251.11 690.029   5
   3  -5  -8 1910.69 693.537   5
  -3   5   7 430.321 266.072  14
   3   5  -7 478.893 270.860   5
   3  -5  -7 209.059 367.416   5
   3  -5  -7-275.751 220.130   7
  -3  -5   6 1852.64 1237.90   9
  -3   5   6 3637.12 661.235  14
   3   5  -6 3908.59 830.788   8
   3   5  -6 4507.57 925.697   5
   3  -5  -6 3831.61 891.259   5
   3   5  -6 3686.01 900.564   3
   3  -5  -6 3801.03 999.464   7
   3   5  -6 3511.39 823.524   1
  -3   5   5 13242.1 2492.59   6
  -3  -5   5 7769.87 1913.91   6
   3   5  -5 12097.4 1427.42   8
  -3   5   5 11495.3 1115.64   2
   3  -5  -5 11276.5 1537.14   7
   3   5  -5 11725.9 1444.17   1
   3   5  -5 12824.4 1512.19   3
  -3   5   4 42855.1 4171.89   6
   3   5  -4 37911.1 2497.44   8
  -3   5   4 36176.1 1969.84   2
   3   5  -4 41268.4 1995.68   7
   3   5  -4 42198.3 2969.77  12
   3  -5  -4 34895.4 2546.26   7
   3   5  -4 39217.8 2401.23   3
  -3  -5   3 911.167 983.623   9
  -3   5   3 400.046 202.545   2
  -3   5   3 338.818 285.795   6
  -3  -5   3 441.863 398.876   6
   3   5  -3 441.526 275.814   3
   3   5  -3 279.479 336.187   8
   3   5  -3 158.649 207.574  13
   3   5  -3 701.706 256.272   7
   3  -5  -3 258.910 84.9109   7
  -3  -5   2 684.878 692.012   9
  -3   5   2 2156.14 455.899   2
  -3   5   2 2283.96 750.920   6
  -3  -5   2 1262.16 545.828   6
   3   5  -2 2527.58 599.222   8
  -3   5   2 2281.90 270.141  13
   3   5  -2 2705.71 555.199  13
   3   5  -2 2104.75 434.897   7
   3  -5  -2 1614.35 421.444   7
  -3  -5   1 2817.79 1409.10   9
  -3  -5   1 2817.70 731.278   6
   3   5  -1 4724.09 886.265   8
   3   5  -1 4378.20 624.250  13
   3   5  -1 4511.47 721.313   7
  -3   5   1 4127.64 611.308   2
  -3   5   1 3911.70 309.830  11
   3  -5  -1 4378.90 733.196   7
  -3   5   1 4390.70 910.023   6
  -3  -5   0 3857.66 1615.63   9
   3   5   0 4522.07 855.389   1
   3   5   0 4190.79 814.896   8
   3  -5   0 4989.78 743.995   7
  -3   5   0 4356.23 634.656   2
  -3   5   0 5386.56 488.232  11
   3   5   0 8502.76 1130.30  10
   3  -5   0 4626.97 988.886  10
  -3   5   0 5592.57 1013.95   6
  -3  -5   0 4203.94 911.825   6
  -3  -5  -1 17050.8 3160.32   9
   3   5   1 17505.1 1698.72   8
   3  -5   1 17936.5 1427.77   7
  -3   5  -1 19532.9 2681.66  12
  -3   5  -1 17698.7 1243.93   2
   3   5   1 17884.9 1678.90   1
   3  -5   1 20400.0 2192.41  10
  -3   5  -1 20237.6 2208.61   6
  -3  -5  -1 20893.2 2264.10   6
  -3   5  -1 18808.2 1327.14   3
  -3  -5  -2 5566.73 1904.83   9
   3   5   2 6831.65 992.001   1
   3   5   2 6818.70 1105.60   8
   3  -5   2 6284.97 915.957   7
  -3   5  -2 6319.78 733.618   2
  -3   5  -2 7253.08 1783.60  12
   3  -5   2 7631.91 982.211  11
  -3   5  -2 7027.81 854.859   5
  -3  -5  -2 6622.05 891.540   5
  -3   5  -2 5368.82 826.390   3
   3  -5   2 6736.36 1384.55  10
  -3   5  -3 90.5956 236.734   5
  -3  -5  -3-369.301 256.061   5
   3   5   3 227.985 260.520   1
  -3   5  -3 104.281 156.066   2
   3   5   3-15.2534 159.023   8
  -3   5  -3 438.807 410.616  12
   3  -5   3 36.5524 40.6163  11
   3  -5   3 209.114 116.122  10
  -3   5  -4 1782.14 547.737   5
  -3  -5  -4 1556.90 542.778   5
   3   5   4 1461.70 571.696   8
  -3  -5  -4 1015.36 628.508  12
  -3   5  -4 643.986 610.022  12
   3  -5   4 1307.84 484.096  11
   3  -5   4 1265.46 617.971  10
  -3   5  -5 39.8127 233.122   5
  -3  -5  -5 166.745 216.135   5
   3   5   5 29.7836 78.1738   8
  -3  -5  -5-973.308 716.539  12
  -3   5  -5-306.452 418.261  12
   3  -5   5-323.680 420.541  11
   3  -5   5-129.881 537.564  10
   3   6  -8 2898.35 834.342   5
   3  -6  -8 2864.42 782.101   5
   3   6  -7 3147.06 879.016   3
  -3   6   7 2830.06 668.229  14
   3   6  -7 2443.96 689.126   5
   3  -6  -7 2169.51 634.787   5
   3  -6  -7 2693.82 993.904   7
   3   6  -6 274.692 115.920   3
   3   6  -6 1183.00 541.767   1
  -3   6   6 1400.60 487.097  14
   3   6  -6 313.978 72.4903   5
   3  -6  -6 246.731 118.848   5
   3  -6  -6 123.779 68.0148   7
  -3   6   6 294.615 186.557   2
  -3   6   5 2419.86 528.335   2
  -3  -6   5 694.084 951.578   9
   3   6  -5 2216.39 547.442   3
   3   6  -5 3037.87 751.538   8
   3   6  -5 1978.31 670.196   1
   3   6  -5 2921.25 663.959   5
   3  -6  -5 2567.01 588.963   5
   3  -6  -5 2138.95 705.598   7
  -3  -6   4 150.520 428.736   9
  -3   6   4 47.4724 95.2925   2
   3   6  -4 416.659 350.092   3
  -3   6   4-19.0168 92.5389   6
  -3  -6   4 229.459 397.186   6
   3   6  -4 371.200 270.805   1
   3   6  -4 338.690 338.919   8
   3  -6  -4 238.405 328.030   7
  -3  -6   3 24313.7 4517.52   9
  -3   6   3 33369.4 3423.39   6
  -3  -6   3 25636.9 3036.76   6
   3   6  -3 25372.5 1923.73   3
   3   6  -3 27638.9 2186.68   8
   3   6  -3 23872.2 1827.04  13
   3   6  -3 23668.3 2199.97   1
  -3   6   3 20725.2 1519.09   2
   3  -6  -3 23699.1 2077.39   7
  -3   6   2 16799.6 1968.96   6
  -3  -6   2 12099.3 1658.22   6
   3   6  -2 15093.4 1608.76   8
  -3   6   2 16445.3 821.724  13
   3   6  -2 15157.0 1281.90  13
   3   6  -2 15237.7 1204.37   7
   3   6  -2 15561.2 1727.88   1
  -3   6   2 14562.9 1238.96   2
   3  -6  -2 13786.0 1416.16   7
   3  -6  -1 715.225 413.937  10
  -3  -6   1 883.743 1067.20   9
  -3   6   1 1850.94 602.063   6
  -3  -6   1 1157.45 528.306   6
  -3   6   1 1156.14 372.090   2
   3   6  -1 1409.21 488.314   8
   3   6  -1 1390.95 401.190  13
   3   6  -1 931.339 429.603   1
   3  -6  -1 1387.90 420.105   7
  -3  -6   0 5161.76 1929.39   9
   3   6   0 6036.68 1062.22   1
   3   6   0 5767.36 1003.88   8
  -3  -6   0 6381.58 1167.49   4
   3  -6   0 6831.34 901.358   7
  -3   6   0 6138.88 802.367   2
   3  -6   0 6132.70 1170.34  10
  -3   6   0 7037.23 1137.97   6
  -3  -6   0 6091.25 1111.91   6
  -3  -6  -1 757.646 755.256   9
  -3   6  -1 99.9267 137.634   6
  -3  -6  -1 404.250 346.352   6
  -3   6  -1 1292.84 425.512   2
  -3   6  -1 579.933 418.825   3
   3   6   1 648.848 552.324   8
   3  -6   1 438.592 276.727   7
   3   6   1 478.300 393.026   1
  -3  -6  -1 958.837 413.639   4
   3  -6   1 784.251 520.443  10
  -3   6  -2 3080.50 948.954   6
  -3  -6  -2 2065.18 850.654   6
  -3  -6  -2 1689.88 1029.74   9
  -3   6  -2 1886.97 423.620   2
   3   6   2 2403.95 608.541   1
  -3   6  -2 2378.43 542.531   3
   3   6   2 2725.26 723.255   8
  -3   6  -2 2256.54 1097.03  12
   3  -6   2 2234.23 519.483   7
  -3  -6  -2 754.016 551.842   4
   3  -6   2 2163.54 836.694  10
  -3   6  -3 1956.64 520.436   5
  -3  -6  -3 1557.93 493.859   5
  -3   6  -3 1568.99 513.253   3
  -3   6  -3 2154.94 446.581   2
   3   6   3 1385.63 595.812   8
  -3   6  -3 1599.78 959.054  12
   3  -6   3 1511.11 555.852  11
  -3  -6  -3 1984.67 748.718   4
   3  -6   3 1331.52 739.900  10
  -3   6  -4 1707.55 696.572   5
  -3  -6  -4 1834.91 589.306   5
   3   6   4 2708.04 801.665   8
  -3   6  -4 1151.07 794.147  12
   3  -6   4 4009.72 916.632  11
  -3   6  -4 222.975 195.899   3
   3  -6   4 3499.55 1201.53  10
  -3   6  -5 777.177 412.612   5
  -3  -6  -5 825.586 339.640   5
   3   6   5 298.705 189.102   8
   3  -6   5 812.386 592.172  11
   3  -7  -7 159.921 342.752   4
  -3   7   6 3174.55 701.241   2
   3   7  -6 2688.36 832.626   3
   3   7  -6 2036.21 686.468   1
   3  -7  -6 2853.25 912.633   7
   3   7  -5 8089.81 1303.29   3
   3   7  -5 7064.19 1236.91   1
   3   7  -5 5784.02 1037.96   8
  -3   7   5 6322.36 913.590   2
   3  -7  -5 6802.00 1283.54   7
   3   7  -4 603.039 363.424   1
  -3  -7   4 167.077 285.946   9
  -3   7   4 386.879 234.154   2
   3   7  -4 582.019 112.985  13
   3   7  -4 1490.29 565.261   3
   3   7  -4 694.723 331.178   8
   3  -7  -4 509.007 346.455   7
  -3  -7   3-1.51942 755.950   9
   3   7  -3 145.805 390.451   1
   3   7  -3-335.483 179.315   8
  -3   7   3-94.6929 116.884   2
   3   7  -3-385.831 323.138  13
   3  -7  -3-220.851 340.708   7
   3   7  -2 12048.8 1566.30   1
   3   7  -2 12704.1 1564.75   8
   3   7  -2 13311.9 1300.37  13
   3  -7  -2 10791.5 1313.78   7
  -3   7   2 11446.4 1146.72   2
  -3  -7   1 320.157 539.807   9
  -3   7   1 497.973 220.512   2
   3   7  -1 590.182 353.269   8
   3   7  -1 1070.64 427.723  13
   3  -7  -1 689.026 238.824   7
  -3  -7   1 699.762 447.201   4
   3   7  -1 799.273 474.013   1
   3  -7  -1-277.128 412.739  10
  -3  -7   0 1629.31 1160.31   9
   3   7   0 3227.27 912.981   8
  -3   7   0 1826.76 465.496   2
   3   7   0 2162.39 797.033   1
   3  -7   0 1784.24 461.905   7
  -3  -7   0 1691.66 634.776   4
   3  -7   0 1859.89 679.017  10
  -3  -7  -1 8612.96 2567.24   9
  -3   7  -1 15881.7 1447.37   3
   3   7   1 13776.8 1628.58   8
  -3  -7  -1 10697.3 1758.31   4
  -3   7  -1 13968.7 1222.50   2
   3  -7   1 12358.1 1975.97  10
   3   7   1 16114.5 1740.78   1
  -3  -7  -2 2020.49 1220.60   9
  -3   7  -2 2797.55 572.205   2
  -3   7  -2 2551.60 632.054   3
   3   7   2 1814.83 628.359   8
  -3   7  -2 2314.34 1121.03  12
   3   7   2 3019.76 773.193   1
  -3  -7  -2 2438.59 806.079   4
   3  -7   2 1521.09 787.815  10
  -3   7  -3 33.3361 126.345   2
  -3   7  -3 231.316 285.224   3
   3   7   3 86.6449 83.2233   8
  -3   7  -3-90.4532 180.634  12
  -3  -7  -3-28.3051 20.0486   4
   3  -7   3-215.436 410.482  10
  -3   7  -4 1251.88 553.335   3
  -3   7  -4 994.259 817.302  12
   3   7   4 2768.16 786.547   8
  -3  -7  -4 2518.86 914.146   4
   3  -7   4 3924.45 1425.98  10
  -3   7  -5 23.2261 240.641   3
   3   8  -6 897.302 333.071   1
  -3   8   6 907.824 395.229   2
   3  -8  -6 194.751 128.554   7
  -3   8   5 1633.21 489.652   2
   3   8  -5 1725.07 688.717   1
   3   8  -5 1296.08 568.432   3
   3  -8  -5 1478.61 679.229   7
  -3   8   4 32.4711 37.8423   2
   3   8  -4 172.162 388.691   1
   3   8  -4 234.915 329.514   3
   3   8  -4 358.921 301.316   8
   3   8  -4-206.445 408.910  13
   3  -8  -4 409.460 456.971   7
  -3  -8   3 3463.80 1848.94   9
   3   8  -3 5883.67 1127.48   8
   3   8  -3 5389.59 1127.35   1
   3   8  -3 5281.15 998.358  13
  -3   8   3 5399.74 881.605   2
   3  -8  -3 5451.88 1058.87   7
  -3  -8   2 1513.96 1268.81   9
  -3   8   2 3954.45 709.209   2
   3   8  -2 3795.04 927.383   1
   3   8  -2 4060.51 918.975   8
   3   8  -2 4842.89 888.478  13
   3  -8  -2 3680.60 771.647   7
   3  -8  -2 4692.88 1098.69  10
  -3  -8   1-573.070 678.772   9
   3   8  -1 108.516 286.598   1
  -3   8   1 60.5209 112.281   2
   3   8  -1 448.959 303.462   8
   3   8  -1 761.713 436.503  13
  -3  -8   1-25.7117 208.074   4
   3  -8  -1 275.607 320.037  10
   3   8   0 1897.86 651.673   1
  -3  -8   0 493.461 686.611   9
  -3   8   0 2189.07 491.206   2
   3   8   0 2780.57 776.909   8
  -3  -8   0 1825.77 757.980   4
   3  -8   0 2706.69 944.779  10
  -3  -8  -1 175.996 427.882   9
  -3   8  -1 919.093 382.324   2
   3   8   1 1113.29 467.405   8
   3   8   1 1560.36 663.919   1
  -3  -8  -1 162.125 635.027   4
   3  -8   1 1462.22 1118.23  10
   3  -8   2 1174.78 527.146   4
  -3   8  -2 495.435 543.538  12
  -3   8  -2 841.777 357.518   2
  -3   8  -2 1266.51 472.009   3
   3   8   2 1142.34 590.680   8
  -3  -8  -2 1281.65 686.785   4
   3  -8   2 484.169 413.568  10
  -3   8  -3 538.986 337.037   3
   3   8   3 801.151 306.466   8
  -3   8  -3 667.484 718.416  12
  -3  -8  -3 503.376 415.685   4
   3  -8   3 767.282 783.689  10
  -3   8  -4-453.246 372.998   3
  -3  -8  -4 1239.58 736.667   4
   3  -9  -5 5605.86 1273.23   7
   3   9  -4 13894.0 1784.23  13
  -3   9   4 13570.5 1468.13   2
   3  -9  -4 13012.5 1745.76   7
   3   9  -4 14697.5 2053.89   1
  -3   9   3-69.2764 69.2899   2
   3   9  -3 77.9077 102.239   8
   3   9  -3 102.604 249.117  13
   3   9  -3 257.198 148.273   1
  -3   9   2 730.923 360.040   2
   3   9  -2 764.835 390.291   8
   3   9  -2 556.779 325.748  13
  -3  -9   2 1302.10 639.306   4
   3   9  -2 784.235 515.430   1
  -3   9   1 66.8781 134.779   2
   3   9  -1-54.3667 153.223   8
   3   9  -1 694.851 460.111  13
  -3  -9   1 202.024 250.466   4
   3   9  -1 312.869 440.522   1
   3  -9  -1 12.1581 97.9247  10
   3   9   0 10087.7 1605.36   8
  -3  -9   0 8645.81 1706.97   4
  -3   9   0 8005.83 1070.84   2
   3  -9   0 8969.78 1828.28  10
   3   9   1 4427.81 1028.01   8
   3  -9   1 4922.58 1305.29   4
  -3   9  -1 4777.30 809.936   2
  -3  -9  -1 4665.11 1276.38   4
   3  -9   1 4743.65 1405.28  10
  -3   9  -2 1545.29 513.660   2
  -3  -9  -2 1456.20 752.776   4
   3  -9   2 1584.05 766.673  10
  -3   9  -3 2.57928 257.780   3
   3  10  -3 8467.73 1440.87   8
   3  10  -2 966.300 517.842   8
  -3 -10   2 954.820 577.093   4
   3 -10  -1 12715.6 2232.78   4
   3  10  -1 10158.9 1575.53   8
   3 -10   0-141.385 112.362   4
   3 -10   1 13627.6 2171.05   4
   3 -10   1 10324.0 2126.03  10
  -4   0   8 928.165 439.578  14
   4   0  -8 1340.66 754.146   5
   4   0  -8 650.364 522.694   7
  -4   0   7 307.667 337.167   9
  -4   0   7 379.329 490.946   6
  -4   0   7-319.292 269.810  14
   4   0  -7 352.703 234.498   7
  -4   0   6 52684.6 5721.96   6
  -4   0   6 60069.8 3267.63  14
   4   0  -6 63522.9 3686.89   7
  -4   0   5 34532.6 3748.65   9
  -4   0   5 39743.3 4183.66   6
  -4   0   5 50201.5 2684.58  14
   4   0  -5 59995.5 1751.24  13
   4   0  -5 51123.5 3125.92   7
  -4   0   4 11556.8 2091.96   6
  -4   0   4 9929.97 1859.83   9
  -4   0   4 10702.8 1158.97  14
   4   0  -4 12190.1 611.916  13
   4   0  -4 12964.7 1562.23   7
  -4   0   3 41701.4 3582.73   9
  -4   0   3 42966.1 2116.71  14
   4   0  -3 46720.5 2702.85   7
   4   0  -3 45808.9 1657.15  11
   4   0  -3 44548.9 1115.96   3
  -4   0   2 30810.2 3035.87   9
  -4   0   2 30028.6 1674.13  14
   4   0  -2 31101.6 2131.83   7
  -4   0   2 24666.1 2566.93   6
  -4   0   1 17819.4 2240.68   9
  -4   0   1 17062.4 1125.89  14
  -4   0   1 13140.4 1263.01  12
   4   0  -1 18856.4 1748.95   7
  -4   0   1 15918.0 1979.68   6
  -4   0   0 15576.3 2079.61   9
  -4   0   0 16232.8 967.544  14
   4   0   0 17122.8 1630.49   7
  -4   0   0 11343.7 1438.48  12
  -4   0   0 14928.1 2082.88   6
  -4   0  -1 16325.1 2265.52   9
   4   0   1 19140.5 1572.85   8
   4   0   1 18690.3 1778.23   7
  -4   0  -1 13132.0 1783.08  12
  -4   0  -1 17609.4 2509.69   6
  -4   0  -2 54770.1 4056.14   9
   4   0   2 62508.1 2795.19   8
   4   0   2 60367.3 3385.26   7
  -4   0  -2 60801.0 2958.80   5
   4   0   2 58283.9 3408.74  10
  -4   0  -3 648.528 361.391   5
  -4   0  -3 725.335 625.510   9
   4   0   3 1658.84 437.981   8
  -4   0  -3 688.417 543.044  12
   4   0   3 1417.51 453.871  11
   4   0   3 866.454 536.050  10
  -4   0  -4 2459.09 767.933   5
  -4   0  -4 2743.25 993.266   9
  -4   0  -4 1620.02 840.965  12
   4   0   4 2466.99 576.441  11
   4   0   4 2138.19 779.409  10
  -4   0  -5 3214.19 879.541   5
  -4   0  -5 1615.72 968.453  12
   4   0   5 1852.21 573.054  11
   4   0   5 2068.36 841.206  10
   4   1  -9 4029.63 1150.77   7
   4   1  -8 8552.92 1528.51   5
   4  -1  -8 8644.97 1499.80   5
  -4   1   8 8377.60 1396.86  14
  -4  -1   8 8063.07 1422.19  14
   4   1  -8 8230.56 1559.78   7
   4  -1  -8 7866.72 1547.54   7
  -4  -1   7 1328.22 980.357   9
  -4  -1   7 1085.99 586.045  14
  -4   1   7 1594.83 1103.07   6
  -4  -1   7 994.960 991.654   6
  -4   1   7 1961.64 656.624  14
   4   1  -7 1059.45 607.528   7
   4  -1  -7 1074.54 613.581   7
  -4  -1   6 2461.85 1217.14   9
  -4   1   6 1994.34 830.203   9
  -4   1   6 3739.25 1505.88   6
  -4  -1   6 2901.87 1347.32   6
  -4   1   6 3361.83 711.021  14
  -4  -1   6 3421.28 819.821  14
   4   1  -6 2719.51 771.953   7
   4  -1  -6 3254.68 889.009   7
  -4  -1   5 38890.3 4263.85   9
  -4   1   5 44602.9 3948.30   9
  -4   1   5 42566.0 4302.11   6
  -4  -1   5 37976.3 4057.95   6
  -4   1   5 54925.9 2726.55  14
  -4  -1   5 59427.2 3146.50  14
   4   1  -5 59341.3 3318.08   7
   4  -1  -5 59003.5 3431.67   7
  -4   1   4 9527.92 1871.23   6
  -4  -1   4 8834.99 1816.76   6
  -4  -1   4 11392.7 2217.55   9
  -4   1   4 12231.7 1930.21   9
  -4   1   4 9761.10 1052.54  14
  -4  -1   4 10070.0 1196.25  14
   4   1  -4 9110.75 684.671  13
   4   1  -4 12020.1 1452.28   7
   4  -1  -4 11092.6 1458.74   7
  -4  -1   3 535.427 594.171   9
  -4   1   3 689.285 465.718   9
  -4   1   3 850.842 597.277   6
  -4  -1   3 581.179 445.165   6
   4   1  -3 955.982 211.688   3
  -4   1   3 681.399 200.962  14
  -4  -1   3 795.487 297.986  14
  -4   1   3 101.258 113.466  12
  -4   1   3 366.834 184.028  12
   4  -1  -3 624.300 143.579  11
   4   1  -3 643.873 315.995   7
   4  -1  -3 806.205 336.387   7
  -4  -1   2-14.4393 288.891   9
  -4   1   2 76.1342 145.877   6
  -4  -1   2 207.994 295.146   6
  -4   1   2 442.707 424.845   9
  -4   1   2 133.144 23.3169  14
  -4  -1   2 260.107 180.554  14
  -4   1   2 5.16182 95.3196  13
  -4   1   2 125.559 124.768  12
   4   1  -2 391.199 284.277   7
   4  -1  -2 283.238 257.830   7
  -4   1   1 1603.34 710.282   6
  -4  -1   1 1852.66 775.454   6
  -4  -1   1 1540.75 795.402   9
  -4   1   1 2484.78 956.917   9
  -4   1   1 1876.41 333.108  14
  -4  -1   1 2134.29 429.023  14
  -4  -1   1 1680.83 424.958  12
  -4   1   1 1888.45 541.143  12
   4   1  -1 2471.98 571.114  12
   4   1  -1 2856.07 736.982   7
   4  -1  -1 1992.63 557.361   7
  -4  -1   0 43444.0 3649.75   9
   4   1   0 50783.8 2693.70   8
   4   1   0 45683.1 1213.90  14
  -4   1   0 46935.8 1510.09  14
   4   1   0 50444.6 2801.64   7
   4  -1   0 49276.9 2717.76   7
  -4   1   0 40405.0 2986.25  12
  -4   1   0 45132.2 3545.46   6
  -4  -1   0 42398.9 3537.39   6
  -4   1  -1 3730.09 1159.30   6
  -4  -1  -1 3533.72 1120.73   6
  -4  -1  -1 2187.42 878.646   9
   4   1   1 3075.13 632.887   8
   4  -1   1 2862.94 559.597   8
  -4  -1  -1 2367.14 748.582  12
  -4   1  -1 2832.99 883.319  12
   4   1   1 3345.57 803.723   7
   4  -1   1 3465.56 724.948   7
   4  -1   1 4512.11 549.697  11
  -4   1  -2 652.905 366.658   5
  -4  -1  -2 988.355 434.481   5
  -4  -1  -2 676.133 517.654   9
   4   1   2 894.977 365.195   8
   4  -1   2 873.409 302.248   8
  -4  -1  -2 1219.60 594.333  12
  -4   1  -2 423.069 364.954  12
   4   1   2 591.438 447.906   7
   4  -1   2 690.618 455.329   7
   4  -1   2 1213.64 344.773  11
   4  -1   2 679.824 439.499  10
   4   1   2 1125.57 556.654  10
  -4   1  -3 2828.82 729.423   5
  -4  -1  -3 3503.28 812.485   5
  -4  -1  -3 2450.32 937.753   9
   4   1   3 5225.61 919.327   8
  -4  -1  -3 2562.44 1011.98  12
  -4   1  -3 2222.21 1005.64  12
   4  -1   3 3335.70 587.310  11
   4   1   3 4962.81 1102.55  10
   4  -1   3 5710.69 1284.34  10
  -4   1  -4 3690.16 845.064   5
  -4  -1  -4 3157.64 744.233   5
  -4  -1  -4 1929.75 872.348  12
  -4   1  -4 1671.65 829.493  12
   4   1   4 4156.76 738.200  11
   4  -1   4 2483.86 583.206  11
   4   1   4 2404.29 781.171  10
   4  -1   4 2845.68 964.281  10
  -4   1  -5 2421.59 694.325   5
  -4  -1  -5 3263.33 841.583   5
  -4  -1  -5 1881.18 1004.39  12
  -4   1  -5 1757.87 987.690  12
   4  -1   5 2045.06 556.562  11
   4   1   5 2842.21 703.957  11
   4  -1   5 2067.89 955.332  10
   4  -1   6 7858.12 2038.32  10
  -4   2   8 3209.97 802.004  14
  -4  -2   8 4554.25 1164.68  14
   4   2  -8 3619.82 950.865   5
   4  -2  -8 2759.15 787.140   5
   4   2  -8 3149.26 901.315   7
   4  -2  -8 4633.56 1205.80   7
  -4  -2   7 969.929 775.849   9
  -4   2   7 2675.90 1346.12   6
  -4  -2   7 2114.11 1253.34   6
  -4   2   7 2303.60 635.182  14
  -4  -2   7 1775.54 698.084  14
   4   2  -7 1865.32 769.983   7
   4  -2  -7 1605.07 648.613   7
  -4   2   6 11066.0 1910.03   9
  -4   2   6 10812.3 2475.47   6
  -4  -2   6 11137.2 2922.56   9
  -4  -2   6 9559.89 2357.17   6
  -4   2   6 11939.2 1312.33  14
  -4  -2   6 13180.5 1646.44  14
   4   2  -6 14703.5 1746.87   7
   4  -2  -6 11842.3 1691.45   7
  -4   2   5 60869.3 4240.70   9
  -4   2   5 67939.1 5922.75   6
  -4  -2   5 53023.7 5196.68   6
  -4   2   5 57645.5 2607.74  14
  -4  -2   5 65211.2 3429.45  14
   4   2  -5 70577.1 3537.76   7
   4  -2  -5 64961.0 3644.61   7
  -4  -2   4 52845.5 5095.30   9
  -4   2   4 48616.8 4274.51   6
  -4  -2   4 44675.2 4280.91   6
  -4   2   4 54326.7 3851.55   9
  -4   2   4 48522.6 2226.56  14
  -4  -2   4 55668.5 3026.39  14
   4   2  -4 59428.3 2141.13  13
   4   2  -4 66399.7 3337.93   7
   4  -2  -4 58475.4 3362.32   7
   4   2  -4 61081.2 2345.52   3
  -4   2   3 21846.3 2646.65   6
  -4  -2   3 17882.8 2378.04   6
  -4  -2   3 14571.5 2505.59   9
   4   2  -3 28032.4 1291.80   3
  -4   2   3 23930.6 2532.74   9
  -4   2   3 24205.6 1403.72  14
  -4  -2   3 25696.8 1873.00  14
   4   2  -3 26504.6 1222.17  13
   4   2  -3 25602.9 1983.47   7
   4  -2  -3 25526.4 2050.03   7
  -4  -2   2 395.682 483.510   9
  -4   2   2 130.604 128.147   6
  -4  -2   2-82.8809 161.987   6
  -4   2   2 699.164 249.025  14
  -4  -2   2 139.601 104.898  14
  -4   2   2 102.923 53.8954  13
  -4   2   2 15.7717 78.9127  12
   4   2  -2 88.4543 63.1692  12
   4   2  -2 181.865 167.734   7
   4  -2  -2 243.657 245.996   7
  -4  -2   1 23205.7 2949.80   9
   4   2  -1 32173.2 2310.39   8
  -4   2   1 31820.1 1345.01  14
  -4  -2   1 16478.2 1419.07  12
   4   2  -1 31113.6 2176.12   7
   4   2  -1 47053.2 2354.54  12
  -4   2   1 25442.9 2313.98  12
   4  -2  -1 30266.1 2138.50   7
   4  -2  -1 32786.8 942.497  11
  -4  -2   1 30219.5 1312.19   3
  -4   2   1 27377.7 2603.64   6
  -4  -2   1 26436.3 2540.93   6
  -4  -2   0 56800.6 4330.65   9
   4   2   0 88345.3 3802.68   8
  -4   2   0 80514.4 1882.84  14
  -4  -2   0 69210.0 3541.03  12
   4   2   0 86346.9 3680.62   7
   4  -2   0 83467.6 3563.67   7
  -4   2   0 66319.7 3984.50  12
   4  -2   0 87705.8 2040.59  11
  -4   2   0 78546.6 4593.55   6
  -4  -2   0 78993.7 4619.35   6
  -4   2   0 73092.3 1402.13   3
   4  -2   1 1794.14 659.915  10
  -4   2  -1 1484.51 759.604   6
  -4  -2  -1 922.982 631.567   6
  -4  -2  -1 1293.34 675.812   9
  -4   2  -1 1278.21 194.688  14
   4   2   1 1103.77 365.507   8
  -4  -2  -1 659.166 391.333  12
  -4   2  -1 1001.68 525.486  12
   4   2   1 2038.72 628.697   7
   4  -2   1 1216.61 468.696   7
   4  -2   1 1225.80 282.767  11
  -4  -2  -2 6228.53 1445.43   9
   4   2   2 8177.36 1124.89   8
   4  -2   2 8750.65 948.571   8
   4  -2   2 8994.59 1285.36   7
  -4  -2  -2 5323.45 1264.32  12
  -4   2  -2 6510.60 1552.56  12
  -4   2  -2 9603.35 1206.06   5
  -4  -2  -2 8302.29 1151.11   5
   4  -2   2 7827.38 854.140  11
   4  -2   2 7257.47 1316.65  10
   4   2   2 8074.80 1189.87  10
  -4   2  -3 3975.38 832.233   5
  -4  -2  -3 3594.17 794.546   5
  -4  -2  -3 2208.70 865.575   9
   4   2   3 5302.85 888.956   8
  -4  -2  -3 2289.74 982.647  12
  -4   2  -3 3644.17 1236.38  12
   4  -2   3 4112.94 699.774  11
   4   2   3 4075.37 930.052  10
   4  -2   3 3478.43 1114.22  10
  -4   2  -4 1747.02 613.542   5
  -4  -2  -4 2370.85 647.045   5
   4   2   4 1789.50 576.446   8
  -4  -2  -4 1344.16 735.153  12
  -4   2  -4 1252.26 875.154  12
   4  -2   4 1804.11 437.903  11
   4  -2   4 1567.34 713.582  10
  -4   2  -5 1879.35 745.306   5
  -4  -2  -5 1115.83 490.523   5
  -4  -2  -5 1517.90 950.537  12
  -4   2  -5 1325.03 833.487  12
   4  -2   5 1802.25 554.218  11
   4   2   5 2640.75 650.590  11
   4  -2   5 1577.84 862.833  10
   4   3  -8 11440.4 1769.98   5
   4  -3  -8 12380.4 1857.34   5
  -4   3   8 7765.54 1250.07  14
  -4  -3   8 13178.5 1950.77  14
   4  -3  -8 10295.0 1892.12   7
  -4   3   7 23874.1 4172.56   6
  -4  -3   7 18620.2 3660.36   6
  -4   3   7 18838.7 1791.88  14
  -4  -3   7 26020.4 2621.39  14
   4   3  -7 25750.7 2387.38   7
   4  -3  -7 25236.4 2650.88   7
  -4  -3   6 547.045 759.382   9
  -4   3   6 6.50178 158.959   9
  -4   3   6-291.890 511.585   6
  -4  -3   6 281.770 590.951   6
  -4   3   6 144.715 200.910  14
  -4  -3   6 80.1139 108.360  14
   4   3  -6 178.186 198.480   7
   4  -3  -6 85.8660 227.819   7
  -4  -3   5 1456.19 1119.13   9
   4   3  -5 2169.53 507.609   3
  -4   3   5 2292.97 784.780   9
  -4   3   5 2080.72 1100.97   6
  -4  -3   5 1846.20 953.861   6
  -4   3   5 2114.20 464.202  14
  -4  -3   5 1937.87 566.582  14
   4   3  -5 2416.05 649.753   7
   4  -3  -5 2083.21 597.018   7
  -4  -3   4 21450.8 3790.34   9
  -4   3   4 15999.4 2389.55   6
  -4  -3   4 14298.1 2274.43   6
  -4   3   4 15793.1 2048.91   9
  -4   3   4 15268.0 1201.07  14
  -4  -3   4 17353.0 1809.88  14
   4   3  -4 22655.4 1908.44   7
   4  -3  -4 21653.6 2062.48   7
   4   3  -4 19343.5 1425.23   3
   4   3  -4 18340.4 1295.50  13
  -4   3   3 25321.8 2864.03   6
  -4  -3   3 21563.1 2633.80   6
  -4  -3   3 17737.1 2980.32   9
   4   3  -3 29468.6 1531.89   3
  -4   3   3 24004.4 1387.48  14
   4   3  -3 28122.4 1416.71  13
   4   3  -3 27105.7 1971.48   7
   4  -3  -3 27174.1 2141.15   7
  -4  -3   2 391.060 406.042   9
  -4   3   2 144.107 220.015   6
  -4   3   2 531.570 196.488  14
   4   3  -2-206.481 211.002   8
   4   3  -2 549.855 204.676  12
   4   3  -2 126.749 217.090   7
   4  -3  -2 283.583 221.474   7
  -4  -3   1 21513.8 3087.36   9
  -4   3   1 30740.8 1304.06  14
   4   3  -1 30510.1 2368.68   8
   4   3  -1 32423.0 2224.47   7
   4  -3  -1 29741.4 2146.14   7
  -4   3   1 23521.7 2490.40  12
   4  -3  -1 29583.1 925.711  11
  -4   3   1 26920.7 2642.48   6
  -4  -3   1 24090.0 2484.12   6
  -4  -3   0 47276.1 4339.28   9
  -4   3   0 62433.5 1550.44   3
   4   3   0 60428.6 3186.02   8
  -4   3   0 62926.5 1680.84  14
   4   3   0 62702.8 3204.32   7
   4  -3   0 58811.9 2984.27   7
  -4   3   0 53879.2 3998.22  12
   4  -3   0 60253.7 1819.25  11
  -4   3   0 57467.5 3940.58   6
  -4  -3   0 49967.7 3709.82   6
  -4  -3  -1 42968.8 4097.75   9
   4   3   1 63909.5 3292.55   8
  -4   3  -1 64936.1 1461.40  14
   4   3   1 63566.2 3412.77   7
  -4  -3  -1 53430.2 3796.05  12
   4  -3   1 61831.6 3157.46   7
  -4   3  -1 52364.8 4089.00  12
   4  -3   1 62405.3 2285.84  11
  -4   3  -1 57617.4 2034.87   3
   4  -3   1 72495.9 3965.06  10
  -4   3  -1 77811.6 5031.40   6
  -4  -3  -1 71452.8 4917.76   6
  -4   3  -2 4311.32 823.988   5
  -4  -3  -2 2978.95 1134.15   9
   4   3   2 5127.70 934.324   8
  -4  -3  -2 4299.10 1236.52  12
  -4   3  -2 4770.58 1347.09  12
   4  -3   2 5303.88 969.125   7
   4  -3   2 6355.12 820.915  11
  -4  -3  -2 5160.70 852.505   5
   4  -3   2 5841.55 1240.71  10
   4   3   2 5750.82 928.203  10
  -4  -3  -3 7545.33 1728.19   9
   4   3   3 11091.4 1412.55   8
   4  -3   3 12108.1 1562.63   7
  -4  -3  -3 7549.26 1747.32  12
  -4   3  -3 8287.56 1960.77  12
  -4   3  -3 10068.4 1294.05   5
  -4  -3  -3 9914.87 1304.87   5
   4  -3   3 12027.8 1286.76  11
   4  -3   3 12171.3 2009.80  10
  -4   3  -4 828.346 405.644   5
  -4  -3  -4 267.726 255.173   5
   4   3   4 698.319 373.550   8
  -4  -3  -4 694.444 607.233  12
  -4   3  -4 765.631 687.865  12
   4  -3   4 684.266 393.170  11
   4  -3   4 762.915 641.739  10
  -4  -3  -5 12143.1 2646.48  12
  -4   3  -5 14610.5 2884.18  12
  -4   3  -5 16785.5 1905.86   5
  -4  -3  -5 19526.5 2106.55   5
   4  -3   5 18579.3 1957.59  11
   4  -3   5 16813.8 2858.90  10
   4  -4  -8 8986.33 1528.76   5
   4   4  -8 7416.71 1394.46   5
  -4  -4   7 1039.87 1077.63   9
  -4   4   7 1112.90 405.808  14
   4   4  -7 3057.91 852.912   5
   4  -4  -7 2471.05 764.730   5
   4  -4  -7 2894.68 923.332   7
  -4  -4   6 144.518 830.343   9
   4   4  -6 254.112 146.960   3
  -4   4   6 758.617 549.931   6
  -4  -4   6 190.297 306.071   6
  -4   4   6 331.144 278.266  14
   4   4  -6 713.456 437.471   7
   4  -4  -6 900.140 497.669   7
  -4  -4   5 26570.2 4994.85   9
  -4   4   5 58570.9 3985.35   9
  -4   4   5 54014.1 5505.40   6
  -4  -4   5 37307.4 4514.62   6
  -4   4   5 40788.5 2169.10  14
   4   4  -5 55580.3 3004.11   7
   4  -4  -5 45812.4 3193.36   7
   4   4  -5 53498.3 2801.28   3
   4   4  -4 76848.5 3010.52   3
  -4  -4   4 79781.9 8309.97   9
  -4   4   4 73040.9 5332.36   6
  -4  -4   4 77313.5 5383.58   6
  -4   4   4 83651.6 4784.80   9
   4   4  -4 85327.5 4176.22   8
  -4   4   4 56857.7 2329.28  14
   4   4  -4 62067.7 2671.97  13
   4   4  -4 90469.1 3688.94   7
   4  -4  -4 75093.1 3949.10   7
  -4   4   3 12028.1 2029.51   6
  -4  -4   3 9190.06 1804.17   6
  -4  -4   3 7673.98 2284.01   9
   4   4  -3 13725.4 1636.76   8
  -4   4   3 14086.9 1068.44  14
   4   4  -3 12199.2 1033.46  13
   4   4  -3 14588.1 1447.89   7
   4  -4  -3 12457.1 1472.33   7
  -4  -4   2 5524.20 1828.63   9
  -4   4   2 8857.85 988.830   2
   4   4  -2 9349.50 1311.29   8
   4   4  -2 9676.58 1182.04   7
   4  -4  -2 10199.1 1314.51   7
  -4   4   2 9270.51 1618.72   6
  -4  -4   2 7908.52 1515.67   6
   4   4  -1 18902.9 1863.91   8
  -4   4   1 18273.4 1385.17   2
   4   4  -1 18343.9 1682.42   7
   4  -4  -1 17297.7 1656.92   7
  -4   4   1 16718.3 2110.08   6
  -4  -4   1 13357.4 1935.93   6
   4   4   0 111501. 4536.97   8
   4   4   0 109125. 4301.91   7
   4  -4   0 101977. 3969.78   7
  -4   4   0 100599. 5903.17  12
   4  -4   0 117678. 2769.92  11
  -4   4   0 117860. 5507.71   6
  -4  -4   0 101186. 5182.46   6
  -4   4  -1 250.956 416.084   6
  -4  -4  -1 205.520 337.432   6
  -4  -4  -1 2.39223 346.171   9
  -4   4  -1 110.281 140.372   3
   4   4   1 4.81936 79.1950   8
  -4   4  -1 301.222 398.357  12
   4  -4   1 294.160 322.868   7
   4  -4   1 9.01486 125.315  11
   4  -4   1 144.188 352.769  10
  -4   4  -2 845.192 636.158   6
  -4  -4  -2-353.722 368.270   6
  -4  -4  -2 83.3578 322.701   9
   4   4   2 41.8952 103.729   8
  -4  -4  -2-50.7992 260.896  12
  -4   4  -2 52.7573 150.159  12
   4  -4   2-40.4748 57.7597   7
   4   4   2 113.720 184.829   1
   4  -4   2 30.1421 181.947  11
   4  -4   2 77.6958 282.020  10
  -4   4  -3 3687.83 809.215   5
  -4  -4  -3 3174.15 764.085   5
   4   4   3 4091.08 883.620   8
   4  -4   3 3359.77 826.559   7
  -4  -4  -3 2257.39 1019.92  12
  -4   4  -3 2478.27 1090.77  12
   4  -4   3 4555.90 844.213  11
   4  -4   3 4044.00 1212.28  10
   4   4   4 6431.33 1151.62   8
  -4  -4  -4 3578.77 1459.53  12
  -4   4  -4 4886.21 1651.34  12
  -4   4  -4 7022.06 1130.78   5
  -4  -4  -4 6335.74 1127.39   5
   4  -4   4 7250.26 1187.95  11
   4  -4   4 7254.14 1745.35  10
  -4   4  -5 1155.72 552.517   5
  -4  -4  -5 844.252 376.858   5
   4  -4   5 1495.21 624.990  11
  -4  -5   7 3423.32 1791.47   9
   4   5  -7 6836.23 1264.78   3
  -4   5   7 5300.57 924.981  14
   4   5  -7 5145.71 1093.65   5
   4  -5  -7 4992.13 1080.18   5
   4   5  -7 4786.88 1071.45   1
   4  -5  -7 5351.62 1274.30   7
  -4  -5   6 421.195 759.573   9
   4   5  -6-117.047 130.974   3
  -4   5   6 973.442 741.818   6
  -4  -5   6 87.6556 501.605   6
  -4   5   6 625.356 260.855  14
   4   5  -6-130.167 234.084   8
   4  -5  -6 437.526 457.884   7
  -4   5   5 10965.9 2450.67   6
  -4   5   5 14770.7 1996.33   9
  -4  -5   5 2913.32 1732.29   9
  -4  -5   5 6348.96 1861.06   6
   4   5  -5 10992.7 1550.05   8
  -4   5   5 8341.62 985.809  14
   4   5  -5 9882.92 1232.89  13
   4  -5  -5 9342.52 1505.72   7
   4   5  -5 9918.33 1308.62   3
  -4   5   4 9119.39 1937.83   6
  -4  -5   4 7323.59 1789.68   6
   4   5  -4 8769.49 1132.25   3
  -4  -5   4 9230.22 2994.76   9
   4   5  -4 8331.44 1311.68   8
  -4   5   4 6825.97 942.544   2
  -4   5   4 7957.31 900.126  14
   4   5  -4 8517.02 1084.13  13
   4   5  -4 9151.69 1137.65   7
   4  -5  -4 8319.84 1320.78   7
  -4  -5   3 1743.20 1334.50   9
  -4   5   3 4406.96 1214.59   6
  -4  -5   3 2729.24 971.948   6
  -4   5   3 4178.10 737.001   2
   4   5  -3 4577.45 945.759   8
   4   5  -3 4415.07 686.066  13
   4   5  -3 4266.92 744.219   7
   4  -5  -3 4379.85 911.248   7
  -4   5   2 1328.35 424.082   2
  -4  -5   2 374.125 215.855   9
  -4   5   2 1472.99 643.625   6
  -4  -5   2 721.252 529.844   6
   4   5  -2 1463.55 536.563   8
   4   5  -2 2763.26 551.516  13
   4   5  -2 1504.92 413.849   7
   4  -5  -2 1628.60 518.982   7
  -4   5   1 2019.51 476.329   2
  -4  -5   1 1141.36 1120.50   9
  -4   5   1 2236.43 777.232   6
  -4  -5   1 1338.13 577.185   6
   4   5  -1 2742.56 765.743   8
   4   5  -1 3264.76 680.109   7
   4  -5  -1 2653.96 606.543   7
  -4  -5   0 20150.1 3708.34   9
   4   5   0 27581.7 2333.29   8
  -4   5   0 26185.3 1741.95   2
   4   5   0 27738.3 2208.30   7
   4  -5   0 26301.1 2009.91   7
  -4   5   0 23069.0 3058.90  12
   4  -5   0 33854.6 2823.11  10
  -4   5   0 29012.4 2749.66   6
  -4  -5   0 24626.4 2577.47   6
  -4   5  -1 20281.5 1387.94   3
   4   5   1 18721.8 1964.98   8
  -4   5  -1 18244.3 1433.48   2
   4  -5   1 20241.1 1805.83   7
  -4   5  -1 17116.7 2803.51  12
   4   5   1 20567.0 2006.30   1
   4  -5   1 21587.9 2454.44  10
  -4   5  -1 22338.9 2623.93   6
  -4  -5  -1 21428.1 2644.53   6
  -4   5  -2 2072.76 921.984   6
  -4  -5  -2 627.819 561.354   6
  -4  -5  -2 756.850 701.481   9
  -4   5  -2 406.828 170.890   3
   4   5   2 609.633 242.746   8
   4   5   2 567.772 272.057   1
  -4   5  -2 914.363 776.084  12
   4  -5   2 992.326 468.641   7
   4  -5   2 908.425 324.143  11
   4  -5   2 773.691 478.577  10
  -4   5  -3 881.633 338.443   5
  -4  -5  -3 640.495 366.493   5
   4   5   3 476.397 312.640   8
  -4   5  -3 857.136 678.852  12
   4  -5   3 692.619 276.346  11
   4  -5   3 187.428 136.285  10
  -4   5  -4 911.473 462.228   5
  -4  -5  -4 552.171 247.867   5
   4   5   4 102.544 91.7595   8
  -4  -5  -4 551.672 552.017  12
  -4   5  -4 193.932 304.948  12
   4  -5   4 460.400 152.567  11
   4  -5   4 69.9188 289.713  10
   4   5   5 6825.53 1291.81   8
   4  -5   5 6634.18 1309.54  11
  -4  -6   7-76.8090 613.962   9
   4   6  -7-45.1267 151.257   3
   4   6  -7 478.280 344.740   1
   4   6  -7 253.417 278.246   5
   4  -6  -7 140.983 62.2021   5
  -4  -6   6 6535.48 2718.17   9
  -4   6   6 23715.3 3956.99   6
  -4  -6   6 11172.4 2689.06   6
   4   6  -6 17708.4 2040.92   8
   4  -6  -6 18535.0 2016.41   5
  -4   6   6 16722.5 1543.02  14
   4   6  -6 14733.7 2039.96   1
   4  -6  -6 19206.2 2312.93   7
   4   6  -6 17275.5 1946.92   3
   4   6  -5 18599.7 1890.22   3
  -4   6   5 22246.6 3479.79   6
  -4  -6   5 10037.3 2344.24   6
  -4  -6   5 8319.42 3112.27   9
   4   6  -5 17010.8 1964.36   8
  -4   6   5 16255.9 1514.58   2
  -4   6   5 16312.9 1398.22  14
   4   6  -5 18759.4 1802.83  13
   4  -6  -5 15162.5 1916.70   7
   4   6  -5 16813.6 1993.56   1
  -4  -6   4-479.658 704.205   9
  -4   6   4 917.475 760.548   6
  -4  -6   4 575.692 303.407   6
   4   6  -4 8.99314 188.523   3
   4   6  -4 325.788 313.987   8
   4   6  -4 600.572 328.860  13
   4  -6  -4 239.752 383.367   7
  -4   6   4 58.2374 41.9441   2
  -4   6   3 6230.81 1416.50   6
  -4  -6   3 2987.82 1780.07   9
  -4  -6   3 4055.52 1147.26   6
   4   6  -3 7105.55 1246.78   8
   4   6  -3 7048.41 959.945  13
  -4   6   3 6473.53 911.157   2
   4  -6  -3 5520.22 1063.11   7
  -4   6   2 4229.11 728.306   2
  -4  -6   2 2327.48 1544.55   9
  -4   6   2 5434.54 1288.05   6
  -4  -6   2 4221.01 1190.31   6
   4   6  -2 4569.36 1051.95   8
   4   6  -2 5553.59 836.190  13
   4   6  -2 5508.61 869.904   7
   4   6  -2 4372.11 980.193   1
   4  -6  -2 5098.00 953.293   7
  -4  -6   1 4057.97 1964.70   9
   4   6  -1 7222.55 1279.27   8
  -4   6   1 5417.93 847.146   2
   4   6  -1 5278.90 934.744   7
   4  -6  -1 6361.39 1037.39   7
   4   6  -1 5725.51 1224.17   1
  -4   6   1 6842.25 1326.53   6
  -4  -6   1 5273.26 1192.27   6
  -4  -6   0 5636.78 2273.41   9
   4   6   0 5778.91 1071.23   8
  -4   6   0 6964.40 918.983   2
   4  -6   0 6881.72 1042.67   7
   4   6   0 6471.83 1162.43   1
   4  -6   0 8317.31 1512.00  10
  -4   6   0 8063.19 1473.48   6
  -4  -6   0 4969.81 1235.70   6
  -4   6  -1 526.763 237.116   2
  -4  -6  -1 571.307 793.832   9
  -4   6  -1 586.725 442.198   6
  -4  -6  -1 265.688 295.384   6
   4   6   1 197.946 28.5516   8
   4   6   1 228.454 130.008   1
  -4   6  -1 211.550 371.714  12
   4  -6   1 395.340 297.871   7
   4  -6   1 615.371 335.714  10
   4   6   2 10715.7 1497.01   1
  -4  -6  -2 7134.31 2426.45   9
   4   6   2 10193.2 1543.19   8
  -4   6  -2 8676.46 1020.70   2
  -4   6  -2 9544.60 2273.25  12
   4  -6   2 9336.87 1859.51  10
  -4   6  -2 12459.0 2134.04   6
  -4  -6  -2 9410.48 1963.14   6
  -4   6  -3 968.645 667.448   6
  -4  -6  -3 899.087 743.442   6
   4   6   3 420.793 513.876   8
  -4   6  -3 745.163 653.512  12
   4  -6   3 603.862 768.484  10
  -4   6  -4 38.3041 141.983   5
  -4  -6  -4-16.3208 194.459   5
  -4  -7   6 199.148 312.151   9
   4   7  -6 228.142 218.540   3
   4   7  -6-87.9009 186.892   1
   4  -7  -6 415.954 565.045   7
   4   7  -5 30115.7 2477.43   3
   4   7  -5 28157.5 2576.18   8
  -4   7   5 25302.0 1987.50   2
   4   7  -5 27052.2 2686.36   1
   4   7  -5 30182.0 2410.30  13
   4  -7  -5 24352.3 2534.59   7
   4   7  -4 3963.17 1049.80   1
  -4  -7   4 2089.99 1799.06   9
   4   7  -4 5402.62 1178.49   8
   4   7  -4 3721.10 841.579  13
  -4   7   4 4253.18 861.387   2
   4  -7  -4 3500.52 898.876   7
  -4   7   3 2486.32 611.247   2
  -4  -7   3 1494.71 1407.98   9
   4   7  -3 1908.02 757.627   1
   4   7  -3 2798.15 818.670   8
   4   7  -3 1924.26 529.753  13
   4  -7  -3 1910.82 556.001   7
  -4   7   2 1196.58 451.553   2
  -4  -7   2 476.839 571.563   9
   4   7  -2 1206.20 508.747  13
   4   7  -2 1773.39 750.394   8
   4  -7  -2 1275.04 462.290   7
   4   7  -2 1359.03 656.080   1
  -4  -7   1 3081.12 1794.58   9
   4   7  -1 6130.28 1273.44   8
   4   7  -1 6374.14 1343.29   1
  -4   7   1 6477.70 902.194   2
   4  -7  -1 6232.30 1050.41   7
   4  -7  -1 6591.83 1359.89  10
  -4  -7   0 8459.50 2886.83   9
   4   7   0 11680.0 1669.77   1
   4   7   0 13927.0 1818.33   8
  -4   7   0 11755.9 1257.33   2
   4  -7   0 12170.4 1400.58   7
   4  -7   0 10384.2 1782.34  10
  -4   7  -1 105.343 55.3663   2
  -4  -7  -1-264.629 538.535   9
   4   7   1 497.182 325.260   8
   4   7   1-188.455 305.960   1
  -4   7  -1-58.0257 383.199  12
   4  -7   1-467.356 400.779  10
  -4   7  -2-18.0047 72.7254   2
   4   7   2 229.270 176.810   1
   4   7   2 128.030 312.136   8
  -4   7  -2 341.855 441.032  12
   4  -7   2-141.519 517.467  10
   4   8  -5 13357.1 1755.62   3
   4   8  -5 10511.9 1774.58   1
  -4   8   5 11306.2 1356.14   2
   4   8  -5 10804.4 1505.59  13
   4  -8  -5 10741.2 1695.73   7
   4   8  -4 180.897 78.0170   1
  -4   8   4 130.280 105.330   2
  -4  -8   4-204.121 661.883   9
   4   8  -4 320.366 286.993   8
   4   8  -4 197.347 309.643  13
   4  -8  -4 170.658 267.211   7
   4   8  -3 1051.71 458.332   1
  -4  -8   3 562.072 883.453   9
  -4   8   3 573.666 295.128   2
   4   8  -3 958.020 394.252   8
   4   8  -3 744.949 424.293  13
   4  -8  -3 1265.81 632.036   7
  -4  -8   2 129.093 400.215   9
  -4   8   2 1196.39 388.979   2
   4   8  -2 869.590 469.966   8
   4   8  -2 2445.29 646.711  13
   4  -8  -2 1211.43 473.167   7
   4   8  -2 1399.42 557.842   1
   4  -8  -2 1701.90 741.514  10
  -4  -8   1 2941.53 1843.32   9
  -4   8   1 3518.99 740.780   2
   4   8  -1 4408.56 1032.18   8
   4   8  -1 4693.75 1194.18   1
   4  -8  -1 3596.08 1080.91  10
  -4  -8   0 1967.88 1538.22   9
  -4   8   0 3951.65 773.760   2
   4   8   0 3697.12 932.717   8
   4   8   0 3545.60 931.705   1
   4  -8   0 1094.93 510.168  10
   4   8   1-111.744 137.809   1
  -4  -8  -1 201.614 169.465   9
  -4   8  -1-71.1861 145.599   2
   4   8   1 65.6845 258.090   8
  -4   8  -1 105.905 259.457  12
   4  -8   1-86.1728 388.259  10
  -4   8  -2 2732.63 610.743   2
   4   8   2 3545.85 959.576   1
   4   9  -4 6818.76 1307.17   8
   4   9  -3 4415.83 1094.49   8
  -4  -9   2 432.162 624.059   9
   4   9  -2 127.043 189.257   8
   4  -9  -2 308.610 198.788  10
  -4  -9   1 636.640 830.862   9
   4   9  -1 1595.52 728.828   8
   4  -9  -1 857.989 577.023  10
  -4  -9   0 3092.27 1871.11   9
   4  -9   0 5796.14 1460.35  10
   5   0  -8 1848.22 815.522   7
  -5   0   7 928.267 724.731   9
  -5   0   7 1623.48 1132.67   6
  -5   0   7 2910.20 805.220  14
   5   0  -7 2976.72 958.398   7
  -5   0   6 16192.5 3295.92   6
  -5   0   6 21354.0 2111.77  14
   5   0  -6 22150.4 2348.99   7
  -5   0   5 37191.0 4211.57   9
  -5   0   5 44353.9 4497.61   6
  -5   0   5 43585.6 2750.84  14
  -5   0   4 8043.43 1949.60   6
  -5   0   4 8269.88 1945.04   9
  -5   0   4 9462.53 1228.92  14
   5   0  -4 7952.22 1349.16   7
  -5   0   3 954.226 568.525   9
  -5   0   3 1257.21 729.726   6
  -5   0   3 1113.90 362.651  14
   5   0  -3 780.305 497.123   7
  -5   0   2 114.534 252.614   6
  -5   0   2 2.03905 106.935   9
  -5   0   2 448.100 186.952  14
   5   0  -2 437.776 357.442   7
  -5   0   1 96928.7 6110.28   9
  -5   0   1 104468. 3200.51  14
   5   0  -1 111787. 4611.76   7
  -5   0   1 95885.3 5666.58   6
  -5   0   0 32897.9 3535.24   9
   5   0   0 36509.9 2553.22   8
   5   0   0 36563.9 2719.62   7
  -5   0   0 33914.3 3501.82   6
  -5   0  -1 241.165 459.693   6
  -5   0  -1 131.807 239.624   9
   5   0   1-262.496 194.370   8
  -5   0  -1 27.6803 257.685  12
   5   0   1 14.5267 242.109   7
  -5   0  -2 6097.98 1763.14   6
  -5   0  -2 5361.61 1458.95   9
   5   0   2 5188.42 949.520   8
  -5   0  -2 3066.97 1041.94  12
   5   0   2 5623.26 1177.83   7
   5   0   2 6378.73 823.083  11
   5   0   2 5457.49 1200.80  10
  -5   0  -3 905.389 317.880   5
  -5   0  -3 343.922 409.267   9
  -5   0  -3 512.479 531.540  12
   5   0   3 801.895 325.417  11
   5   0   3 180.571 159.463  10
  -5   0  -4 4066.38 1443.94  12
   5   0   4 5603.04 864.891  11
   5   0   4 6072.03 1536.14  10
   5   1  -8 36813.6 3407.12   7
   5  -1  -8 34920.5 3358.67   7
  -5  -1   7 2988.70 1623.68   9
  -5   1   7 3885.85 1698.33   6
  -5  -1   7 4206.17 1712.03   6
  -5   1   7 4283.59 977.052  14
  -5  -1   7 4949.90 1112.30  14
   5   1  -7 5986.93 1286.19   7
   5  -1  -7 5336.91 1265.00   7
  -5  -1   6 381.233 408.155   9
  -5   1   6 676.004 444.966   9
  -5   1   6 715.928 709.987   6
  -5  -1   6 1205.73 871.091   6
  -5   1   6 767.001 367.339  14
  -5  -1   6 617.134 422.839  14
   5   1  -6 1566.66 648.331   7
   5  -1  -6 908.764 323.524   7
  -5  -1   5 1866.61 1043.06   9
  -5   1   5 1556.72 850.920   9
  -5   1   5 1602.51 979.970   6
  -5  -1   5 1532.67 985.344   6
  -5   1   5 3009.83 663.228  14
  -5  -1   5 3362.82 804.514  14
   5   1  -5 3290.96 879.698   7
   5  -1  -5 3381.59 943.218   7
  -5   1   4 13634.1 2481.49   6
  -5  -1   4 12007.4 2336.36   6
  -5  -1   4 9328.37 2171.57   9
  -5   1   4 12973.7 2281.42   9
  -5   1   4 12190.6 1312.65  14
  -5  -1   4 13680.5 1516.50  14
   5   1  -4 14339.9 1755.57   7
   5  -1  -4 14728.1 1788.88   7
  -5   1   3 33785.0 3627.42   6
  -5  -1   3 35140.9 3719.32   6
  -5  -1   3 28429.5 3600.01   9
  -5   1   3 34455.4 3650.73   9
  -5   1   3 38182.1 2124.43  14
  -5  -1   3 39082.5 2397.65  14
   5   1  -3 42532.3 2884.71   7
   5  -1  -3 40231.8 2876.79   7
  -5  -1   2 2868.94 1093.10   9
  -5   1   2 2861.66 989.854   6
  -5  -1   2 3370.89 1109.93   6
  -5   1   2 4154.07 1247.33   9
  -5   1   2 4031.27 628.260  14
  -5  -1   2 3838.85 695.708  14
  -5   1   2 2298.23 570.295  12
   5   1  -2 3395.14 831.800   7
   5  -1  -2 3825.14 811.874   7
  -5   1   1 2090.87 817.563   6
  -5  -1   1 2797.14 973.454   6
  -5  -1   1 1928.15 899.808   9
  -5   1   1 2741.87 1021.92   9
  -5   1   1 2678.24 490.667  14
  -5  -1   1 1450.91 482.168  12
  -5   1   1 1534.08 581.707  12
   5   1  -1 2199.21 738.702   7
   5  -1  -1 2547.75 699.576   7
  -5  -1   0 26106.0 3257.37   9
  -5   1   0 35576.1 3668.45   9
   5   1   0 40207.5 2737.97   8
   5   1   0 37710.5 2791.67   7
  -5  -1   0 25109.8 2340.93  12
   5  -1   0 39163.3 2782.27   7
  -5   1   0 27296.4 2658.17  12
  -5   1   0 37548.4 3624.70   6
  -5  -1   0 34543.4 3438.50   6
  -5   1  -1 272.506 428.741   6
  -5  -1  -1-90.5468 184.472   6
  -5  -1  -1-80.4672 349.429   9
  -5   1  -1 524.747 584.571   9
   5   1   1 892.952 416.213   8
   5  -1   1 217.839 108.773   8
  -5  -1  -1 76.0249 219.370  12
  -5   1  -1 246.663 193.724  12
   5   1   1 201.989 369.037   7
   5  -1   1 267.740 329.636   7
   5  -1   1 264.532 197.757  11
  -5  -1  -2 2613.91 1302.41   9
  -5   1  -2 4770.22 1411.57   9
   5   1   2 19191.1 1826.95   8
   5  -1   2 18921.8 1662.11   8
   5   1   2 18054.3 2148.12   7
   5  -1   2 16943.8 2195.06   7
  -5  -1  -2 5286.60 1472.93  12
  -5   1  -2 5436.90 1536.63  12
   5  -1   2 9149.14 971.978  11
   5  -1   2 11132.8 1938.68  10
   5   1   2 12086.8 1715.86  10
  -5   1  -2 11154.5 2371.11   6
  -5  -1  -2 13832.0 2611.95   6
  -5   1  -3 1859.86 599.781   5
  -5  -1  -3 2232.81 711.462   5
  -5  -1  -3 1674.35 852.983   9
  -5   1  -3 1575.17 845.497   9
  -5  -1  -3 1093.23 693.565  12
  -5   1  -3 1484.13 780.284  12
   5  -1   3 1763.94 472.913  11
   5   1   3 1827.13 731.885  10
   5  -1   3 1701.86 676.885  10
  -5  -1  -4 609.434 589.877  12
  -5   1  -4 703.921 606.896  12
   5  -1   4 800.004 328.937  11
   5   1   4 893.893 440.124  11
   5  -1   4 1999.75 916.711  10
   5   2  -8 3726.66 1131.99   7
  -5   2   7 310.790 258.667   6
  -5  -2   7 174.156 576.040   6
  -5   2   7 212.650 194.608  14
  -5  -2   7 825.274 443.376  14
   5   2  -7 435.275 30.3229   7
   5  -2  -7 747.889 452.338   7
  -5   2   6 10150.6 2147.88   9
  -5  -2   6 6216.75 2271.33   9
  -5   2   6 9815.35 2680.99   6
  -5  -2   6 8549.38 2452.84   6
  -5   2   6 9732.00 1332.57  14
  -5  -2   6 11868.5 1700.93  14
   5   2  -6 11047.1 1616.74   7
   5  -2  -6 10014.0 1620.72   7
  -5   2   5 7071.87 1943.64   6
  -5  -2   5 6158.79 1932.91   6
  -5   2   5 7433.97 1748.58   9
  -5  -2   5 5206.34 1909.62   9
  -5   2   5 6485.84 972.347  14
  -5  -2   5 7706.46 1292.79  14
   5   2  -5 9554.82 1526.56   7
   5  -2  -5 9483.01 1634.33   7
  -5   2   4 14168.1 2525.74   6
  -5  -2   4 11348.8 2257.87   6
  -5  -2   4 10321.8 2445.73   9
  -5   2   4 11201.1 2076.25   9
  -5   2   4 14360.4 1387.98  14
  -5  -2   4 16325.5 1728.68  14
   5   2  -4 16858.2 1838.92   7
   5  -2  -4 14846.5 1824.11   7
  -5   2   3 5286.40 1414.59   9
  -5  -2   3 4623.83 1499.07   9
  -5   2   3 5499.01 1512.75   6
  -5  -2   3 5149.86 1476.07   6
  -5   2   3 6020.07 796.622  14
  -5  -2   3 5790.75 975.230  14
   5   2  -3 6367.72 1112.48   7
   5  -2  -3 6083.24 1128.61   7
  -5  -2   2 240.297 437.448   9
  -5   2   2 772.171 526.483   6
  -5  -2   2-20.5619 250.098   6
  -5   2   2 1010.47 669.061   9
  -5   2   2 583.352 226.065  14
  -5   2   2 376.611 286.564  12
   5   2  -2 1087.84 685.995   7
   5  -2  -2 738.534 509.607   7
  -5  -2   1 23505.0 3356.69   9
  -5   2   1 42808.5 3975.49   9
   5   2  -1 35898.6 2712.63   8
  -5   2   1 32380.0 1609.87  14
   5   2  -1 36613.3 2707.36   7
   5  -2  -1 37022.6 2661.30   7
  -5   2   1 26387.0 2525.91  12
  -5   2   1 31819.4 3275.75   6
  -5  -2   1 34756.1 3432.44   6
  -5  -2   0 33411.3 3831.47   9
   5   2   0 50833.9 3202.84   8
  -5  -2   0 35371.7 2982.46  12
   5   2   0 50693.1 3267.15   7
   5  -2   0 47743.5 3078.36   7
  -5   2   0 34927.0 3298.87  12
   5  -2   0 48416.5 1707.54  11
  -5   2   0 52133.8 4190.71   6
  -5  -2   0 48438.0 4078.83   6
  -5  -2  -1 8089.01 1871.28   9
   5   2   1 11752.1 1505.24   8
   5  -2   1 10161.1 1238.28   8
   5   2   1 10616.8 1527.55   7
  -5  -2  -1 8717.16 1621.34  12
   5  -2   1 11463.7 1558.85   7
  -5   2  -1 7951.08 1668.67  12
   5  -2   1 10114.9 939.513  11
   5  -2   1 13011.0 1858.12  10
  -5   2  -1 13710.2 2404.98   6
  -5  -2  -1 12620.9 2346.82   6
  -5   2  -2 2627.04 1189.61   6
  -5  -2  -2 2738.83 1202.86   6
  -5  -2  -2 853.992 587.069   9
   5   2   2 1633.73 530.498   8
  -5  -2  -2 1219.57 681.279  12
  -5   2  -2 1805.21 890.157  12
   5  -2   2 2022.25 692.658   7
   5  -2   2 1814.27 425.307  11
   5  -2   2 1181.74 712.433  10
   5   2   2 1769.61 667.496  10
  -5   2  -3 3678.50 854.677   5
  -5  -2  -3 3278.89 885.523   5
  -5  -2  -3 2062.91 1000.70   9
   5   2   3 2678.93 685.439   8
  -5  -2  -3 2380.14 1011.03  12
  -5   2  -3 2723.57 1145.71  12
   5  -2   3 2479.92 533.714  11
  -5  -2  -3 3807.79 1477.59   6
   5  -2   3 3035.70 967.243  10
  -5  -2  -4 5060.54 1638.52  12
  -5   2  -4 6256.82 1816.68  12
   5  -2   4 7182.54 1076.59  11
   5   2   4 9805.61 1209.94  11
   5  -2   4 8299.80 1926.17  10
  -5  -3   7 3709.06 2025.96   9
  -5   3   7 7236.61 2344.63   6
  -5  -3   7 4363.11 1783.40   6
  -5   3   7 7267.21 1196.27  14
  -5  -3   7 8490.64 1558.82  14
   5   3  -7 8404.84 1488.88   7
   5  -3  -7 7953.90 1528.33   7
  -5   3   6 6418.64 1597.34   9
  -5  -3   6 4151.77 2150.58   9
  -5   3   6 7688.21 2377.64   6
  -5  -3   6 4824.66 1863.88   6
  -5   3   6 6878.39 1075.59  14
  -5  -3   6 6854.24 1343.21  14
   5   3  -6 7423.63 1343.24   7
   5  -3  -6 7082.35 1402.97   7
  -5  -3   5-315.211 519.281   9
  -5   3   5-237.405 296.363   9
  -5   3   5-78.5360 114.537   6
  -5  -3   5 21.1830 168.145   6
  -5   3   5 106.978 57.8884  14
  -5  -3   5 106.259 387.657  14
   5   3  -5-8.73419 145.392  13
   5   3  -5-73.4730 224.470   7
   5  -3  -5-267.361 161.764   7
  -5  -3   4 486.313 525.261   9
  -5   3   4 588.598 484.345   9
  -5   3   4 1017.31 704.416   6
  -5  -3   4 400.624 418.309   6
  -5   3   4 1525.17 467.089  14
   5   3  -4 1625.85 405.837  13
   5   3  -4 333.086 251.080   7
   5  -3  -4 1729.45 694.701   7
  -5   3   3 45803.3 4312.57   6
  -5  -3   3 41943.3 4145.64   6
  -5  -3   3 31872.9 4334.88   9
  -5   3   3 56999.6 4500.38   9
  -5   3   3 44198.0 2117.27  14
   5   3  -3 50110.8 3066.88   7
   5  -3  -3 48448.7 3200.17   7
  -5  -3   2 25948.6 3880.71   9
   5   3  -2 46651.4 3278.46   8
  -5   3   2 36852.2 1792.94  14
   5   3  -2 40670.3 2957.33   7
  -5   3   2 24520.5 2622.70  12
   5  -3  -2 39792.1 2835.99   7
  -5   3   2 36327.8 3538.79   6
  -5  -3   2 34899.2 3489.64   6
  -5  -3   1 340.677 526.403   9
  -5   3   1 89.2631 208.469   6
  -5  -3   1 241.053 319.293   6
  -5   3   1 410.558 222.062  14
   5   3  -1 335.752 227.454   8
  -5   3   1-86.2590 174.919  12
   5   3  -1 376.918 344.988   7
   5  -3  -1-119.002 172.052   7
  -5   3   0 794.419 576.987   6
  -5  -3   0 721.819 507.357   6
  -5  -3   0 59.0783 173.804   9
   5   3   0 492.545 390.569   8
  -5  -3   0 53.2515 142.461  12
  -5   3   0 560.114 435.175  12
   5   3   0 925.396 454.250   7
   5  -3   0 966.122 471.877   7
   5  -3   1 3780.38 1059.43  10
  -5   3  -1 4204.61 1372.77   6
  -5  -3  -1 2076.26 1010.84   6
  -5  -3  -1 2118.33 1059.83   9
   5   3   1 3630.74 900.353   8
  -5  -3  -1 1905.58 783.937  12
  -5   3  -1 1770.41 832.696  12
   5   3   1 3459.57 918.801   7
   5  -3   1 4062.76 939.581   7
  -5  -3  -2 13043.1 2617.94   9
   5   3   2 19549.8 2005.78   8
   5  -3   2 18809.1 2078.43   7
  -5  -3  -2 11847.7 2214.90  12
  -5   3  -2 13371.5 2506.38  12
   5  -3   2 17640.8 2421.24  10
  -5   3  -2 20836.8 3185.22   6
  -5  -3  -2 19402.4 3125.78   6
  -5   3  -3 500.684 579.301   6
  -5  -3  -3 302.794 410.353   6
   5   3   3 551.334 437.258   8
  -5  -3  -3 173.728 441.462  12
  -5   3  -3 690.689 592.819  12
   5  -3   3 150.735 34.4588  10
  -5  -3  -4 1709.21 997.508  12
   5  -3   4 2746.64 768.790  11
  -5  -4   8 1405.11 1232.65   9
  -5  -4   7 1902.68 1309.81   9
  -5   4   7 3902.61 1789.41   6
  -5  -4   7 3368.88 1728.39   6
  -5  -4   6 3829.94 2025.18   9
  -5   4   6 6170.38 2149.06   6
  -5  -4   6 3540.30 1692.45   6
  -5   4   6 5389.76 927.610  14
   5   4  -6 6565.35 934.543  13
   5  -4  -6 5593.60 1291.62   7
  -5  -4   5 455.084 843.801   9
  -5   4   5 28.4465 152.574   9
  -5   4   5 531.044 548.510   6
  -5  -4   5-723.168 800.730   6
  -5   4   5 622.957 364.270  14
   5   4  -5 134.788 148.515  13
   5   4  -5-317.545 318.136   7
   5  -4  -5-117.433 318.113   7
  -5   4   4 11708.3 2278.16   6
  -5  -4   4 9834.59 2074.27   6
  -5   4   4 16590.7 2481.38   9
  -5  -4   4 9333.41 2832.53   9
   5   4  -4 14113.0 1834.50   8
  -5   4   4 13314.3 1259.37  14
   5   4  -4 15573.8 1209.24  13
   5   4  -4 12333.0 1530.30   7
   5  -4  -4 12846.8 1773.06   7
  -5   4   3 17940.3 2716.60   6
  -5  -4   3 15242.8 2587.48   6
  -5  -4   3 10514.7 2874.45   9
   5   4  -3 20016.5 2211.39   8
  -5   4   3 18574.6 1375.23  14
   5   4  -3 19798.6 1923.32   7
   5  -4  -3 17253.0 1937.57   7
  -5  -4   2 871.798 853.035   9
  -5   4   2 1459.43 710.451   6
  -5  -4   2 760.533 666.382   6
  -5   4   2 1812.14 399.670  14
   5   4  -2 3221.15 1002.43   8
  -5   4   2 301.856 287.650  12
   5   4  -2 2572.79 753.647   7
   5  -4  -2 1191.35 550.222   7
  -5  -4   1 3743.98 1593.78   9
   5   4  -1 7179.66 1300.09   8
  -5   4   1 6158.82 686.487  14
   5   4  -1 6932.85 1241.50   7
   5  -4  -1 7212.84 1215.44   7
  -5   4   1 4814.50 1372.89  12
  -5   4   1 6856.64 1579.75   6
  -5  -4   1 6660.40 1539.30   6
  -5  -4   0 19155.1 3495.08   9
   5   4   0 33992.8 2807.94   8
   5   4   0 37215.4 2887.78   7
   5  -4   0 34800.7 2633.92   7
  -5   4   0 24054.8 3007.56  12
  -5   4   0 38123.4 3617.51   6
  -5  -4   0 36866.7 3602.05   6
  -5  -4  -1 11490.3 2710.91   9
   5   4   1 19470.7 2120.00   8
   5  -4   1 20006.4 2060.60   7
  -5   4  -1 13027.8 2317.59  12
   5  -4   1 23104.1 2638.34  10
  -5   4  -1 20268.6 2867.71   6
  -5  -4  -1 19720.9 2856.92   6
  -5   4  -2 493.733 375.601   6
  -5  -4  -2 1102.68 773.614   6
  -5  -4  -2 49.1786 321.471   9
   5   4   2 1409.92 573.689   8
  -5  -4  -2 518.311 544.012  12
  -5   4  -2 240.717 246.751  12
   5  -4   2 657.239 284.784   7
   5  -4   2 1056.04 658.510  10
   5   4   3 7938.60 1388.92   8
  -5  -4  -3 5576.50 1695.89  12
  -5   4  -3 5331.69 1723.32  12
  -5   4  -3 11447.3 2479.55   6
  -5  -4  -3 9780.22 2359.19   6
   5  -4   3 8198.09 1846.49  10
  -5  -5   7 549.622 710.450   9
  -5   5   7 2316.02 1306.48   6
  -5  -5   7 1606.45 1278.50   6
   5   5  -7 2306.37 805.774   8
  -5  -5   6 294.502 249.782   9
  -5   5   6 507.187 711.757   6
  -5  -5   6 31.1282 208.672   6
  -5   5   6 979.822 437.771  14
   5   5  -6 670.741 357.528   8
   5   5  -6 585.064 270.592  13
   5  -5  -6 1095.46 632.953   7
  -5  -5   5 914.273 1083.34   9
  -5   5   5 868.501 637.342   9
  -5   5   5 682.127 745.783   6
  -5  -5   5 977.998 795.486   6
  -5   5   5 820.904 341.988  14
   5   5  -5 1272.72 615.415   8
   5   5  -5 1033.46 414.773  13
   5  -5  -5 1900.38 720.163   7
  -5  -5   4 400.692 747.605   9
  -5   5   4 1860.24 946.379   9
  -5   5   4 1090.15 720.192   6
  -5  -5   4 540.725 456.897   6
  -5   5   4 871.905 321.006  14
   5   5  -4 213.757 282.741   8
   5   5  -4 1098.48 417.515  13
   5   5  -4 877.315 454.683   7
   5  -5  -4 899.824 482.421   7
  -5   5   3 23828.5 3157.10   6
  -5  -5   3 18460.6 2925.63   6
   5   5  -3 25906.5 2562.21   8
  -5   5   3 21572.8 1485.81  14
   5   5  -3 24049.6 2136.13   7
   5  -5  -3 22709.0 2265.03   7
  -5   5   2 8147.96 1760.73   6
  -5  -5   2 5620.39 1558.11   6
  -5  -5   2 3899.24 1990.84   9
   5   5  -2 8903.02 1496.21   8
  -5   5   2 8208.59 874.280  14
   5   5  -2 8366.59 1355.59   7
   5  -5  -2 8532.75 1362.58   7
  -5  -5   1-332.118 550.160   9
  -5   5   1 237.268 472.886   6
  -5  -5   1 13.6822 69.1881   6
  -5   5   1 299.498 187.778  14
   5   5  -1-105.085 253.856   8
  -5   5   1 213.212 331.539  12
   5   5  -1-200.613 37.3707   7
   5  -5  -1-99.4094 264.914   7
  -5  -5   0 3321.16 1582.47   9
  -5  -5   0 5499.96 1422.49   6
   5   5   0 6004.65 1247.53   8
   5   5   0 6972.12 1241.46   7
  -5   5   0 4309.18 1408.89  12
   5  -5   0 6137.85 1068.08   7
   5  -5   0 7555.10 1551.61  10
  -5   5   0 6731.27 1534.27   6
  -5   5  -1 1756.02 841.001   6
  -5  -5  -1 602.869 598.838   6
  -5  -5  -1-17.1931 232.280   9
   5   5   1 1036.42 540.459   8
  -5   5  -1 1063.24 715.915  12
   5  -5   1 929.196 421.247   7
   5  -5   1 1374.68 711.381  10
  -5   5  -2 6975.79 1828.71   6
  -5  -5  -2 5537.70 1635.91   6
   5   5   2 5219.91 1151.42   8
   5  -5   2 6577.92 1237.18   7
  -5   5  -2 3229.40 1373.59  12
   5  -5   2 6328.20 1595.29  10
  -5   5  -3 898.654 842.588   6
  -5  -5  -3 1331.98 879.028   6
   5   5   3 808.634 494.282   8
  -5   5  -3-366.389 564.037  12
  -5   6   7 1374.54 1089.16   6
  -5  -6   7 662.460 780.749   6
   5   6  -7 1479.88 560.989   5
  -5   6   6 7280.97 2208.90   6
  -5  -6   6 3565.06 1541.27   6
   5   6  -6 6454.82 1383.80   8
   5   6  -6 8493.00 1233.41  13
  -5   6   5 19253.3 3656.93   6
  -5  -6   5 14984.6 3305.83   6
  -5   6   5 18625.2 2661.89   9
  -5  -6   5 9905.75 3679.56   9
   5   6  -5 19645.2 2372.90   8
  -5   6   5 13048.3 1365.17  14
   5   6  -5 15858.3 1599.75  13
   5  -6  -5 19453.2 2343.70   7
  -5  -6   4 2215.13 1714.38   9
  -5   6   4 3730.09 1323.23   6
  -5  -6   4 2473.62 1082.86   6
  -5   6   4 3388.92 647.603  14
   5   6  -4 3219.87 901.782   8
   5   6  -4 2674.87 601.872  13
   5  -6  -4 2376.14 738.210   7
  -5  -6   3 145.146 402.562   9
  -5   6   3 31.3135 273.529   6
  -5  -6   3 255.315 387.702   6
  -5   6   3 694.644 319.050  14
   5   6  -3 938.844 625.563   8
   5  -6  -3 189.441 326.435   7
  -5  -6   2-364.208 909.283   9
  -5   6   2-385.183 355.330   6
  -5  -6   2-232.798 319.102   6
   5   6  -2 319.868 325.899   8
   5   6  -2-101.329 88.5734   7
   5  -6  -2-2.65237 8.98719   7
  -5  -6   1 23091.8 5008.46   9
   5   6  -1 32845.8 2928.93   8
   5   6  -1 35052.0 2736.24   7
   5  -6  -1 33556.6 2649.04   7
  -5   6   1 24888.8 3395.31  12
  -5   6   1 36039.8 3624.95   6
  -5  -6   1 24858.3 3069.00   6
  -5  -6   0 7962.40 2896.94   9
   5   6   0 11933.2 1750.10   8
   5  -6   0 11416.2 1518.04   7
  -5   6   0 11273.3 2412.48  12
   5   6   0 12248.8 1768.24   1
   5  -6   0 14335.7 2210.29  10
  -5   6   0 12326.0 2167.32   6
  -5  -6   0 9809.58 1954.92   6
  -5  -6  -1-311.128 366.146   9
  -5   6  -1 6.53280 230.868   6
  -5  -6  -1 276.025 192.272   6
   5   6   1-18.7532 205.846   1
   5   6   1-224.686 124.588   8
  -5   6  -1-416.463 461.563  12
   5  -6   1-205.431 214.975   7
   5  -6   1-80.9553 111.484  10
  -5   6  -2 1630.21 868.624   6
  -5  -6  -2 1023.18 736.791   6
   5   6   2 940.509 418.016   8
  -5   6  -2 297.975 494.215  12
  -5   6  -3 108.693 102.681   6
  -5  -6  -3 148.758 441.474   6
   5   7  -5 1605.90 868.692   8
   5   7  -5 1061.41 469.336  13
   5  -7  -5 671.986 449.419   7
   5   7  -4 13757.8 2024.23   8
  -5   7   4 11503.8 1237.74  14
   5   7  -4 11358.9 1302.86  13
   5  -7  -4 10831.6 1726.82   7
   5   7  -4 9814.45 1728.36   1
  -5  -7   3 4413.54 2530.38   9
   5   7  -3 10708.2 1747.38   8
  -5   7   3 9165.05 1251.85   2
   5  -7  -3 10415.4 1570.15   7
   5   7  -3 10000.9 1757.31   1
  -5  -7   2 395.366 693.163   9
   5   7  -2 1604.56 743.595   1
   5   7  -2 1301.10 690.689   8
   5  -7  -2 958.058 532.602   7
  -5   7   2 1000.97 371.190   2
  -5  -7   1-2.10708 974.229   9
   5   7  -1-192.222 246.805   8
   5   7  -1 176.652 236.041   1
  -5   7   1-165.319 370.948  12
   5  -7  -1 86.7677 197.383   7
  -5   7   1-38.6833 210.721   2
   5  -7  -1 917.323 646.721  10
  -5  -7   0 9947.34 3457.45   9
   5   7   0 17682.8 2228.89   8
  -5   7   0 16398.9 1627.68   2
   5   7   0 16772.6 2259.57   1
  -5   7   0 14987.9 2905.13  12
   5  -7   0 22458.7 2887.46  10
  -5  -7  -1 820.624 1122.17   9
  -5   7  -1 436.653 418.747  12
   5   7   1 123.177 197.909   1
   5  -8  -4 3158.74 904.105   7
   5  -8  -3 509.714 418.530   7
  -5  -8   2 1058.51 1127.68   9
   5  -8  -2 917.099 766.333  10
  -5  -8   1 6357.49 2983.50   9
   5  -8  -1 17708.0 2634.20  10
  -5  -8   0 3610.18 2253.70   9
  -5   8   0 6010.16 1895.05  12
  -6   0   7 11.4802 90.7642   9
   6   0  -7 503.323 191.898   7
  -6   0   6 8479.93 2407.34   9
  -6   0   6 10695.6 2883.69   6
  -6   0   6 9729.71 1562.44  14
   6   0  -6 13086.4 2096.50   7
  -6   0   5 158.400 129.440   9
  -6   0   5-0.97769 238.750   6
  -6   0   5-11.3933 202.757  14
   6   0  -5 17.7650 367.426   7
  -6   0   4 28267.0 3910.67   6
  -6   0   4 23865.9 3730.48   9
  -6   0   4 32448.1 2447.58  14
   6   0  -4 35586.8 3023.90   7
  -6   0   3 913.907 676.224   9
  -6   0   3 1311.93 781.505   6
  -6   0   3 876.993 293.805  14
   6   0  -3 1859.18 709.270   7
  -6   0   2 3229.27 1325.89   6
  -6   0   2 3128.67 1282.41   9
  -6   0   2 4063.06 746.806  14
   6   0  -2 3656.78 931.808   7
  -6   0   1 7926.77 2029.68   9
   6   0  -1 13757.1 1858.07   7
  -6   0   1 11428.2 2227.83   6
  -6   0   0 8475.94 2061.01   9
   6   0   0 11393.7 1582.73   8
   6   0   0 11890.6 1726.82   7
  -6   0   0 11680.0 2258.99   6
  -6   0  -1 4380.48 1556.59   9
   6   0   1 16944.3 1878.37   8
   6   0   1 14241.3 2018.11   7
   6   0   1 11334.8 1795.56  10
  -6   0  -1 8591.40 2136.24   6
  -6   0  -2 1179.95 935.361   6
  -6   0  -2 664.935 573.377   9
  -6   0  -2 382.434 432.766  12
   6   0   2 1551.97 711.670   7
   6   0   2 441.544 333.613  10
  -6   0  -3-310.481 405.384   9
  -6   0  -3 588.959 577.163  12
   6   0   3-366.447 482.524  10
  -6  -1   7 2046.14 1532.42   9
  -6   1   7 1565.38 1127.01   9
   6   1  -7 3425.78 1009.26   7
  -6  -1   6 366.528 588.043   9
  -6   1   6 285.110 433.310   9
  -6   1   6 683.484 573.774   6
  -6  -1   6-22.9928 202.223   6
  -6   1   6-474.955 501.733  14
  -6  -1   6 431.466 328.415  14
   6   1  -6-37.4072 338.554   7
   6  -1  -6-66.5244 240.308   7
  -6  -1   5 1627.31 1077.77   9
  -6   1   5 1575.68 1063.18   9
  -6   1   5 1343.66 846.170   6
  -6  -1   5 1969.90 1063.46   6
  -6   1   5 1689.75 509.933  14
  -6  -1   5 2916.50 835.450  14
   6   1  -5 2558.62 907.714   7
   6  -1  -5 2081.86 814.070   7
  -6   1   4 6392.80 1820.82   9
  -6  -1   4 5077.40 1879.09   9
  -6   1   4 7876.48 2042.68   6
  -6  -1   4 6132.67 1779.44   6
  -6   1   4 8248.26 1206.93  14
  -6  -1   4 8263.69 1282.38  14
   6   1  -4 10446.3 1628.23   7
   6  -1  -4 9832.78 1622.12   7
  -6   1   3 54535.8 5002.46   6
  -6  -1   3 52245.0 4895.66   6
  -6  -1   3 40461.8 4907.08   9
  -6   1   3 48556.9 4903.33   9
  -6   1   3 56497.4 2946.90  14
  -6  -1   3 53384.6 3063.04  14
   6   1  -3 61433.2 3869.31   7
   6  -1  -3 54983.3 3712.87   7
  -6  -1   2 195.901 479.922   9
  -6   1   2 350.134 317.354   6
  -6  -1   2 861.513 411.357   6
  -6   1   2 111.251 406.113   9
  -6  -1   2 418.148 269.005  14
   6   1  -2 813.477 480.634   7
   6  -1  -2 233.388 168.314   7
  -6   1   1 4274.75 1360.03   6
  -6  -1   1 3149.81 1153.60   6
  -6  -1   1 1350.15 857.968   9
  -6   1   1 3132.95 1241.46   9
   6   1  -1 3116.85 826.242   8
   6   1  -1 3438.91 974.227   7
   6  -1  -1 4528.41 1054.99   7
  -6   1   0 697.224 616.059   6
  -6  -1   0 704.339 528.711   6
  -6  -1   0 92.3360 237.232   9
  -6   1   0 1326.68 863.773   9
   6   1   0 1164.34 417.962   8
   6  -1   0 741.858 461.636   8
   6   1   0 333.069 444.968   7
   6  -1   0 1406.28 489.335   7
  -6   1  -1 7980.38 2001.10   9
  -6  -1  -1 5849.51 1844.79   9
   6   1   1 8853.50 1396.73   8
   6  -1   1 8358.44 1345.07   8
   6   1   1 8036.44 1526.95   7
   6  -1   1 9484.87 1578.73   7
   6  -1   1 9485.63 1726.13  10
  -6   1  -1 8180.65 2056.61   6
  -6  -1  -1 9204.92 2277.18   6
  -6  -1  -2 14412.7 2857.34   9
  -6   1  -2 19687.4 3172.57   9
   6   1   2 21255.1 2549.92   7
   6  -1   2 21317.7 2552.17   7
  -6   1  -2 10583.3 2172.70  12
   6  -1   2 25226.6 2951.83  10
   6   1   2 22978.4 2603.05  10
  -6   1  -2 24751.5 3769.52   6
  -6  -1  -2 24877.2 3781.02   6
  -6   1  -3-442.436 622.304   9
  -6  -1  -3 316.376 360.688  12
  -6   1  -3 289.801 153.528  12
   6   1   3 694.469 418.330  11
   6  -1   3-131.936 224.672  10
  -6  -2   7 412.340 834.465   9
   6   2  -7 26.1321 318.466   7
  -6  -2   6 118.870 308.530   9
  -6   2   6 316.763 509.533   9
  -6   2   6-74.1127 152.926   6
  -6  -2   6 131.749 404.724   6
  -6   2   6 287.561 314.411  14
  -6  -2   6-244.701 304.560  14
   6   2  -6 931.867 553.683   7
   6  -2  -6 272.554 480.194   7
  -6  -2   5 609.174 677.025   9
  -6   2   5 675.988 620.527   9
  -6   2   5 1523.77 954.721   6
  -6  -2   5 970.328 816.607   6
  -6   2   5 1340.44 498.105  14
  -6  -2   5 1302.49 585.561  14
   6   2  -5 1500.91 581.454   7
   6  -2  -5 973.097 462.038   7
  -6  -2   4 5388.56 1975.91   9
  -6   2   4 3998.14 1390.15   9
  -6   2   4 6754.66 1972.93   6
  -6  -2   4 5869.63 2029.91   6
  -6   2   4 8050.24 1139.00  14
  -6  -2   4 7315.94 1221.96  14
   6   2  -4 8804.09 1456.85   7
   6  -2  -4 9578.98 1640.25   7
  -6  -2   3 1567.74 1014.78   9
  -6   2   3 4252.06 1430.17   9
  -6   2   3 4570.17 1492.49   6
  -6  -2   3 3076.98 1286.00   6
  -6   2   3 3960.27 727.274  14
   6   2  -3 4390.23 1060.60   7
   6  -2  -3 4521.62 1100.90   7
  -6  -2   2 809.078 734.450   9
  -6   2   2 1156.63 729.248   6
  -6  -2   2 1220.23 768.136   6
  -6   2   2 492.134 488.229   9
   6   2  -2 1110.07 524.501   8
   6   2  -2 858.994 65.8608   7
   6  -2  -2 419.929 344.076   7
  -6  -2   1 6071.01 1654.47   6
  -6  -2   1 3840.09 1587.56   9
  -6   2   1 5614.25 1645.45   9
   6   2  -1 6039.96 1216.20   8
   6   2  -1 6284.23 1247.70   7
   6  -2  -1 6554.47 1235.49   7
  -6   2   1 7016.68 1745.99   6
  -6   2   0 277.015 255.010   6
  -6  -2   0 766.418 589.436   6
  -6  -2   0 25.6749 360.630   9
  -6   2   0 442.362 465.728   9
   6   2   0 202.635 267.557   8
   6   2   0 56.8404 394.113   7
   6  -2   0 224.574 279.735   7
  -6  -2  -1 7434.05 2072.72   9
  -6   2  -1 8765.97 2207.73   9
   6   2   1 15852.1 1993.78   8
   6   2   1 16019.4 2183.23   7
   6  -2   1 13856.0 1962.22   7
  -6   2  -1 5587.42 1545.42  12
   6  -2   1 13001.4 2018.59  10
  -6   2  -1 10208.7 2281.82   6
  -6  -2  -1 12055.4 2473.44   6
  -6   2  -2 1202.41 940.404   6
  -6  -2  -2 939.153 820.979   6
  -6  -2  -2 1771.93 1043.70   9
  -6   2  -2 2053.27 1050.36   9
   6   2   2 1000.17 450.228   8
  -6   2  -2 1471.38 845.306  12
   6  -2   2 1691.65 720.063   7
   6  -2   2 1855.73 873.774  10
  -6   2  -3 1325.30 860.093   9
  -6   2  -3-86.8617 253.098  12
  -6  -3   7 360.345 439.994   9
  -6  -3   6 1413.64 1297.38   9
  -6   3   6 1828.21 966.218   9
  -6   3   6 1672.39 1062.44   6
  -6  -3   6 3602.60 1741.86   6
  -6   3   6 1890.51 629.814  14
  -6  -3   6 1350.66 696.264  14
   6   3  -6 2671.50 833.084   7
   6  -3  -6 2052.57 748.584   7
  -6  -3   5 2805.52 1705.31   9
  -6   3   5 2298.96 1105.80   9
  -6   3   5 3473.45 1391.11   6
  -6  -3   5 2173.54 1098.97   6
  -6   3   5 2462.77 635.867  14
   6   3  -5 2794.13 816.206   7
   6  -3  -5 3113.04 971.497   7
  -6  -3   4 1939.05 1287.48   9
  -6   3   4 1249.84 787.762   9
  -6   3   4 1221.83 847.261   6
  -6  -3   4 1249.15 809.809   6
  -6   3   4 822.058 308.900  14
   6   3  -4 1518.94 567.583   7
   6  -3  -4 1325.30 577.716   7
  -6   3   3 8371.16 2026.95   6
  -6  -3   3 7083.08 2002.90   6
  -6   3   3 10692.4 2285.31   9
  -6  -3   3 5380.66 2015.26   9
   6   3  -3 12361.3 2115.43   8
  -6   3   3 8960.26 1111.35  14
   6   3  -3 14569.8 2044.43   7
   6  -3  -3 11878.4 1833.46   7
  -6  -3   2 925.983 825.164   9
  -6   3   2 1999.91 930.274   6
  -6  -3   2 1963.27 948.159   6
  -6   3   2 2464.01 1220.51   9
   6   3  -2 2306.04 729.967   8
   6   3  -2 2039.62 702.401   7
   6  -3  -2 2201.18 725.047   7
  -6  -3   1 1845.24 1123.29   9
  -6   3   1 4071.65 1359.10   6
  -6  -3   1 3448.61 1349.11   6
  -6   3   1 5516.60 1649.06   9
   6   3  -1 4307.56 1073.00   8
   6   3  -1 3438.10 926.219   7
   6  -3  -1 4188.72 1046.64   7
  -6   3   0 401.009 529.889   6
  -6  -3   0 285.927 290.432   6
  -6  -3   0 2.31150 444.560   9
   6   3   0 423.924 402.538   8
   6   3   0 24.9624 218.909   7
   6  -3   0-226.078 298.373   7
  -6   3  -1 3839.77 1409.19   6
  -6  -3  -1 5814.65 1707.27   6
  -6  -3  -1 3198.21 1587.33   9
   6   3   1 6784.42 1432.28   8
   6   3   1 8985.15 1663.54   7
   6  -3   1 7076.68 1480.83   7
  -6   3  -1 1951.32 1012.32  12
   6  -3   1 3889.51 1265.82  10
  -6  -3  -2 14349.3 3131.82   9
   6   3   2 23253.3 2430.24   8
   6  -3   2 22356.9 2554.49   7
  -6   3  -2 13906.2 2635.78  12
  -6   4   6 709.057 957.660   6
  -6  -4   6 473.550 738.114   6
  -6   4   6 1574.52 563.870  14
  -6  -4   5 1118.67 1220.88   9
  -6   4   5 1808.64 944.578   9
  -6   4   5 1113.59 884.734   6
  -6  -4   5 1531.55 964.843   6
  -6   4   5 1114.01 423.015  14
   6   4  -5 727.506 399.584   8
   6   4  -5 1798.67 706.836   7
   6  -4  -5 2085.90 841.101   7
  -6  -4   4 1005.00 1184.62   9
  -6   4   4 1688.98 935.964   9
  -6   4   4 953.005 720.576   6
  -6  -4   4 814.955 462.523   6
  -6   4   4 1444.87 505.249  14
   6   4  -4 1469.30 691.818   8
   6   4  -4 946.839 450.370   7
   6  -4  -4 1295.29 665.299   7
  -6   4   3 7259.93 1864.15   9
  -6  -4   3 2595.84 1491.37   9
  -6   4   3 5088.74 1618.77   6
  -6  -4   3 4601.88 1667.12   6
  -6   4   3 4320.31 730.408  14
   6   4  -3 5506.68 1309.51   8
   6   4  -3 6863.85 1304.15   7
   6  -4  -3 5484.52 1240.64   7
  -6  -4   2 2447.95 1557.43   9
  -6   4   2 4150.15 1318.84   6
  -6  -4   2 4890.01 1462.07   6
   6   4  -2 4668.09 1155.67   8
   6   4  -2 4948.88 1078.04   7
   6  -4  -2 5285.60 1185.32   7
  -6  -4   1 1521.53 1047.31   9
  -6   4   1 3581.20 1277.14   6
  -6  -4   1 2100.30 1024.09   6
   6   4  -1 2519.68 788.388   8
   6   4  -1 3625.16 1047.85   7
   6  -4  -1 2612.33 838.124   7
   6  -4   0 1313.67 744.064  10
  -6  -4   0 219.516 384.142   9
  -6   4   0 1278.34 800.647   6
  -6  -4   0 393.403 362.345   6
   6   4   0 1818.11 695.474   8
   6   4   0 853.790 585.554   7
   6  -4   0 824.997 497.442   7
  -6  -4  -1 5571.70 2108.54   9
   6   4   1 11211.7 1838.89   8
   6  -4   1 11834.6 1772.56   7
  -6   4  -1 5539.84 1721.23  12
   6  -4   1 9996.34 1948.30  10
  -6   4  -1 9319.47 2142.62   6
  -6  -4  -1 11027.4 2425.39   6
   6   4   2 4064.74 1049.25   8
  -6   4  -2 2235.61 1090.36  12
   6  -4   2 4492.85 1244.86   7
  -6   5   6-199.421 351.213   6
  -6  -5   6-88.4788 464.015   6
  -6   5   5 202.483 333.034   9
  -6   5   5-695.005 513.919   6
  -6  -5   5-394.865 479.816   6
  -6   5   5 541.834 321.797  14
   6   5  -5-258.026 402.844   8
  -6  -5   4 1199.11 1314.96   9
  -6   5   4 2424.74 1124.81   9
  -6   5   4 1878.08 960.113   6
  -6  -5   4 1895.86 1124.11   6
  -6   5   4 1577.74 531.668  14
   6   5  -4 1558.51 666.982   8
   6  -5  -4 2520.84 956.586   7
  -6   5   3 14194.3 2739.76   6
  -6  -5   3 9367.09 2245.02   6
  -6   5   3 19670.4 3105.71   9
  -6  -5   3 6568.26 2777.91   9
   6   5  -3 14086.5 2146.54   8
  -6   5   3 10448.9 1154.21  14
   6   5  -3 14493.5 1963.28   7
   6  -5  -3 13212.4 1919.21   7
  -6  -5   2-436.378 580.988   9
  -6   5   2-340.536 516.916   6
  -6  -5   2 18.5674 194.080   6
   6   5  -2 412.688 143.358   8
   6   5  -2 82.1513 172.498   7
   6  -5  -2 433.001 354.759   7
  -6  -5   1-510.609 690.083   9
  -6   5   1-366.076 132.094   6
  -6  -5   1-138.552 390.685   6
   6   5  -1 259.674 444.451   8
   6   5  -1 83.9046 49.1711   7
   6  -5  -1-603.001 388.043   7
  -6  -5   0 901.402 907.935   9
  -6   5   0 131.739 289.686   6
  -6  -5   0 143.872 217.333   6
   6   5   0 149.400 310.582   8
   6   5   0-260.773 283.230   7
   6  -5   0 667.057 477.783   7
  -6  -5  -1 623.756 855.687   9
  -6   5  -1 1758.27 937.031   6
  -6  -5  -1 995.263 782.978   6
  -6   5  -1 283.634 298.774  12
   6  -5   1 1651.09 588.161   7
  -6   6   5 374.114 410.857   9
  -6   6   5-454.980 715.687   6
  -6  -6   5-878.947 742.185   6
  -6   6   4 15484.5 2890.99   6
  -6   6   4 21334.2 3309.84   9
  -6   6   4 14108.0 1395.75  14
   6  -6  -4 15840.2 2173.75   7
  -6   6   3 304.483 407.553   6
  -6  -6   3 80.3784 167.655   6
  -6   6   3 734.547 382.981  14
   6  -6  -3 611.377 514.346   7
  -6  -6   2-195.052 837.904   9
  -6   6   2 2370.72 1090.05   6
  -6  -6   2 1855.16 1010.18   6
   6  -6  -2 2126.69 696.024   7
  -6  -6   1 2795.72 1963.13   9
  -6   6   1 5583.32 1578.33   6
  -6  -6   1 2898.02 1192.55   6
   6   6  -1 4676.71 1121.25   7
   6  -6  -1 3406.19 909.063   7
  -6  -6   0 1930.29 1488.95   9
  -6   6   0 5260.58 1601.65   6
  -6  -6   0 3673.83 1367.19   6
   6   6   0 4639.80 1181.87   1
   6  -6   0 3631.10 975.685   7
  -6   6  -1 3897.80 1474.88   6
  -6  -6  -1 4596.76 1678.53   6
  -6   6  -1 2501.84 1214.26  12
  -6   7   3 18592.9 1610.31  14
   6  -7  -3 22406.1 2554.40   7
   6  -7  -2 49.4277 384.243   7
  -7   0   5 3982.91 1761.11   9
  -7   0   5 6484.18 1282.69  14
  -7   0   4 9360.47 2626.80   6
  -7   0   4 6289.18 2173.46   9
  -7   0   4 8922.80 1448.96  14
   7   0  -4 12342.7 1950.82   7
  -7   0   3 2328.61 1274.97   9
  -7   0   3 5247.82 1696.26   6
   7   0  -3 4516.11 1168.53   7
  -7   0   2 987.741 793.168   9
  -7   0   2 2213.62 1072.79   6
   7   0  -2 1802.05 640.089   7
  -7   0   1 7640.13 2243.07   9
   7   0  -1 11643.1 1825.73   8
   7   0   0-85.3289 418.678   8
  -7   1   5 279.262 365.615   9
  -7   1   5 2816.56 881.620  14
  -7  -1   5 2732.86 773.740  14
  -7  -1   4 1494.38 1169.37   9
  -7   1   4 536.016 597.457   9
  -7   1   4 1485.29 1140.52   6
  -7  -1   4 1180.61 1108.42   6
  -7   1   4 1242.00 497.437  14
  -7  -1   4 1669.03 483.480  14
  -7  -1   3 1472.02 1142.55   9
  -7   1   3 1291.74 891.449   9
  -7   1   3 1158.58 934.150   6
  -7  -1   3 1224.49 862.242   6
   7   1  -3 1401.08 708.221   7
   7  -1  -3 1532.18 728.065   7
  -7  -1   2 609.759 765.415   9
  -7   1   2 1049.09 781.808   9
  -7   1   2 831.005 798.281   6
  -7  -1   2 610.923 743.048   6
   7   1  -2 1343.10 732.917   8
   7   1  -2 540.115 247.827   7
   7  -1  -2 1539.04 748.348   7
  -7  -1   1 449.044 513.398   9
   7   1  -1 998.240 554.967   8
   7   1   0 5969.27 1313.66   8
   7   1   1 2822.26 962.872  10
  -7   2   5-125.237 178.482  14
  -7  -2   5-52.4697 295.754  14
   7   2  -5 290.672 376.531   7
  -7   2   4 1726.24 1116.33   9
   7   2  -4 6182.06 1382.57   7
  -7  -2   3 36.0457 265.110   9
  -7   2   3-82.6524 224.873   9
  -7   2   3 711.124 777.543   6
  -7  -2   3-43.6366 315.295   6
   7   2  -3 162.807 217.910   7
  -7  -2   2 2.74352 407.676   9
  -7   2   2-359.665 404.340   6
  -7  -2   2 120.964 206.575   6
   7   2  -2 432.112 417.049   8
   7   2  -2 885.426 411.627   7
   7   2  -1 774.190 522.488   8
   7   2   0 751.244 511.318   8
  -7   3   5 531.722 217.234  14
   7   3  -5 1028.09 577.677   7
   7   3  -4 1968.12 904.305   7
  -7   3   3 304.002 418.191   6
  -7  -3   3 356.029 593.943   6
   7   3  -3 314.949 335.695   7
   7   3  -2 3345.27 944.585   7
   7   4  -4 3792.94 1089.48   7
   7   4  -3 2230.93 853.364   7
   0   0   0    0.00    0.00   0
TITL lt140 in P2(1)/m
REM P2(1)/m (#11 in standard setting)
CELL 0.71073   5.697070   8.638240   6.973230  90.0671 108.1509  89.9694
ZERR    2.00   0.000920   0.001320   0.001080   0.0125   0.0142   0.0128
LATT  1
SYMM -x, y+1/2,-z
SFAC C H O
UNIT 12.00 24.00 2.00
TREF
HKLF 4
END
;
_shelx_hkl_checksum              17108
loop_
_space_group_symop_operation_xyz
'x, y, z'
'-x, y+1/2, -z'
'-x, -y, -z'
'x, -y-1/2, z'
loop_
_atom_site_label
_atom_site_type_symbol
_atom_site_fract_x
_atom_site_fract_y
_atom_site_fract_z
_atom_site_U_iso_or_equiv
_atom_site_adp_type
_atom_site_occupancy
_atom_site_site_symmetry_order
_atom_site_calc_flag
_atom_site_refinement_flags_posn
_atom_site_refinement_flags_adp
_atom_site_refinement_flags_occupancy
_atom_site_disorder_assembly
_atom_site_disorder_group
C3 C 0.5997(3) 0.2500 0.2768(3) 0.0240(5) Uani 1 2 d S T P . .
C2 C 0.5788(3) 0.2500 0.4893(3) 0.0269(5) Uani 1 2 d S T P . .
O1 O 0.3810(3) 0.2500 0.5186(2) 0.0489(5) Uani 1 2 d S T P . .
C4 C 0.3442(4) 0.2500 0.1201(3) 0.0375(5) Uani 1 2 d S T P . .
H4A H 0.367(5) 0.2500 -0.020(4) 0.054(7) Uiso 1 2 d S T P . .
C1 C 0.8103(4) 0.2500 0.6651(3) 0.0476(7) Uani 1 2 d S T P . .
H1A H 0.796(6) 0.284(6) 0.787(6) 0.071 Uiso 0.5 1 d R . . . .
C5 C 0.7426(3) 0.39454(16) 0.2512(2) 0.0319(4) Uani 1 1 d . . . . .
H5A H 0.914(3) 0.394(2) 0.347(3) 0.048 Uiso 1 1 d R . . . .
H5B H 0.746(3) 0.401(2) 0.111(3) 0.048 Uiso 1 1 d R . . . .
H5C H 0.659(3) 0.489(2) 0.276(3) 0.048 Uiso 1 1 d R . . . .
H4B H 0.254(3) 0.346(2) 0.134(3) 0.042(4) Uiso 1 1 d . . . . .
H1B H 0.963(5) 0.2500 0.633(4) 0.055(7) Uiso 1 2 d S T P . .
H1C H 0.823(6) 0.126(5) 0.703(6) 0.046(9) Uiso 0.5 1 d . . . . .
loop_
_atom_site_aniso_label
_atom_site_aniso_U_11
_atom_site_aniso_U_22
_atom_site_aniso_U_33
_atom_site_aniso_U_23
_atom_site_aniso_U_13
_atom_site_aniso_U_12
C3 0.0233(9) 0.0231(9) 0.0253(9) 0.000 0.0071(7) 0.000
C2 0.0300(10) 0.0231(9) 0.0291(10) 0.000 0.0114(8) 0.000
O1 0.0346(9) 0.0761(13) 0.0420(9) 0.000 0.0209(7) 0.000
C4 0.0290(11) 0.0458(13) 0.0335(11) 0.000 0.0037(8) 0.000
C1 0.0386(13) 0.078(2) 0.0246(11) 0.000 0.0072(9) 0.000
C5 0.0375(8) 0.0250(8) 0.0347(8) 0.0025(5) 0.0134(6) -0.0024(5)
loop_
_atom_type_symbol
_atom_type_description
_atom_type_scat_dispersion_real
_atom_type_scat_dispersion_imag
_atom_type_scat_source
C C 0.0033 0.0016 'International Tables Vol C Tables 4.2.6.8 and 6.1.1.4'
H H 0.0000 0.0000 'International Tables Vol C Tables 4.2.6.8 and 6.1.1.4'
O O 0.0106 0.0060 'International Tables Vol C Tables 4.2.6.8 and 6.1.1.4'
loop_
_citation_id
_citation_doi
_citation_year
1 10.1021/acs.cgd.5b01156 2015
loop_
_geom_angle_atom_site_label_1
_geom_angle_atom_site_label_2
_geom_angle_atom_site_label_3
_geom_angle
_geom_angle_site_symmetry_1
_geom_angle_site_symmetry_3
C2 C3 C4 110.53(15) . .
C2 C3 C5 108.62(10) . 4_565
C2 C3 C5 108.62(10) . .
C4 C3 C5 109.90(10) . .
C4 C3 C5 109.90(10) . 4_565
C5 C3 C5 109.23(15) . 4_565
O1 C2 C3 121.66(17) . .
O1 C2 C1 119.58(18) . .
C1 C2 C3 118.76(17) . .
loop_
_geom_bond_atom_site_label_1
_geom_bond_atom_site_label_2
_geom_bond_distance
_geom_bond_site_symmetry_2
C3 C2 1.523(2) .
C3 C4 1.524(3) .
C3 C5 1.5309(16) 4_565
C3 C5 1.5309(16) .
C2 O1 1.207(2) .
C2 C1 1.495(3) .
