#------------------------------------------------------------------------------
#$Date: 2015-06-04 06:32:09 +0300 (Thu, 04 Jun 2015) $
#$Revision: 137844 $
#$URL: svn://www.crystallography.net/cod/cif/4/51/31/4513147.cif $
#------------------------------------------------------------------------------
#
# This file is available in the Crystallography Open Database (COD),
# http://www.crystallography.net/
#
# All data on this site have been placed in the public domain by the
# contributors.
#
data_4513147
loop_
_publ_author_name
'Abrahams, Brendan F.'
'Elliott, Robert W.'
'Hudson, Timothy A.'
'Robson, Richard'
'Sutton, Ashley L.'
_publ_section_title
;
 New CuI2(TCNQ--II) and CuI2(F4TCNQ--II) Coordination Polymers
;
_journal_issue                   5
_journal_name_full               'Crystal Growth &amp; Design'
_journal_page_first              2437
_journal_paper_doi               10.1021/acs.cgd.5b00220
_journal_volume                  15
_journal_year                    2015
_chemical_formula_sum            'C30 H18 Cu2 N6'
_chemical_formula_weight         589.58
_space_group_crystal_system      triclinic
_space_group_IT_number           2
_space_group_name_Hall           '-P 1'
_space_group_name_H-M_alt        'P -1'
_symmetry_space_group_name_Hall  '-P 1'
_symmetry_space_group_name_H-M   'P -1'
_atom_sites_solution_hydrogens   geom
_audit_creation_method           SHELXL-2014/6
_cell_angle_alpha                109.748(7)
_cell_angle_beta                 97.865(6)
_cell_angle_gamma                99.444(6)
_cell_formula_units_Z            1
_cell_length_a                   7.9934(6)
_cell_length_b                   8.3301(7)
_cell_length_c                   10.1150(7)
_cell_measurement_reflns_used    2613
_cell_measurement_temperature    130.00(10)
_cell_measurement_theta_max      77.1717
_cell_measurement_theta_min      4.7440
_cell_volume                     611.76(9)
_computing_cell_refinement
;
CrysAlisPro, Agilent Technologies,
Version 1.171.36.20 (release 27-06-2012 CrysAlis171 .NET)
(compiled Jul 11 2012,15:38:31)
;
_computing_data_collection
;
CrysAlisPro, Agilent Technologies,
Version 1.171.36.20 (release 27-06-2012 CrysAlis171 .NET)
(compiled Jul 11 2012,15:38:31)
;
_computing_data_reduction
;
CrysAlisPro, Agilent Technologies,
Version 1.171.36.20 (release 27-06-2012 CrysAlis171 .NET)
(compiled Jul 11 2012,15:38:31)
;
_computing_structure_refinement  'SHELXL-97 (Sheldrick, 1997)'
_computing_structure_solution    'SHELXS-97 (Sheldrick, 1997)'
_diffrn_ambient_temperature      130.00(10)
_diffrn_detector_area_resol_mean 10.2273
_diffrn_measured_fraction_theta_full 0.999
_diffrn_measured_fraction_theta_max 0.999
_diffrn_measurement_device_type  'SuperNova, Dual, Cu at zero, Atlas'
_diffrn_measurement_method       '\w scans'
_diffrn_radiation_monochromator  mirror
_diffrn_radiation_source         'SuperNova (Cu) X-ray Source'
_diffrn_radiation_type           CuK\a
_diffrn_radiation_wavelength     1.54184
_diffrn_reflns_av_R_equivalents  0.0385
_diffrn_reflns_av_unetI/netI     0.0459
_diffrn_reflns_laue_measured_fraction_full 0.999
_diffrn_reflns_laue_measured_fraction_max 0.999
_diffrn_reflns_limit_h_max       9
_diffrn_reflns_limit_h_min       -9
_diffrn_reflns_limit_k_max       10
_diffrn_reflns_limit_k_min       -10
_diffrn_reflns_limit_l_max       12
_diffrn_reflns_limit_l_min       -11
_diffrn_reflns_number            4496
_diffrn_reflns_point_group_measured_fraction_full 0.999
_diffrn_reflns_point_group_measured_fraction_max 0.999
_diffrn_reflns_theta_full        67.684
_diffrn_reflns_theta_max         69.956
_diffrn_reflns_theta_min         4.748
_exptl_absorpt_coefficient_mu    2.401
_exptl_absorpt_correction_T_max  1.00000
_exptl_absorpt_correction_T_min  0.72244
_exptl_absorpt_correction_type   multi-scan
_exptl_absorpt_process_details
;
CrysAlisPro, Agilent Technologies,
Version 1.171.36.20 (release 27-06-2012 CrysAlis171 .NET)
(compiled Jul 11 2012,15:38:31)
Empirical absorption correction using spherical harmonics,
 implemented in SCALE3 ABSPACK scaling algorithm.
;
_exptl_crystal_colour            yellow
_exptl_crystal_density_diffrn    1.600
_exptl_crystal_description       block
_exptl_crystal_F_000             298
_exptl_crystal_size_max          0.14
_exptl_crystal_size_mid          0.09
_exptl_crystal_size_min          0.07
_refine_diff_density_max         1.680
_refine_diff_density_min         -1.500
_refine_diff_density_rms         0.200
_refine_ls_extinction_method     none
_refine_ls_goodness_of_fit_ref   1.125
_refine_ls_hydrogen_treatment    constr
_refine_ls_matrix_type           full
_refine_ls_number_parameters     172
_refine_ls_number_reflns         2314
_refine_ls_number_restraints     0
_refine_ls_restrained_S_all      1.125
_refine_ls_R_factor_all          0.0667
_refine_ls_R_factor_gt           0.0620
_refine_ls_shift/su_max          0.000
_refine_ls_shift/su_mean         0.000
_refine_ls_structure_factor_coef Fsqd
_refine_ls_weighting_details
'w=1/[\s^2^(Fo^2^)+(0.1265P)^2^+0.0806P] where P=(Fo^2^+2Fc^2^)/3'
_refine_ls_weighting_scheme      calc
_refine_ls_wR_factor_gt          0.1650
_refine_ls_wR_factor_ref         0.1720
_reflns_Friedel_coverage         0.000
_reflns_number_gt                2089
_reflns_number_total             2314
_reflns_threshold_expression     'I > 2\s(I)'
_cod_data_source_file            cg5b00220_si_002.cif
_cod_data_source_block           Cu2(TCNQ)(isoquinoline)2
_cod_database_code               4513147
_shelx_space_group_comment
;
The symmetry employed for this shelxl refinement is uniquely defined
by the following loop, which should always be used as a source of
symmetry information in preference to the above space-group names.
They are only intended as comments.
;
_shelxl_version_number           2014/6
_shelx_res_file
;
TITL isoquinoline in P-1
CELL  1.54184   7.9934   8.3301  10.1150  109.748   97.865   99.444
ZERR     1.00   0.0006   0.0007   0.0007    0.007    0.006    0.006
LATT   1
SFAC  C    H    N    CU
UNIT  30   18   6    2
MERG   2
OMIT    -4.00 140.00
FMAP   2
PLAN   20
ACTA
BOND
L.S.   4
WGHT    0.126500    0.080600
FVAR       7.06719
MOLE    1
CU1   4    0.128114    0.182854    0.517871    11.00000    0.01053    0.03961 =
         0.01715    0.00839    0.00372    0.00613
N3    3    0.177899    0.325549    0.730014    11.00000    0.01234    0.03040 =
         0.01810    0.00688    0.00459    0.00533
N2    3    0.329056    0.155939    0.438416    11.00000    0.01234    0.04885 =
         0.01732    0.01002    0.00520    0.00713
N1    3   -0.111181    0.132796    0.429811    11.00000    0.01236    0.03763 =
         0.01483    0.00509    0.00433    0.00474
C15   1    0.301188    0.480052    0.788722    11.00000    0.01565    0.03225 =
         0.02852    0.01524    0.00784    0.00555
AFIX  43
H15   2    0.357065    0.520577    0.727470    11.00000   -1.20000
AFIX   0
C3    1    0.446875    0.133780    0.385993    11.00000    0.01280    0.03263 =
         0.01417    0.00762   -0.00063    0.00201
C6    1    0.662894    0.004595    0.069787    11.00000    0.00744    0.02462 =
         0.01831    0.00726    0.00252    0.00189
AFIX  43
H6    2    0.772952    0.006720    0.115325    11.00000   -1.20000
AFIX   0
C12   1    0.308195    0.608491    1.179398    11.00000    0.02255    0.03250 =
         0.02483    0.00167    0.00181    0.00773
AFIX  43
H12   2    0.391503    0.713179    1.219435    11.00000   -1.20000
AFIX   0
C1    1   -0.253489    0.121467    0.380511    11.00000    0.01289    0.02621 =
         0.01221    0.00385    0.00467    0.00327
C14   1    0.345556    0.576565    0.931698    11.00000    0.01561    0.02345 =
         0.03046    0.00750    0.00297    0.00124
AFIX  43
H14   2    0.428796    0.681203    0.966106    11.00000   -1.20000
AFIX   0
C2    1    0.577912    0.102246    0.309091    11.00000    0.00962    0.02782 =
         0.01699    0.00679    0.00500    0.00313
C5    1    0.374291    0.043046    0.078103    11.00000    0.00964    0.02372 =
         0.01833    0.00699    0.00539    0.00318
AFIX  43
H5    2    0.288152    0.071271    0.129200    11.00000   -1.20000
AFIX   0
C8    1    0.136630    0.360073    0.968907    11.00000    0.01386    0.02421 =
         0.02157    0.00825    0.00447    0.00594
C13   1    0.265112    0.517790    1.028004    11.00000    0.01545    0.02577 =
         0.02539    0.00778    0.00587    0.00813
C4    1    0.537876    0.049829    0.152609    11.00000    0.00895    0.02194 =
         0.01733    0.00727    0.00179    0.00006
C7    1    0.098475    0.271393    0.819616    11.00000    0.01479    0.02561 =
         0.02556    0.00859    0.00571    0.00368
AFIX  43
H7    2    0.012543    0.168623    0.780973    11.00000   -1.20000
AFIX   0
C9    1    0.051419    0.294851    1.061672    11.00000    0.02108    0.03112 =
         0.02720    0.01338    0.01094    0.00841
AFIX  43
H9    2   -0.035213    0.192626    1.023211    11.00000   -1.20000
AFIX   0
C11   1    0.226286    0.540918    1.266415    11.00000    0.02914    0.04539 =
         0.01641    0.00522    0.00669    0.01550
AFIX  43
H11   2    0.255579    0.599350    1.365498    11.00000   -1.20000
AFIX   0
C10   1    0.096640    0.381683    1.205484    11.00000    0.02927    0.04268 =
         0.02571    0.01660    0.01267    0.01656
AFIX  43
H10   2    0.042510    0.336998    1.265430    11.00000   -1.20000
AFIX   0
HKLF    4

REM  thm742iq in P-1
REM R1 =  0.0620 for    2089 Fo > 4sig(Fo)  and  0.0667 for all    2314 data
REM    172 parameters refined using      0 restraints

END

WGHT      0.1265      0.0806

REM Highest difference peak  1.680,  deepest hole -1.500,  1-sigma level  0.200
Q1    1   0.1399  0.2904  0.5065  11.00000  0.05    1.68
Q2    1   0.1162  0.0678  0.5386  11.00000  0.05    1.56
Q3    1   0.1318  0.1044  0.5761  11.00000  0.05    1.55
Q4    1   0.1639  0.2533  0.7351  11.00000  0.05    0.74
Q5    1   0.1256  0.3433  1.0342  11.00000  0.05    0.63
Q6    1   0.2817  0.5549  1.0935  11.00000  0.05    0.58
Q7    1   0.2065  0.4377  0.9970  11.00000  0.05    0.58
Q8    1   0.1238  0.3104  0.9187  11.00000  0.05    0.55
Q9    1   0.3655  0.0105  0.0140  11.00000  0.05    0.53
Q10   1   0.2706  0.5626  1.2185  11.00000  0.05    0.52
Q11   1   0.3089  0.5231  0.9860  11.00000  0.05    0.48
Q12   1   0.3057  0.5082  0.8646  11.00000  0.05    0.48
Q13   1   0.2371  0.3794  0.7653  11.00000  0.05    0.47
Q14   1   0.1513  0.4555  1.2187  11.00000  0.05    0.46
Q15   1   0.5540  0.0673  0.2269  11.00000  0.05    0.44
Q16   1   0.3605  0.6167  0.9552  11.00000  0.05    0.42
Q17   1   0.0802  0.2820  1.1411  11.00000  0.05    0.40
Q18   1   0.0792  0.2091  0.8211  11.00000  0.05    0.40
Q19   1   0.5325 -0.0517  0.2032  11.00000  0.05    0.40
Q20   1   0.3337  0.6108  0.8491  11.00000  0.05    0.40
;
_shelx_res_checksum              23597
_shelx_hkl_file
;
   0   0   1 4512.04 315.927   2
   0   0   2 92941.9 2065.84   2
   0   0   3 59742.1 2074.37   2
   0   0   3 58174.8 784.797   6
   0   0   4 78458.8 2843.15   2
   0   0   5 5274.35 856.978   2
   0   0   6 2536.20 642.667   2
   0   0   7 17729.3 1958.97   2
   0   0   8 164.802 105.414  11
   0   0   8 186.594 104.775  24
   0   0   9 22247.3 1101.53  11
   0   0   9 23062.0 1110.22  20
   0   0  10 1208.79 253.794  11
   0   0  10 1085.67 220.599  20
   0   0  11 53.4818 78.0985  11
   0   0  11-48.8578 85.9792  20
   0  -1  12 2397.91 208.588  11
   0  -1  11 16983.1 798.466  11
   0  -1  11 15356.7 660.107  20
   0  -1  10 17968.6 879.542  20
   0  -1  10 18567.3 977.993  11
   0  -1   9 33346.2 1276.45  20
   0  -1   9 31034.1 1307.16  11
   0  -1   8 11300.1 1585.65   2
   0  -1   8 9854.81 494.169  17
   0  -1   8 12886.9 756.662  20
   0  -1   8 13256.7 689.244  24
   0  -1   8 12091.2 778.831  11
   0  -1   7 22350.6 2060.95   2
   0  -1   6 20275.0 1792.40   2
   0  -1   5 58714.4 1098.81   6
   0  -1   5 59882.3 2655.26   2
   0  -1   4 8545.60 369.352   6
   0  -1   4 9280.51 893.911   2
   0   1  -3 10639.4 303.125   3
   0  -1   3 12035.4 834.155   2
   0  -1   3 12092.4 350.608   6
   0  -1   2 44986.3 1203.11   2
   0   1  -2 45022.5 705.581   3
   0   1  -1 196052. 1894.72   3
   0  -1   0 15672.0 504.284   1
   0   1   1 144567. 2507.86   2
   0   1   2 154584. 2859.05   3
   0   1   2 154931. 3231.29   2
   0   1   3 93610.5 3022.95   2
   0   1   3 90960.5 2434.14   3
   0   1   3 85279.6 828.376   5
   0   1   4 63463.4 2880.35   2
   0   1   5 5200.17 946.943   2
   0   1   6 5444.52 1137.69   2
   0   1   7 11769.5 1720.75   2
   0  -1  -7 11482.9 1635.44   1
   0   1   7 9816.22 565.402  18
   0   1   7 11975.9 741.573  11
   0   1   7 11514.0 664.912  24
   0   1   7 8063.04 509.434  17
   0   1   7 11129.3 672.735  19
   0   1   8 2963.88 319.400  18
   0   1   8 3667.70 460.471  20
   0   1   8 2514.05 319.995  24
   0   1   8 3483.71 422.840  11
   0   1   9 17334.0 686.642  17
   0   1   9 15551.6 752.489  24
   0   1   9 11869.8 799.842  20
   0   1   9 10837.0 721.277  11
   0   1  10 7462.11 542.025  20
   0   1  10 6792.03 480.691  11
   0   1  11 4111.11 283.345  20
   0  -2  12 8993.87 455.609  11
   0  -2  11 3507.10 385.845  11
   0  -2  11 3445.09 294.393  20
   0  -2  10 1476.84 234.201  21
   0  -2  10 1747.13 322.183  11
   0  -2  10 1534.71 249.132  20
   0  -2   9 879.990 200.957  21
   0  -2   9 897.329 222.494  11
   0  -2   9 627.681 172.000  20
   0  -2   8 18323.2 910.781  11
   0  -2   7 2936.36 698.710   2
   0  -2   7 2687.26 297.478   6
   0  -2   6 5709.51 386.529   6
   0  -2   6 5441.38 866.244   2
   0  -2   5-31.8289 65.7473   6
   0  -2   5 156.884 139.117   2
   0  -2   4 32493.3 718.326   6
   0  -2   4 32059.5 1503.29   2
   0  -2   3 71974.9 1948.48   2
   0  -2   3 75645.9 942.222   6
   0   2  -3 74933.6 1461.06   3
   0   2  -2 130157. 2244.20   3
   0   2  -1 520313. 5070.64   3
   0   2  -1 519544. 2024.29   5
   0   2   0 66.7216 43.6414   5
   0  -2   0 78.8962 86.5317   1
   0   2   1 6480.82 695.664   3
   0  -2  -1 5790.39 533.106   1
   0   2   1 5997.69 252.337   5
   0   2   2 1104.39 118.718   5
   0  -2  -2 1374.54 308.524   1
   0   2   2 1228.75 121.291   4
   0   2   2 1260.80 349.156   3
   0   2   2 1071.13 350.075   2
   0   2   3 12492.4 390.353   4
   0   2   3 12254.7 1263.78   2
   0  -2  -3 13911.6 1172.21   1
   0   2   3 11599.4 410.721   5
   0   2   3 12383.9 1133.15   3
   0  -2  -4 19899.6 1644.73   1
   0   2   4 17652.6 1452.21   3
   0   2   4 17940.6 1731.81   2
   0  -2  -5 17146.6 1719.94   1
   0   2   5 15924.5 1828.05   2
   0  -2  -6 21671.9 2185.97   1
   0   2   6 23587.4 947.055  24
   0   2   6 23082.5 893.689  17
   0   2   6 23453.0 927.249  19
   0   2   7 9797.37 620.298  18
   0   2   7 10989.8 695.197  19
   0   2   7 10282.7 663.584  24
   0   2   7 8875.89 573.937  17
   0   2   8 42953.4 1552.96  20
   0   2   8 34050.9 1194.39  24
   0   2   8 35261.5 1134.79  18
   0   2   8 41161.7 1338.17  11
   0   2   8 31734.3 1005.87  17
   0   2   9 8032.63 614.957  20
   0   2   9 7435.70 500.357  11
   0   2   9 13517.4 672.372  24
   0   2   9 15886.1 583.115  17
   0   2  10 5037.44 375.127  20
   0  -3  12 2144.49 231.236  11
   0  -3  11 4436.23 373.495  21
   0  -3  11 4514.98 424.134  11
   0  -3  10 15541.1 815.553  21
   0  -3  10 15808.8 869.305  11
   0  -3   9 770.920 198.645  21
   0  -3   9 496.306 143.699  23
   0  -3   9 772.637 213.737  11
   0  -3   8 30458.7 1103.77  11
   0  -3   8 27893.5 968.122  23
   0  -3   8 29468.5 1082.00   6
   0  -3   7 6305.75 469.890   6
   0  -3   6 29521.2 1858.14   2
   0  -3   6 28800.8 905.802   6
   0  -3   5 1627.64 198.470   6
   0  -3   5 1740.15 393.598   2
   0  -3   4 67326.6 2158.17   2
   0  -3   4 65631.6 1096.43   6
   0   3  -4 70550.6 1793.45   3
   0   3  -4 66442.5 782.082   4
   0   3  -3 106350. 2540.13   3
   0   3  -3 102288. 1037.13   4
   0   3  -2 105625. 2760.58   3
   0   3  -2 107339. 1129.49   4
   0   3  -1 483596. 6378.45   3
   0   3  -1 474610. 2577.58   5
   0   3  -1 481999. 2526.27   4
   0   3   0 55590.5 918.256   5
   0   3   0 55990.2 915.767   4
   0   3   0 56132.3 2346.36   3
   0   3   1 103522. 3436.82   3
   0   3   1 101711. 1315.55   5
   0   3   1 98811.2 1283.82   4
   0   3   2 39402.4 2284.30   3
   0   3   2 37077.5 853.294   5
   0   3   2 37269.4 826.894   4
   0   3   3 2119.47 562.941   3
   0   3   3 1913.51 207.580   5
   0  -3  -3 1999.46 477.491   1
   0   3   3 2093.92 203.055   4
   0   3   4 8364.92 1190.30   3
   0  -3  -4 10678.6 1258.74   1
   0   3   5 2601.19 300.440  17
   0   3   5 2667.70 308.611  19
   0   3   5 2792.39 327.148  24
   0   3   6 2747.63 338.093  24
   0   3   6 2217.14 306.054  18
   0   3   6 2732.51 333.803  17
   0   3   6 2432.08 324.606  19
   0   3   7 148.637 84.3771  17
   0   3   7 368.928 149.808  24
   0   3   7 468.665 195.296  20
   0   3   7 317.209 129.590  18
   0   3   7 343.515 144.264  19
   0   3   8 3149.03 399.084  20
   0   3   8 2370.49 282.798  18
   0   3   8 2375.90 294.204  24
   0   3   9 142.428 95.7470  20
   0   3   9 6186.51 314.275  17
   0  -4  12 7708.27 378.381  11
   0  -4  12 7420.03 369.377  21
   0  -4  11 8698.61 552.123  21
   0  -4  11 9067.34 548.242  11
   0  -4  10 20299.5 906.376  11
   0  -4  10 20360.8 953.396  21
   0  -4   9 11100.6 668.479   6
   0  -4   9 11195.7 680.259  11
   0  -4   9 11731.6 745.354  21
   0  -4   9 9935.98 600.946  23
   0  -4   8 16818.3 770.019  11
   0  -4   8 15709.6 756.272  23
   0  -4   8 15958.7 760.000  13
   0  -4   8 16014.8 799.097   6
   0  -4   7 7007.11 496.596   6
   0  -4   6 9540.88 553.747   6
   0  -4   5 156.352 80.0155   6
   0  -4   4 240.248 137.394   2
   0   4  -4 83.1497 120.335   3
   0   4  -3 2976.81 226.756   4
   0   4  -3 3425.28 606.492   3
   0   4  -2 239.348 87.9679   4
   0   4  -2 451.539 288.004   3
   0   4  -1 80160.7 1280.05   4
   0   4  -1 77589.7 3150.25   3
   0   4  -1 75979.5 1287.39   5
   0   4   0 13739.4 1406.54   3
   0   4   0 14356.3 579.207   5
   0   4   0 15905.0 597.098   4
   0   4   1 14920.0 623.793   5
   0   4   1 14570.9 601.978   4
   0   4   1 14328.0 1525.55   3
   0   4   2 3675.91 314.306   4
   0   4   2 2901.69 292.796   5
   0   4   2 3077.92 749.844   3
   0   4   3 4468.38 356.786   4
   0   4   3 3972.36 894.327   3
   0   4   4 2748.28 329.807  24
   0   4   4 2488.43 297.602  19
   0   4   4 2709.95 331.655  18
   0   4   5 6801.35 552.680  18
   0   4   5 6833.78 530.988  17
   0   4   5 6938.86 535.939  19
   0   4   5 7515.32 566.877  24
   0   4   6 2575.15 327.735  17
   0   4   6 3097.84 393.303  20
   0   4   6 2800.02 357.805  18
   0   4   6 2581.63 332.628  24
   0   4   6 2341.18 315.568  19
   0   4   7 11548.1 709.107  20
   0   4   7 9230.91 553.604  17
   0   4   7 10304.2 631.089  19
   0   4   7 10297.3 628.620  24
   0   4   8 3451.85 308.670  24
   0   4   8 2883.85 289.781  20
   0  -5  12 1104.98 156.287  21
   0  -5  11-42.9848 73.1484  21
   0  -5  10 2171.39 256.484  23
   0  -5  10 2480.09 330.324  21
   0  -5   9 1345.83 256.724  21
   0  -5   9 1379.06 242.071   6
   0  -5   9 1683.82 251.666  23
   0  -5   8 111.382 95.5914   6
   0  -5   8 105.394 84.6076  23
   0  -5   8 33.5660 71.2230  13
   0  -5   7 4575.80 416.977   6
   0  -5   7 4763.20 417.648  13
   0  -5   6 701.054 165.723   6
   0  -5   5 10154.0 563.261   6
   0   5  -4 46740.6 1019.78   4
   0   5  -4 45692.5 2385.48   3
   0   5  -3 34392.9 913.347   4
   0   5  -3 32804.0 2171.00   3
   0   5  -2 101444. 1636.41   4
   0   5  -2 97231.6 3962.12   3
   0   5  -1 13046.0 614.348   4
   0   5  -1 13116.0 1526.60   3
   0   5   0 3867.35 354.358   4
   0   5   0 3829.91 915.697   3
   0   5   1 2869.65 317.876   4
   0   5   1 2419.30 755.001   3
   0   5   2 3876.67 381.680   4
   0   5   2 2973.37 833.571   3
   0   5   3 32420.0 1108.02  19
   0   5   3 31610.9 1106.63  24
   0   5   3 30767.4 2735.29   3
   0   5   4 157.956 107.767  19
   0   5   4 176.825 125.845  24
   0   5   5 11294.7 692.056  17
   0   5   5 11314.0 672.278  19
   0   5   5 11221.1 677.091  24
   0   5   6 9276.40 568.801  17
   0   5   6 9428.43 583.753  24
   0   5   6 9564.00 575.617  19
   0   5   7 11035.0 497.105  17
   0   5   7 11715.0 542.158  24
   0  -6  12 2412.68 203.219  21
   0  -6  11 5044.58 389.514  21
   0  -6  10 2019.50 286.088  21
   0  -6  10 1580.16 215.080  23
   0  -6   9 5563.76 449.626  23
   0  -6   9 5380.40 445.475   6
   0  -6   9 5647.72 498.256  21
   0  -6   8 8771.44 586.320   6
   0  -6   8 9139.33 618.121  21
   0  -6   7 9591.29 606.833  21
   0  -6   7 9008.57 599.791   6
   0  -6   7 8645.09 586.691  13
   0  -6   6 1413.89 246.698   6
   0  -6   6 1478.28 235.509  13
   0  -6   6 2053.40 256.753  21
   0  -6   5 13553.6 709.535   6
   0   6  -4 34940.0 1032.92   4
   0   6  -3 36513.6 2617.91   3
   0   6  -3 40108.8 1163.91   4
   0   6  -2 78543.5 4065.33   3
   0   6  -2 85682.4 1758.82   4
   0   6  -1 9874.40 628.094   4
   0   6  -1 9286.83 1440.06   3
   0   6   0 24605.1 970.956  14
   0   6   0 23002.9 2376.49   3
   0   6   0 25822.4 1038.01   4
   0   6   0 24521.7 975.052   7
   0   6   1 12233.0 675.073  14
   0   6   1 13143.3 713.287   7
   0   6   1 11744.4 624.054  24
   0   6   2 526.016 163.536  24
   0   6   2 661.469 166.017  19
   0   6   3 1612.65 260.239  24
   0   6   3 1582.02 254.809  19
   0   6   4 6950.37 499.525  19
   0   6   4 6760.93 527.034  17
   0   6   4 7599.09 540.940  24
   0   6   5 398.935 113.108  24
   0   6   5 627.714 149.956  17
   0   6   5 444.110 127.368  19
   0   6   6-223.331 81.9711  24
   0   6   6-198.586 80.4977  17
   0  -7  11 8756.07 431.730  21
   0  -7  10 598.796 145.695  21
   0  -7  10 579.267 119.982  23
   0  -7   9 12641.5 660.364  21
   0  -7   9 11215.6 596.841  23
   0   7  -9 11280.3 590.790   7
   0  -7   8 3.80297 54.0936   6
   0   7  -8 61.9801 70.5796   7
   0  -7   8 13.0076 61.3294  21
   0  -7   7 2653.76 306.096  21
   0  -7   7 1922.45 271.929   6
   0   7  -7 2131.15 314.049   7
   0   7  -6 1652.64 290.682   7
   0   7  -6 1430.93 245.512  14
   0  -7   6 1711.23 264.144   6
   0   7  -5 5761.66 527.009   7
   0  -7   5 5753.92 487.871   6
   0   7  -5 6112.53 510.260  14
   0   7  -4 2703.90 352.452  14
   0   7  -4 2612.38 361.362   7
   0   7  -3 1845.62 296.068   7
   0   7  -3 1806.94 296.351  14
   0   7  -2 14600.2 828.931   7
   0   7  -2 14901.4 827.399  14
   0   7  -1 4870.16 476.848  14
   0   7  -1 4702.01 463.157   7
   0   7   0 1030.11 214.621   7
   0   7   0 783.722 199.465  14
   0   7   1 744.950 170.701  19
   0   7   1 441.635 135.264  14
   0   7   2 4473.33 382.098  24
   0   7   2 4271.31 380.544  19
   0   7   3 34.5341 80.4605  24
   0   7   3 129.123 93.8807  17
   0   7   3-14.0514 63.9062  19
   0   7   4 2581.43 277.538  17
   0   7   4 2533.89 233.192  24
   0   7   4 2575.91 225.368  19
   0   7   5 3440.54 238.229  17
   0   7   5 2810.74 177.533  24
   0  -8  10 593.657 84.7428  23
   0  -8  10 662.070 102.401  21
   0  -8   9 2275.89 230.159  23
   0  -8   9 2756.69 239.815  21
   0   8  -9 2360.51 239.101   7
   0   8  -8 957.806 187.664   7
   0   8  -7-74.4456 108.927   7
   0   8  -6 192.700 114.817  14
   0  -8   6-7.97287 52.8296   6
   0   8  -6-7.53597 95.2364   7
   0  -8   6 153.161 89.4298  22
   0  -8   5 48377.2 1310.21   6
   0   8  -5 53462.9 1522.31  14
   0   8  -5 51484.2 1559.67   7
   0   8  -4 1881.84 306.251  14
   0   8  -4 2148.30 330.934   7
   0   8  -3 17529.5 914.743  14
   0   8  -3 18676.0 942.090   7
   0   8  -2 1263.63 247.892   7
   0   8  -2 1147.49 237.886  14
   0   8  -1 6892.09 559.721  14
   0   8  -1 6995.08 549.135   7
   0   8   0 590.581 166.232  14
   0  -8  -1 278.877 91.0489  22
   0   8   2 4788.52 370.443  17
   0   8   3 526.786 109.311  17
   0   9  -9 387.852 75.3787   7
   0  -9   9 383.893 67.0096  23
   0  -9   8 744.352 129.354  23
   0   9  -8 793.179 138.836   7
   0  -9   7 324.607 78.6728  22
   0   9  -7 367.149 119.485   7
   0  -9   6 16578.3 648.534  22
   0   9  -6 17290.9 766.974   7
   0  -9   5 289.514 115.006  22
   0   9  -5 317.829 120.195  14
   0   9  -5 334.875 128.756   7
   0   9  -4 9844.93 607.291   7
   0   9  -4 9776.38 618.620  14
   0  -9   4 9867.69 566.983  22
   0  -9   3 17145.1 748.958  22
   0   9  -3 17759.2 803.320   7
   0   9  -3 16298.9 795.511  14
   0  -9   2 6939.99 456.311  22
   0  -9   1 20.0046 61.7741  22
   0  -9   0 1994.12 186.111  22
   0   9   1 66.4465 40.9105  17
   0  10  -7 49.7786 40.9572   7
   0 -10   6 1370.29 126.029  22
   0  10  -6 1725.46 177.939   7
   0 -10   5-4.27663 39.8696  22
   0 -10   4 80.2780 59.1333  22
   0 -10   3 2021.15 183.686  22
   0 -10   2 102.355 41.4191  22
  -1  10  -1 307.731 65.1805  17
   1 -10   2 1207.01 135.675  22
   1 -10   3 767.667 122.843  22
   1 -10   4 1130.27 152.444  22
   1 -10   5 346.949 86.1131  22
   1 -10   6 4480.09 241.431  22
   1 -10   7 2576.52 185.810  23
  -1   9   2 896.965 113.070  17
  -1   9   1 1496.88 176.005  17
  -1   9   1 1067.35 112.347  19
   1  -9   0 2310.66 213.517  22
  -1   9   0 2248.96 206.764  19
   1  -9   1 8889.81 492.168  22
  -1   9  -1 8200.41 442.215  19
   1  -9   2 4790.18 393.889  22
   1  -9   3 1779.14 252.924  22
  -1   9  -3 1538.09 251.925   7
   1  -9   4 2913.99 315.031  22
  -1   9  -4 2759.54 332.729   7
  -1   9  -5 8671.01 566.054   7
   1  -9   5 8957.43 531.724  22
  -1   9  -6 3413.91 338.747   7
   1  -9   6 3489.63 306.387  22
  -1   9  -7 2429.55 255.896   7
   1  -9   7 2814.00 229.179  22
   1  -9   8 2481.39 237.507  23
  -1   9  -8 2836.21 235.321   7
   1  -9   9 301.541 72.8723  23
  -1   8   4 4007.18 236.767  17
  -1   8   3 411.976 82.2509  19
  -1   8   3 614.665 131.804  17
  -1   8   2-27.4569 67.9162  19
  -1   8   1 1622.89 233.872  19
   1  -8  -1 1823.85 220.108  22
  -1   8   0 375.858 133.683  19
   1  -8   0 189.275 94.3152  22
  -1   8  -1 1414.36 262.671   7
  -1   8  -1 1341.75 258.524  14
   1  -8   1 1348.76 231.833  22
  -1   8  -2 1663.21 290.589   7
  -1   8  -2 1029.46 228.412  14
  -1   8  -3 93.3315 108.746   7
  -1   8  -3 130.308 115.498  14
   1  -8   4 721.958 194.983  22
  -1   8  -4 676.325 195.777  14
  -1   8  -4 657.827 180.744   7
   1  -8   5 776.685 175.321  22
   1  -8   5 1037.26 201.006   6
  -1   8  -5 864.865 211.388   7
  -1   8  -5 1162.47 234.921  14
   1  -8   6 991.398 183.737   6
   1  -8   6 967.112 197.518  22
  -1   8  -6 1079.53 226.246   7
  -1   8  -7-7.24478 75.5635   7
  -1   8  -8 24.4695 63.2890   7
   1  -8   9 514.870 123.979  23
   1  -8   9 391.969 92.8948  21
   1  -8  10 1584.04 164.157  21
   1  -8  10 1594.36 163.221  23
  -1   7   5 94.1494 60.8237  17
  -1   7   5 27.2137 46.6470  19
  -1   7   4 1929.39 243.986  17
  -1   7   4 1719.40 225.095  19
  -1   7   3 6674.56 492.140  19
  -1   7   2 70.1994 69.3406  19
  -1   7   1 3380.97 393.697   4
  -1   7   0 11726.5 730.001   4
  -1   7   0 11707.9 724.252  14
  -1   7   0 12218.4 753.610   7
  -1   7  -1 10913.7 698.845   4
  -1   7  -1 10929.6 711.763   7
  -1   7  -1 10978.0 710.034  14
  -1   7  -2 1774.04 305.224   7
  -1   7  -2 1622.94 276.396  14
  -1   7  -2 1558.37 269.136   4
  -1   7  -2 2376.94 735.486   3
  -1   7  -3 9298.78 601.637   4
  -1   7  -3 9546.03 662.351   7
  -1   7  -3 9884.03 663.650  14
  -1   7  -4 16147.6 852.333   7
  -1   7  -4 15080.1 725.483   4
  -1   7  -4 15936.0 838.958  14
  -1   7  -5 15454.1 801.805  14
   1  -7   5 13666.2 709.610   6
  -1   7  -5 14504.8 796.826   7
   1  -7   5 14690.9 751.906  22
   1  -7   6 17152.0 775.401  22
  -1   7  -6 15852.0 825.994   7
   1  -7   6 15137.0 755.875   6
   1  -7   7 5799.60 470.417   6
  -1   7  -7 5760.75 476.579   7
   1  -7   7 6930.37 498.469  21
  -1   7  -8 1582.50 234.570   7
   1  -7   8 1215.79 224.720  21
   1  -7   8 1073.14 189.803   6
   1  -7   9 12809.8 675.177  23
   1  -7   9 13944.6 711.566  21
   1  -7  10 2832.94 291.366  21
   1  -7  10 2470.64 253.592  23
   1  -7  11 1619.04 184.418  21
  -1   6   7 3847.61 207.959  17
  -1   6   6 810.207 154.333  17
  -1   6   6 940.313 162.345  19
  -1   6   6 1047.11 153.948  24
  -1   6   5 6987.80 499.396  19
  -1   6   5 7207.90 508.698  17
  -1   6   5 6715.06 444.908  24
  -1   6   4 17497.1 845.475  19
  -1   6   4 16824.8 836.205  17
  -1   6   4 16515.5 749.308  24
  -1   6   3 2771.15 307.236  24
  -1   6   3 3351.74 388.841  19
  -1   6   2 26945.8 1072.96  19
  -1   6   2 27604.0 1072.11   4
  -1   6   1 23253.7 2408.75   3
  -1   6   1 22952.9 933.289  14
  -1   6   1 24194.9 999.869   4
  -1   6   0 41342.9 1279.73   7
  -1   6   0 40547.3 1264.39   4
  -1   6  -1 5154.93 440.238   4
  -1   6  -1 4687.97 972.328   3
  -1   6  -2 18569.2 801.228   4
  -1   6  -2 16649.6 1804.58   3
  -1   6  -3 19168.1 776.244   4
  -1   6  -3 18650.5 1758.98   3
  -1   6  -4 11602.5 574.048   4
   1  -6   5 29786.8 1023.07   6
   1  -6   6 5306.29 441.171   6
   1  -6   6 5423.17 435.381  21
  -1   6  -6 5259.55 441.786   7
  -1   6  -7 5634.65 447.907   7
   1  -6   7 6314.22 506.778  21
   1  -6   7 5732.48 466.538   6
   1  -6   8 2682.20 328.505   6
   1  -6   8 2912.16 368.756  23
   1  -6   8 2909.40 357.891  21
   1  -6   9 4480.39 430.713  23
   1  -6   9 4929.42 468.943  21
   1  -6  10 84.7063 74.5780  21
   1  -6  10 97.6858 71.5778  23
   1  -6  11 713.774 154.671  21
   1  -6  12 72.8796 40.4819  21
  -1   5   8 8774.59 317.183  17
  -1   5   7 6173.73 440.266  19
  -1   5   7 6531.03 428.725  20
  -1   5   7 5645.92 379.545  24
  -1   5   6 7221.53 504.809  24
  -1   5   6 7830.31 538.743  17
  -1   5   6 8953.57 600.049  20
  -1   5   6 8492.31 580.000  19
  -1   5   5 9727.13 649.443  19
  -1   5   5 9455.01 616.139  24
  -1   5   5 10447.1 668.419  17
  -1   5   4 4730.93 454.997  19
  -1   5   4 4694.97 424.477  24
  -1   5   3 18492.1 859.639   5
  -1   5   3 19076.9 869.723  19
  -1   5   3 17852.4 765.997  24
  -1   5   3 18855.7 811.163   4
  -1   5   2 1356.39 240.509   5
  -1   5   2 1357.71 220.627   4
  -1   5   1 77.5718 64.1870   5
  -1   5   1 51.5036 99.2358   4
  -1   5   0 2003.07 252.861   4
  -1   5   0 1198.29 488.527   3
  -1   5   0 1837.64 250.074   5
  -1   5  -1 44102.5 2706.52   3
  -1   5  -1 45190.4 1129.28   4
  -1   5  -1 42630.1 1105.80   5
  -1   5  -2 8518.13 468.087   4
  -1   5  -2 8040.29 460.537   5
  -1   5  -2 7095.81 1029.50   3
  -1   5  -3 4223.64 313.854   4
  -1   5  -3 3454.74 683.104   3
   1  -5   4 13974.1 648.028   6
  -1   5  -4 2239.63 222.916   4
   1  -5   5 33275.3 1001.80   6
   1  -5   6 1501.22 229.795   6
   1  -5   7 284.259 94.8940  21
   1  -5   7 231.839 109.954   6
   1  -5   8 2027.54 305.825  23
   1  -5   8 1797.78 269.171   6
   1  -5   8 1722.50 284.565  21
   1  -5   9 41151.4 1388.72  21
   1  -5   9 38805.7 1217.98   6
   1  -5   9 40325.7 1306.45  23
   1  -5  10 684.642 184.247  21
   1  -5  10 759.519 177.740  23
   1  -5  11 4245.51 379.861  21
   1  -5  12 9662.79 389.084  21
  -1   4   9 843.645 122.992  20
  -1   4   8 5695.95 382.806  17
  -1   4   8 3903.97 380.313  20
  -1   4   7 55.4507 86.9686  19
  -1   4   7-27.0952 128.189  17
  -1   4   7 46.5686 89.7496  24
  -1   4   6 3514.85 396.135  19
  -1   4   6 3180.50 367.679  24
  -1   4   6 3181.67 362.390  17
  -1   4   5 122.205 96.2517  24
  -1   4   5 189.935 118.264  19
  -1   4   5 254.445 113.663  18
  -1   4   5 290.367 122.263  17
  -1   4   4-90.8567 76.0633  19
  -1   4   4-38.1674 57.0913   5
  -1   4   3 25068.5 890.849   5
  -1   4   3 26353.0 851.743   4
  -1   4   2 36225.4 1019.57   5
   1  -4  -2 39611.4 2209.93   1
  -1   4   2 37224.9 988.989   4
  -1   4   2 37445.6 2568.90   3
  -1   4   1 47466.6 2708.68   3
  -1   4   1 49549.0 1121.73   5
  -1   4   0 4205.24 754.532   3
   1  -4   0 5541.29 707.556   1
  -1   4   0 5397.95 350.265   5
  -1   4  -1 37385.9 2126.04   3
  -1   4  -1 38536.6 873.336   5
   1  -4   1 41441.8 1869.23   1
  -1   4  -2 33680.5 770.432   5
   1  -4   2 34645.9 1769.53   1
  -1   4  -2 33900.9 1900.61   3
  -1   4  -3 77940.0 2620.61   3
  -1   4  -3 75426.9 1098.93   5
   1  -4   4 98680.6 3500.94   2
  -1   4  -4 97392.7 1183.63   4
   1  -4   4 93158.6 1408.60   6
   1  -4   5 15207.0 1410.28   2
   1  -4   5 15988.3 650.045   6
   1  -4   6 22033.8 809.915   6
   1  -4   6 22618.1 1819.88   2
   1  -4   7 25156.6 943.200   6
   1  -4   8 49481.9 1345.57  11
   1  -4   8 48113.2 1432.10  23
   1  -4   8 49846.2 1496.02  21
   1  -4   8 46353.2 1361.59   6
   1  -4   9 1896.67 301.256  21
   1  -4   9 1566.65 260.655  23
   1  -4   9 1749.28 279.915  11
   1  -4  10 13806.8 777.082  21
   1  -4  10 14936.1 766.062  11
   1  -4  11 10355.7 576.893  21
   1  -4  11 9953.64 544.073  11
   1  -4  12 2614.29 189.085  11
  -1   3  10 1864.91 181.577  20
  -1   3   9 7195.20 525.150  20
  -1   3   9 14835.8 524.277  17
  -1   3   8 11046.7 599.625  17
  -1   3   8 11317.2 648.932  24
  -1   3   8 12945.3 756.410  19
  -1   3   7 5118.83 465.174  24
  -1   3   7 5798.86 513.820  19
  -1   3   7 4865.38 445.297  17
  -1   3   6 13799.4 762.823  19
  -1   3   6 12864.4 714.289  17
  -1   3   6 13609.7 737.341  24
   1  -3  -5 15577.5 1754.64   1
  -1   3   4 7619.58 436.673   5
   1  -3  -4 8569.62 1191.97   1
  -1   3   3 91880.0 1439.54   5
  -1   3   3 89093.9 1317.01   4
  -1   3   3 89167.3 3652.82   3
  -1   3   2 45853.6 2426.13   3
   1  -3  -2 51013.6 2352.69   1
   1  -3  -1 58085.3 2250.83   1
  -1   3   1 52035.9 2407.87   3
  -1   3   0 92796.2 2993.45   3
   1  -3   0 99679.0 2738.35   1
   1  -3   1 34130.6 1574.91   1
  -1   3  -1 31644.9 636.218   5
  -1   3  -1 32254.8 1622.06   3
   1  -3   2 45429.3 1930.22   1
  -1   3  -2 48145.1 1807.73   3
  -1   3  -2 45221.9 704.888   5
  -1   3  -3 13799.4 361.999   5
  -1   3  -3 16544.3 917.831   3
   1  -3   4 16430.2 558.910   6
   1  -3   4 18644.8 1423.24   2
   1  -3   5 54151.7 1113.07   6
   1  -3   5 53368.0 2560.18   2
   1  -3   6 11991.0 586.320   6
   1  -3   6 13111.3 1431.12   2
   1  -3   7 778.833 411.639   2
   1  -3   7 1103.76 200.309   6
   1  -3   8 1902.88 289.441  23
   1  -3   8 2031.78 302.041  11
   1  -3   8 2387.20 319.253  21
   1  -3   9 9274.97 676.776  11
   1  -3   9 8363.76 594.791  23
   1  -3   9 8805.02 630.713  21
   1  -3  10 2327.19 323.445  21
   1  -3  10 2357.87 334.477  11
   1  -3  11 1976.34 228.430  21
   1  -3  11 1989.53 269.949  11
   1  -3  12 3999.93 276.098  11
  -1   2  10 12160.7 633.403  20
  -1   2   9 18646.7 966.402  20
  -1   2   9 18060.8 785.221  11
  -1   2   8 2345.76 301.239  17
  -1   2   8 1528.95 258.321  24
  -1   2   8 1727.60 286.653  19
  -1   2   8 1702.14 270.623  11
  -1   2   7 11922.9 701.674  24
  -1   2   7 10890.3 645.825  17
  -1   2   7 12565.3 726.673  19
  -1   2   7 13512.7 752.367  11
   1  -2  -6 8629.76 1377.41   1
   1  -2  -5 1727.57 572.092   1
   1  -2  -4 8378.38 1108.12   1
   1  -2  -3 3698.06 651.779   1
   1  -2  -2 18.1612 113.591   1
  -1   2   2 143.957 192.599   3
   1  -2  -1 2225.73 411.720   1
   1  -2   0 120386. 2628.89   1
  -1   2   0 119748. 2709.61   3
   1  -2   1 173111. 3095.03   1
  -1   2  -1 186114. 3011.68   3
   1  -2   2 25930.6 1471.95   1
   1  -2   3 5897.20 693.371   2
   1  -2   3 5811.76 263.169   6
   1  -2   4 12542.3 440.429   6
   1  -2   4 11461.0 1134.28   2
   1  -2   5 7194.86 384.411   6
   1  -2   5 6441.78 973.928   2
   1  -2   6 17724.3 1733.65   2
   1  -2   6 16351.7 674.014   6
   1  -2   7 12568.2 1603.05   2
   1  -2   8 12267.9 1685.18   2
   1  -2   8 12479.7 712.995  23
   1  -2   8 13746.5 733.425  21
   1  -2   8 13643.1 814.122  11
   1  -2   8 13759.4 749.494  20
   1  -2   9 6932.82 619.767  11
   1  -2   9 7270.28 563.040  20
   1  -2   9 6692.90 521.508  21
   1  -2  10 18763.2 839.532  20
   1  -2  10 18677.6 961.729  11
   1  -2  11 11692.2 651.410  11
   1  -2  12 6267.65 332.163  11
  -1   1  11 386.063 87.0256  11
  -1   1  11 597.601 120.777  20
  -1   1  10 137.501 102.191  11
  -1   1  10 195.342 132.305  20
  -1   1   9 10986.8 638.625  17
  -1   1   9 10.7289 102.543  11
  -1   1   8 769.895 182.128  11
  -1   1   8 750.085 189.351  19
  -1   1   8 1115.03 218.690  24
  -1   1   7 3607.34 372.838  19
  -1   1   7 3846.56 398.582  11
  -1   1   7 2479.06 263.876  17
  -1   1   7 3328.52 352.545  24
   1  -1  -7 3203.32 903.830   1
   1  -1  -6 2323.12 703.726   1
  -1   1   5 9164.94 1202.43   2
  -1   1   4 90638.4 3304.37   2
  -1   1   3 70034.9 2515.84   2
   1  -1  -2 85318.2 2423.71   1
   1  -1  -1 127638. 2556.43   1
   1  -1   0 22484.8 965.985   1
   1  -1   1 133455. 2579.51   1
   1  -1   2 139115. 2948.74   2
   1  -1   2 107800. 959.031   3
   1  -1   3 120799. 1130.40   6
   1  -1   3 135369. 3265.02   2
   1  -1   4 131836. 1399.71   6
   1  -1   4 139939. 3934.97   2
   1  -1   5 39712.6 2434.17   2
   1  -1   5 37959.2 877.566   6
   1  -1   6 39053.0 2696.98   2
   1  -1   7 17148.3 1972.73   2
   1  -1   8 19586.4 973.649  20
   1  -1   8 16702.8 699.318  24
   1  -1   8 17674.5 963.338  11
   1  -1   9 3940.41 475.641  11
   1  -1   9 3598.01 423.650  20
   1  -1  10 4985.72 384.809  18
   1  -1  10 6393.04 559.930  11
   1  -1  10 5940.54 498.845  20
   1  -1  11 2758.67 304.914  11
  -1   0  11 6351.40 428.296  20
  -1   0  11 6195.96 443.555  11
  -1   0  10 12839.4 779.479  11
  -1   0  10 12496.5 753.995  20
  -1   0   9 10992.8 766.419  11
  -1   0   9 11723.3 564.396  17
  -1   0   8 22930.9 924.422  24
  -1   0   8 19833.4 755.057  17
  -1   0   8 21183.7 1019.84  11
  -1   0   7 21175.6 2029.20   2
  -1   0   6 26230.5 2055.72   2
  -1   0   5 20091.5 1567.53   2
  -1   0   4 104911. 3075.27   2
  -1   0   4 98141.6 1229.21   6
  -1   0   3 93300.2 2407.95   2
  -1   0   3 99507.3 1042.78   6
  -1   0   2 94467.9 1927.19   2
   1   0  -1 232063. 2764.47   1
   1   0   0 55226.7 1149.56   1
   1   0   1 10955.1 515.408   3
   1   0   1 10164.3 675.974   2
   1   0   2 17177.0 712.522   3
   1   0   2 16174.8 1011.15   2
   1   0   3 17292.0 1285.85   2
   1   0   3 16520.6 753.466   3
   1   0   4 81625.3 3262.33   2
   1   0   5-24.4475 164.875   2
   1   0   6 411.850 317.744   2
   1   0   7 144.895 268.027   2
   1   0   7 191.536 125.503  20
   1   0   7-101.931 78.3753  24
   1   0   7 146.100 117.979  11
   1   0   8 367.068 149.547  20
   1   0   8 289.932 144.779  18
   1   0   8 96.8190 76.0149  24
   1   0   8 244.492 135.169  11
   1   0   9 1493.40 286.643  11
   1   0   9 1358.54 261.968  20
   1   0   9 1176.86 226.257  18
   1   0  10 2636.09 270.653  18
   1   0  10 3206.34 366.149  20
   1   0  10 2648.35 340.526  11
   1   0  11 2734.06 255.623  11
  -1  -1  12 4452.56 306.172  11
  -1  -1  11 11550.6 573.478  20
  -1  -1  11 12160.7 698.299  11
  -1  -1  10 16394.0 832.784  20
  -1  -1  10 16577.8 927.890  11
  -1  -1   9 7906.31 601.951  20
  -1  -1   9 7078.27 508.233   9
  -1  -1   9 7439.26 632.635  11
  -1  -1   8 425.680 153.061  11
  -1  -1   8 313.434 111.836   9
  -1  -1   7 9783.65 1257.91   2
  -1  -1   6 4539.38 744.772   2
  -1  -1   6 4984.57 364.082   6
  -1  -1   5 5114.62 696.949   2
  -1  -1   5 5530.18 332.054   6
  -1  -1   4 2110.44 177.694   6
  -1  -1   4 2033.88 363.406   2
  -1  -1   3 165.017 96.8043   2
  -1  -1   3 195.694 52.8779   6
  -1  -1   2 6526.12 310.409   2
   1   1  -1 61272.2 1024.93   1
   1   1   0 286936. 2858.00   2
   1   1   1 46330.3 1582.56   2
   1   1   1 52852.6 1608.59   3
   1   1   2 38452.2 1784.62   2
   1   1   2 34551.9 1449.93   3
   1   1   3 25136.0 1340.97   3
   1   1   3 28449.3 1799.13   2
   1   1   4 32489.5 1592.16   3
   1   1   4 34007.4 2269.73   2
   1   1   5 18074.6 1862.20   2
   1   1   6 17504.1 2033.55   2
   1   1   7 18561.5 856.611  18
   1   1   7 22624.3 1104.75  20
   1   1   7 19823.3 879.130  24
   1   1   7 21442.4 2414.04   2
   1   1   7 22002.2 1044.23  11
   1   1   8 2502.03 395.258  20
   1   1   8 1472.45 256.677  18
   1   1   8 1780.18 268.742  24
   1   1   8 2184.97 348.500  11
   1   1   9 24930.7 1067.27  11
   1   1   9 25569.4 1125.11  20
   1   1   9 23165.5 839.715  24
   1   1  10 12632.9 642.265  20
   1   1  10 12602.1 608.737  11
  -1  -2  12 1437.12 195.849  11
  -1  -2  11-34.7025 92.9340  11
  -1  -2  10 106.551 108.491  11
  -1  -2  10 149.817 93.8218  21
  -1  -2   9 34963.7 1328.03  11
  -1  -2   9 32835.6 1143.34   9
  -1  -2   8 6069.12 470.049   9
  -1  -2   8 6648.05 544.808  11
  -1  -2   7 24134.5 890.451   6
  -1  -2   6 30062.7 1709.13   2
  -1  -2   6 31616.8 907.312   6
  -1  -2   5 113246. 1517.88   6
  -1  -2   5 113944. 2895.65   2
   1   2  -4 12569.2 784.156   3
  -1  -2   4 12875.8 770.414   2
  -1  -2   4 12113.2 442.658   6
  -1  -2   3 87543.4 1406.81   2
   1   2  -3 88060.4 2153.42   3
  -1  -2   2 103163. 1021.47   2
   1   2  -2 143264. 2798.24   3
   1   2  -1 3743.06 198.354   4
   1   2  -1 3577.54 484.902   3
   1   2   0 256717. 3582.34   2
   1   2   0 247212. 1665.75   4
   1   2   1 30536.8 616.618   4
   1   2   1 30171.6 1516.02   2
   1   2   1 29350.5 1578.61   3
  -1  -2  -1 30099.4 1028.81   1
   1   2   2 73375.8 2682.96   3
   1   2   2 79058.1 2901.50   2
   1   2   3 116968. 3656.30   3
   1   2   3 122053. 4170.73   2
   1   2   4 31335.8 1970.27   3
   1   2   4 31401.4 2394.60   2
  -1  -2  -5 18082.9 1746.95   1
   1   2   5 16236.4 1931.39   2
   1   2   6 6294.07 486.612  19
   1   2   6 5933.18 484.939  18
   1   2   6 7821.00 623.632  20
   1   2   6 7049.89 547.669  11
   1   2   6 6446.19 1300.26   2
   1   2   6 6142.53 457.073  17
   1   2   6 7108.91 546.663  24
   1   2   7 17796.2 912.358  11
   1   2   7 15391.4 819.108  24
   1   2   7 17439.9 987.016  20
   1   2   7 15527.7 827.745  18
   1   2   8 3669.14 379.575  24
   1   2   8 4040.03 465.438  20
   1   2   8 3868.18 405.632  18
   1   2   8 3754.02 408.537  11
   1   2   9 1448.21 216.997  11
   1   2   9 1172.52 192.195  18
   1   2   9 1431.16 240.929  20
   1   2  10 937.997 158.460  20
  -1  -3  12 9989.46 505.924  11
  -1  -3  11 24934.5 908.983  21
  -1  -3  11 25099.3 1003.59  11
  -1  -3  10 8908.17 646.093  11
  -1  -3  10 8958.63 631.238  21
  -1  -3   9 258.491 141.475  11
  -1  -3   8 68342.8 1644.36   6
  -1  -3   8 66843.9 1635.17   9
  -1  -3   8 66840.1 1450.01  13
  -1  -3   7 27472.1 964.624   6
  -1  -3   6 11011.7 551.503   6
  -1  -3   5 9458.15 473.155   6
   1   3  -4 172586. 3514.07   3
  -1  -3   4 159350. 1766.54   6
   1   3  -3 17789.8 1192.11   3
   1   3  -2 60507.2 942.915   4
   1   3  -2 61893.2 2351.15   3
   1   3  -1 2286.79 491.270   3
   1   3  -1 2234.38 192.139   4
   1   3   0 12182.8 1180.18   3
   1   3   0 11392.1 452.449   4
   1   3   1 10862.1 1172.77   3
   1   3   1 10471.0 450.377   4
   1   3   2 7596.10 1059.37   3
   1   3   3 21661.0 1869.21   3
   1   3   4 21826.3 1944.22   3
   1   3   5 7012.95 498.560  17
   1   3   5 6492.03 475.165  19
   1   3   5 7212.68 549.222  24
   1   3   5 8382.33 615.569  20
   1   3   5 7178.22 562.802  18
   1   3   6-43.2190 70.5152  19
   1   3   6 75.4589 97.9307  18
   1   3   6-233.154 111.071  17
   1   3   6 120.840 87.1709  24
   1   3   6 115.558 132.140  20
   1   3   7 553.464 167.145  18
   1   3   7 325.261 135.843  24
   1   3   7 265.489 94.0630  17
   1   3   7 666.826 207.567  20
   1   3   8 9737.67 616.801  20
   1   3   8 8865.23 540.964  24
   1   3   8 8635.71 541.698  18
   1   3   9 1849.03 215.028  20
  -1  -4  12 4817.03 317.832  11
  -1  -4  12 4874.77 321.796  21
  -1  -4  11 1425.28 228.540  11
  -1  -4  11 1356.52 227.752  21
  -1  -4  10-1.52215 75.5629  11
  -1  -4  10-72.5951 94.8197  21
  -1  -4   9 17436.4 839.613  11
  -1  -4   9 16386.6 831.153   6
  -1  -4   9 15360.7 754.584  13
  -1  -4   8 67.2287 75.1065   6
  -1  -4   8 9.90627 98.9690  13
  -1  -4   7 464.432 136.765   6
  -1  -4   6 10207.9 569.237   6
  -1  -4   5 11644.1 567.998   6
   1   4  -4 9753.77 1011.76   3
  -1  -4   4 12778.2 570.363   6
   1   4  -3 333.780 207.399   3
   1   4  -2 2610.73 588.263   3
   1   4  -2 2814.30 250.780   4
   1   4  -1 116303. 4107.14   3
   1   4  -1 115710. 1632.85   4
   1   4   0-19.9707 74.7848   4
   1   4   0-85.5870 186.101   3
   1   4   1 28749.3 2298.85   3
   1   4   2 41374.9 2882.79   3
   1   4   3 35523.2 2750.80   3
   1   4   4 922.069 210.207  24
   1   4   4 753.089 193.478  18
   1   4   4 695.500 162.293  19
   1   4   5 24064.0 1018.07  20
   1   4   5 21077.2 882.613  19
   1   4   5 23136.8 1029.97  24
   1   4   5 22408.7 1055.08  18
   1   4   5 22309.5 943.839  17
   1   4   6 19672.0 917.763  20
   1   4   6 18249.1 928.670  18
   1   4   6 18682.3 908.099  24
   1   4   6 18169.9 814.397  19
   1   4   6 18030.0 807.530  17
   1   4   7 2906.34 309.919  20
   1   4   7 2717.96 317.853  24
   1   4   7 2372.33 247.422  17
   1   4   8 2825.69 229.969  20
   1   4   8 3046.96 263.235  24
  -1  -5  12 334.152 98.6472  21
  -1  -5  11-48.1621 86.3090  21
  -1  -5  11-51.0820 64.7018  11
  -1  -5  10 7265.81 561.308  21
  -1  -5   9 3064.74 354.351  13
  -1  -5   9 3196.69 359.845   6
  -1  -5   8 23226.0 960.018  13
  -1  -5   8 21657.4 934.983   6
  -1  -5   7 6037.10 499.707   6
  -1  -5   7 6759.04 493.225  13
  -1  -5   6 30860.3 1043.36   6
  -1  -5   5 28863.9 950.306   6
   1   5  -4 30362.1 2113.11   3
   1   5  -3 37908.2 2486.67   3
   1   5  -2-381.701 290.187   3
   1   5  -1 18138.6 1890.71   3
   1   5   0 28913.9 2510.00   3
   1   5   1 34980.6 2878.36   3
   1   5   2 35715.9 1296.47  18
   1   5   2 31782.3 2827.92   3
   1   5   3 356.320 151.403  18
   1   5   3 330.332 124.032  24
   1   5   4 32223.8 1150.79  17
   1   5   4 33646.9 1226.04  24
   1   5   4 30798.4 1013.53  19
   1   5   5 1932.96 291.834  24
   1   5   5 1871.26 270.300  17
   1   5   5 1994.48 252.872  19
   1   5   6 2553.70 265.540  17
   1   5   6 2895.97 317.185  24
   1   5   7 247.340 91.2262  24
   1   5   7 4900.28 241.456  17
  -1  -6  12 7821.58 364.271  21
  -1  -6  11 1600.45 222.044  21
  -1  -6  10 6265.81 488.638  21
  -1  -6   9 12788.4 731.134  21
  -1  -6   9 11870.4 659.879   6
  -1  -6   9 11469.3 672.780  13
  -1  -6   8 5673.13 477.523  13
  -1  -6   8 5543.66 468.813   6
  -1  -6   7 3512.47 373.151  13
  -1  -6   7 3216.33 370.345   6
   1   6  -6 17040.0 768.553  14
  -1  -6   6 15813.9 742.313  13
  -1  -6   6 14765.1 768.777   6
  -1  -6   5 25383.8 879.206  13
   1   6  -5 26881.9 991.959  14
   1   6  -4 1814.62 581.325   3
   1   6  -4 2389.37 311.493  14
   1   6  -3 14644.9 1756.65   3
   1   6  -2 5645.52 475.389  14
   1   6  -2 3783.65 928.554   3
   1   6  -1 1537.52 260.392  10
   1   6  -1 1363.14 233.940  14
   1   6  -1 1405.66 603.965   3
   1   6  -1 1176.06 224.536   7
   1   6   0-98.4469 79.2711   7
   1   6   0 2.14485 109.650  10
   1   6   0-30.4347 68.3095  14
   1   6   1 9.94145 106.720  10
   1   6   1 280.695 117.618  14
   1   6   2 149.074 88.1994  24
   1   6   3 58.0744 99.6834  24
   1   6   4 52.5884 76.2733  17
   1   6   4-157.371 115.265  24
   1   6   5 1550.23 199.966  17
   1   6   5 1629.50 221.487  24
   1   6   6-175.639 67.3973  24
   1   6   6 1044.12 114.599  17
  -1  -7  11 55.4146 48.4224  21
  -1  -7  10 454.649 116.021  21
   1   7 -10 623.981 127.655   7
  -1  -7   9 281.347 112.129  21
   1   7  -9 546.707 149.820   7
  -1  -7   8-16.7269 70.8283  21
  -1  -7   8 30.8764 72.7577   6
  -1  -7   8 68.5470 80.4387  13
  -1  -7   7 3916.37 387.724   6
  -1  -7   7 3850.52 384.551  13
  -1  -7   6 109.581 74.1136   6
   1   7  -6 1.03732 62.5885  14
  -1  -7   6 121.214 90.9221  13
   1   7  -5 858.662 206.859  14
  -1  -7   5 989.979 231.240   6
  -1  -7   5 729.972 159.999  13
   1   7  -5 1018.82 239.245   7
   1   7  -4 1373.74 259.709   7
   1   7  -4 1385.20 250.890  14
   1   7  -3 329.677 124.216  14
   1   7  -3 266.322 104.490   7
   1   7  -2 15843.8 864.140  14
   1   7  -2 15835.6 858.181   7
   1   7  -1 6404.62 527.913   7
   1   7  -1 6085.84 530.532  14
   1   7   0 12345.9 735.440  14
   1   7   0 12835.4 703.945   7
   1   7   1 12566.3 669.552  14
   1   7   1 12700.7 687.693  24
   1   7   2 1283.79 215.926  24
   1   7   3 6292.95 427.036  24
   1   7   3 6348.19 437.081  17
   1   7   4 2284.40 211.083  17
   1   7   4 2365.95 220.426  24
   1   8 -10 1170.93 137.055   7
   1   8  -9 7747.12 459.561   7
   1   8  -8 2947.46 326.137   7
   1   8  -7 8090.34 502.073  14
   1   8  -7 8415.74 592.786   7
   1   8  -6 7067.38 527.519  14
   1   8  -6 6810.99 554.582   7
   1   8  -5 12238.9 759.797   7
   1   8  -5 12373.5 732.970  14
  -1  -8   5 11124.2 613.839   6
   1   8  -4 2895.29 372.712  14
   1   8  -4 2666.66 357.517   7
   1   8  -3 295.784 143.384  14
   1   8  -3 342.932 150.059   7
   1   8  -2 8415.69 618.329  14
   1   8  -2 8125.85 577.364   7
   1   8  -1 5662.03 482.384  14
   1   8   0 2824.99 314.604  14
   1   8   0 2426.74 240.835  24
   1   8   1 6601.95 369.332  24
   1   8   2 997.529 150.198  17
   1   8   2 685.893 102.197  24
   1   8   3 519.018 74.6178  17
   1   9  -9 642.314 98.8233   7
  -1  -9   8-27.6798 30.6256  23
   1   9  -8 33.9313 51.0244   7
   1   9  -7 7951.29 476.846   7
   1   9  -6 4621.65 366.905  14
   1   9  -6 4816.35 395.167   7
  -1  -9   6 4195.02 310.321  22
  -1  -9   5 128.655 70.1640  22
   1   9  -5 163.289 104.783  14
   1   9  -5 145.567 84.3259   7
   1   9  -4 3375.85 350.509  14
   1   9  -4 3399.56 335.985   7
   1   9  -3 2133.83 258.702   7
   1   9  -3 2031.75 267.530  14
   1   9  -2 129.778 76.3182  14
  -1  -9   1 2280.23 221.888  22
  -1  -9   0 134.866 46.5690  22
  -1 -10   5 541.200 82.4252  22
  -1 -10   4 1181.09 125.677  22
  -1 -10   3 3773.58 205.359  22
  -2  10  -1 64.1711 30.4066  17
   2 -10   2 4511.12 261.841  22
  -2  10  -2 3551.33 208.519  19
  -2  10  -3 809.351 110.298  19
   2 -10   3 968.856 138.068  22
   2 -10   4 3478.37 259.147  22
   2 -10   5 3049.07 231.379  22
   2 -10   6 15249.6 435.525  22
   2 -10   7 267.678 70.1094  23
  -2   9   2 358.122 65.7189  19
  -2   9   2 514.265 86.8723  17
  -2   9   1 2484.25 222.255  17
  -2   9   1 2300.75 213.165  19
  -2   9   0 9075.87 482.443  19
   2  -9   0 9077.36 426.285  22
   2  -9   1 2172.39 247.169  22
   2  -9   2 892.909 173.942  22
   2  -9   3-5.49397 81.7249  22
  -2   9  -4 646.504 156.817   7
   2  -9   4 833.073 169.606  22
   2  -9   5 2346.56 276.089  22
  -2   9  -5 2509.70 292.178   7
  -2   9  -6 3569.67 324.099   7
   2  -9   6 3854.44 317.131  22
   2  -9   7 49.3529 46.8234  22
  -2   9  -7-136.630 65.0593   7
   2  -9   8 573.341 120.780  23
   2  -9   9 4898.85 270.508  23
  -2   8   4 827.999 111.134  17
  -2   8   4 789.410 111.523  19
  -2   8   3 5697.93 372.059  19
  -2   8   3 5373.12 354.585  17
  -2   8   2 1786.20 248.367  19
  -2   8   1-118.578 84.2112  19
   2  -8  -1-47.9794 61.7833  22
   2  -8   0 156.209 93.8497  22
   2  -8   1 3278.38 354.392  22
  -2   8  -1 3725.96 397.951   4
  -2   8  -2-22.6452 68.9691   4
   2  -8   2 36.3890 72.6861  22
  -2   8  -2 72.6494 92.4541   7
  -2   8  -3 714.853 163.708   4
  -2   8  -3 600.792 174.987   7
   2  -8   3 694.772 161.221  22
  -2   8  -4 790.950 204.205   7
  -2   8  -4 889.888 177.785   4
   2  -8   4 756.801 189.729  22
   2  -8   5 10850.6 586.249   6
  -2   8  -5 12036.6 703.851   7
   2  -8   5 12105.2 690.415  22
   2  -8   6 7493.90 509.310  22
  -2   8  -6 6863.71 501.219   7
  -2   8  -7 6272.78 429.099   7
   2  -8   7 5961.25 393.173  22
   2  -8   8 10602.8 609.801  23
   2  -8   8 10460.0 518.557  21
   2  -8   9 2799.96 278.232  23
   2  -8   9 2297.77 231.960  21
   2  -8  10 4266.23 255.836  21
   2  -8  10 4343.23 267.956  23
  -2   7   6 2406.39 148.209  17
  -2   7   5 259.582 85.6430  17
  -2   7   5 242.143 88.0659  19
  -2   7   4 21302.3 809.146  17
  -2   7   4 20759.7 823.532  19
  -2   7   3 149.309 98.9041  19
  -2   7   3 54.4401 76.6511  17
  -2   7   2 21030.0 915.375   4
  -2   7   2 19957.0 933.870  19
  -2   7   1 23571.3 1013.04   4
   2  -7  -1 22498.2 860.598  22
   2  -7   0 4316.79 398.435  22
  -2   7   0 5154.87 483.267   4
  -2   7  -1 3645.93 399.712   4
  -2   7  -1 3269.62 394.936  14
   2  -7   1 3454.18 381.249  22
  -2   7  -1 3004.97 376.011   7
  -2   7  -2 9635.28 667.419  14
  -2   7  -2 9554.28 626.179   4
  -2   7  -2 9565.87 656.324   7
   2  -7   2 9651.61 621.373  22
  -2   7  -3 13783.6 718.412   4
   2  -7   3 15081.3 777.243  22
  -2   7  -3 13323.9 784.641  14
  -2   7  -3 13188.2 757.780   7
  -2   7  -4 479.236 131.901   4
   2  -7   4 617.311 155.917  22
  -2   7  -4 732.080 176.731  14
  -2   7  -4 863.636 211.096   7
   2  -7   5 13141.8 717.900  22
   2  -7   5 11537.9 635.860   6
  -2   7  -5 12006.6 696.933   7
   2  -7   6 4174.21 385.629  21
   2  -7   6 3730.39 365.869  22
   2  -7   6 3355.53 343.306   6
  -2   7  -6 3945.75 387.077   7
   2  -7   7 6266.12 491.809  21
   2  -7   7 4618.82 381.961   6
   2  -7   8 23503.9 1010.54  23
   2  -7   8 24420.8 973.726  21
   2  -7   9 2441.04 302.786  23
   2  -7   9 2712.53 316.148  21
   2  -7  10 760.279 145.858  23
   2  -7  10 825.073 163.865  21
   2  -7  11 1042.58 135.992  21
  -2   6   7 5452.86 254.691  17
  -2   6   6 8895.65 512.824  19
  -2   6   6 8333.79 468.995  17
  -2   6   5-134.199 94.1792  17
  -2   6   5 112.304 82.5007  19
  -2   6   5 50.6707 68.5996  24
  -2   6   4 6784.42 518.341  17
  -2   6   4 7079.85 561.115  19
  -2   6   3 19451.4 944.967  19
  -2   6   3 20071.0 943.635   5
  -2   6   3 20210.3 872.142   4
  -2   6   2 13023.3 777.670   5
  -2   6   2 14275.9 770.200   4
  -2   6   1 21830.6 949.134   4
  -2   6   1 20917.6 961.840   5
   2  -6  -1 20524.6 791.256  22
  -2   6   0 2602.48 320.758  14
  -2   6   0 2691.42 336.819   5
  -2   6   0 2974.95 347.818   4
  -2   6   0 3209.77 359.585   7
  -2   6  -1 9206.49 594.481   5
  -2   6  -2 633.857 158.135   5
  -2   6  -3 2010.46 252.723   4
  -2   6  -4 3214.30 306.067   4
   2  -6   4 10071.6 641.581   6
   2  -6   5 3434.85 349.688  22
   2  -6   5 3515.79 344.819   6
   2  -6   6 1660.63 253.336  21
   2  -6   6 1605.30 245.617   6
   2  -6   7 2456.79 334.100  21
   2  -6   7 2141.06 266.406   6
   2  -6   8 482.389 168.492  23
   2  -6   8 377.751 118.699   6
   2  -6   8 425.525 153.101  21
   2  -6   9 5588.41 504.178  21
   2  -6   9 6040.96 510.677  23
   2  -6  10 826.457 170.796  23
   2  -6  10 797.934 173.732  21
   2  -6  11 952.117 158.019  21
  -2   5   8 7218.67 301.111  17
  -2   5   8 764.522 116.760  20
  -2   5   7 32.2233 72.4972  19
  -2   5   7 36.5886 73.5648  20
  -2   5   6 700.441 182.268  19
  -2   5   6 652.315 163.970  17
  -2   5   6 503.337 118.808  24
  -2   5   5 4649.29 398.432  24
  -2   5   5 5340.44 471.158  17
  -2   5   5 5381.24 489.874  19
  -2   5   4 1144.18 223.399  17
  -2   5   4 1203.71 195.131  24
  -2   5   4 1279.33 250.758  19
  -2   5   4 1203.41 224.185   5
  -2   5   3 776.147 190.809   5
  -2   5   3 1153.11 207.580   4
  -2   5   3 994.952 207.390  19
  -2   5   2 1016.75 206.792   5
  -2   5   1 177.564 98.7181   5
   2  -5  -1 560.100 310.300   1
   2  -5   0 6174.46 930.054   1
  -2   5   0 7234.68 482.076   5
  -2   5  -1 696.377 153.026   5
   2  -5   1 409.297 256.872   1
   2  -5   2 12664.6 1370.33   1
  -2   5  -2 13906.9 590.809   5
  -2   5  -3 6771.85 392.475   5
   2  -5   4 28103.8 853.480   6
   2  -5   5 40700.3 1085.28   6
   2  -5   5 39475.8 2655.54   2
   2  -5   6 28652.7 2272.31   2
   2  -5   6 33418.7 1109.57  21
   2  -5   6 30325.1 982.991   6
   2  -5   7 52965.8 1516.83  21
   2  -5   7 54653.3 1595.60  23
   2  -5   8 6697.58 570.078  23
   2  -5   8 6521.15 559.910  21
   2  -5   8 6236.38 458.100   6
   2  -5   9 30290.2 1194.46  21
   2  -5   9 29314.3 1149.66  23
   2  -5  10 4517.47 405.329  23
   2  -5  10 4887.29 450.879  21
   2  -5  11 8736.74 491.287  21
  -2   4   9 2011.29 212.334  20
  -2   4   8 1811.64 258.490  19
  -2   4   8 4603.29 365.910  17
  -2   4   7 14010.9 763.587  19
  -2   4   7 12474.6 668.368  17
  -2   4   7 11831.9 637.902  24
  -2   4   6 1977.78 308.436  19
  -2   4   6 2045.02 288.932  17
  -2   4   6 2165.27 288.041  24
  -2   4   5 39467.8 1278.66  19
  -2   4   5 37488.3 1206.99  17
  -2   4   5 39843.4 1169.76   5
  -2   4   5 37428.6 1161.70  24
  -2   4   4 44337.6 1248.58   5
  -2   4   4 43253.3 1253.81  19
   2  -4  -4 42781.3 2920.77   1
   2  -4  -3 34826.3 2498.03   1
  -2   4   3 36168.4 1089.10   5
   2  -4  -2 86111.3 3653.09   1
   2  -4  -1 21477.1 1715.39   1
   2  -4   0 20832.0 1608.15   1
   2  -4   1 14759.3 1337.91   1
   2  -4   2 32172.2 2023.24   1
  -2   4  -2 30921.0 732.659   5
   2  -4   3 5834.25 867.640   1
  -2   4  -3 5579.33 289.481   5
   2  -4   4 13748.3 549.477   6
   2  -4   4 15299.2 1616.70   2
   2  -4   5 10556.4 529.204   6
   2  -4   5 10388.7 1358.07   2
   2  -4   6 17315.9 1794.88   2
   2  -4   6 16110.1 671.221   6
   2  -4   7 40771.9 1142.47   6
   2  -4   7 41614.0 1314.97  21
   2  -4   7 42778.1 1361.60  23
   2  -4   8 9993.00 689.688  21
   2  -4   8 9601.82 678.791  23
   2  -4   8 9870.31 575.333   6
   2  -4   8 9860.71 616.870  11
   2  -4   9 159.110 127.822  21
   2  -4   9 72.0362 92.2432  11
   2  -4   9 100.444 118.098  23
   2  -4  10 7878.19 564.802  21
   2  -4  10 7552.07 515.738  11
   2  -4  11 909.750 156.840  21
   2  -4  11 1027.39 159.720  11
  -2   3  10 6016.32 347.332  20
  -2   3   9 7646.22 552.030  20
  -2   3   9 15420.5 541.503  17
  -2   3   8 17669.8 747.419  17
  -2   3   8 18888.4 902.434  19
  -2   3   7 4909.84 476.542  19
  -2   3   7 4134.41 408.267  17
  -2   3   7 4861.20 432.687  24
  -2   3   6 2644.74 332.792  19
  -2   3   6 2516.90 311.250  17
   2  -3  -6 2899.48 861.680   1
  -2   3   6 2633.03 319.949  24
   2  -3  -5 35869.3 2832.51   1
  -2   3   5 34726.7 1007.62   5
   2  -3  -4 10996.5 1465.58   1
   2  -3  -3 118259. 4338.28   1
   2  -3  -2 43660.1 2433.25   1
   2  -3  -1 2354.23 554.306   1
   2  -3   0 1407.17 398.718   1
   2  -3   1 98872.6 3200.30   1
   2  -3   2 8004.94 962.558   1
   2  -3   3 56835.0 904.063   6
  -2   3  -3 58703.7 722.601   5
   2  -3   4 14624.7 523.590   6
   2  -3   4 16366.1 1536.99   2
   2  -3   5 7288.67 1133.71   2
   2  -3   5 7522.68 402.966   6
   2  -3   6 17580.7 1894.28   2
   2  -3   6 18126.9 690.902   6
   2  -3   7 3080.43 317.251   6
   2  -3   7 3322.07 364.083  21
   2  -3   7 3945.35 959.329   2
   2  -3   7 3162.54 366.824  23
   2  -3   8 13156.6 709.328  20
   2  -3   8 12383.7 751.506  21
   2  -3   8 12822.7 773.361  23
   2  -3   8 12821.1 767.216  11
   2  -3   9 2614.61 349.180  21
   2  -3   9 2394.19 345.447  11
   2  -3  10 2922.85 355.120  11
   2  -3  10 2953.49 328.301  21
   2  -3  11 4271.02 304.677  18
   2  -3  11 5090.60 385.129  11
  -2   2  10 2072.41 274.865  20
  -2   2   9 13833.0 603.269  17
  -2   2   9 1927.32 264.285  11
  -2   2   8 6344.65 513.008  11
  -2   2   8 6166.96 533.309  19
  -2   2   8 6930.11 486.884  17
  -2   2   7 2056.17 294.399  19
  -2   2   7 1825.07 243.291   9
  -2   2   7 1621.38 230.983  17
  -2   2   7 2267.56 303.641  11
  -2   2   7 1978.95 277.811  24
   2  -2  -6 30236.4 2685.51   1
   2  -2  -5 10682.1 1466.96   1
   2  -2  -4 3844.82 788.450   1
   2  -2  -3 53250.9 2672.93   1
   2  -2  -2 1926.84 493.763   1
   2  -2  -1 11625.2 1071.66   1
   2  -2   0 160654. 3785.20   1
   2  -2   1 600901. 7291.13   1
   2  -2   2 4425.91 188.350   6
   2  -2   2 5026.42 702.089   1
   2  -2   3 33921.1 605.802   6
   2  -2   3 42387.3 2265.47   2
   2  -2   4 50090.8 859.381   6
   2  -2   4 55224.1 2766.63   2
   2  -2   5 205572. 5950.45   2
   2  -2   5 200171. 1987.96   6
   2  -2   6 79306.9 4144.26   2
   2  -2   7 16581.6 779.774  21
   2  -2   7 17187.9 2074.45   2
   2  -2   7 16964.4 828.036  23
   2  -2   7 15428.7 813.007  11
   2  -2   7 17601.6 823.734  20
   2  -2   8 38526.0 1261.60  21
   2  -2   8 40360.2 1338.17  20
   2  -2   8 38266.2 1397.34  11
   2  -2   9 9814.61 662.574  20
   2  -2   9 9041.83 583.290  21
   2  -2   9 8840.02 677.264  11
   2  -2  10 18664.1 916.696  11
   2  -2  11 9547.45 424.128  18
   2  -2  11 11098.9 573.916  11
  -2   1  11 2312.83 234.007  20
  -2   1  11 1845.33 176.447  11
  -2   1  10 8950.38 612.557  20
  -2   1  10 8833.42 566.393  11
  -2   1   9 20732.1 982.705  11
  -2   1   9 23308.9 789.318  17
  -2   1   8 20320.4 928.890  19
  -2   1   8 20654.7 983.092  11
  -2   1   8 20390.4 789.731  17
  -2   1   8 17649.4 777.348   9
  -2   1   7 15388.5 792.841  11
  -2   1   7 12883.1 674.610  24
  -2   1   7 12825.9 629.577   9
  -2   1   7 13930.4 774.530  16
   2  -1  -7 13618.0 1842.08   1
  -2   1   7 13496.9 699.568  19
   2  -1  -6 66707.2 3823.34   1
   2  -1  -5 102361. 4197.60   1
   2  -1  -4 199482. 5258.00   1
   2  -1  -3 94250.1 3325.27   1
   2  -1  -2 123.207 175.094   1
   2  -1  -1 23915.6 1400.15   1
   2  -1   0 999999. 8377.07   1
   2  -1   1 97463.2 2657.37   1
   2  -1   2 1262.89 388.995   1
   2  -1   2 1579.69 399.138   2
   2  -1   3 15449.4 389.508   6
   2  -1   3 14095.5 579.661   3
   2  -1   3 13372.5 1251.59   2
   2  -1   4 80074.1 3413.11   2
   2  -1   5 138.450 200.699   2
   2  -1   6 39832.2 3041.37   2
   2  -1   7 7877.11 595.192  20
   2  -1   7 8233.73 1456.42   2
   2  -1   7 7989.25 621.943  11
   2  -1   8 48.0980 112.628  11
   2  -1   8 133.215 119.987  20
   2  -1   9 12511.4 780.964  20
   2  -1   9 13175.3 839.237  11
   2  -1  10 139.070 111.979  11
   2  -1  10 48.7096 81.1275  18
   2  -1  11 197.441 91.2562  11
   2  -1  11-55.0449 39.4126  18
  -2   0  11 16721.9 674.154  20
  -2   0  11 17149.8 734.196  11
  -2   0  10 12771.9 741.650  20
  -2   0  10 11310.0 724.012  11
  -2   0   9 14510.4 739.518   9
  -2   0   9 14715.5 870.134  11
  -2   0   8 920.253 223.937  11
  -2   0   8 643.941 165.095   9
  -2   0   8 766.470 207.956  16
   2   0  -8 573.435 454.067   1
   2   0  -7 13757.4 1789.22   1
   2   0  -6 48873.4 3052.20   1
   2   0  -5 36635.6 2354.84   1
   2   0  -4 35474.1 2039.10   1
  -2   0   4 31304.0 685.934   6
   2   0  -3 73678.9 2635.59   1
  -2   0   3 68986.5 862.659   6
   2   0  -2 59609.8 2144.87   1
   2   0  -1 10225.6 766.088   1
   2   0   0 76121.4 1972.85   1
   2   0   1 6532.38 689.861   2
   2   0   1 5957.02 595.146   1
   2   0   1 6064.14 592.787   3
   2   0   2 38525.0 1888.29   2
   2   0   2 35144.4 1319.86   3
   2   0   3 26951.0 1816.48   2
   2   0   3 25640.7 1167.18   3
   2   0   4 113720. 4300.68   2
   2   0   5 18373.9 1931.90   2
   2   0   6 8537.65 1443.23   2
   2   0   7 14065.9 1961.30   2
   2   0   7 14017.8 841.953  20
   2   0   7 12544.1 640.388  24
   2   0   7 14214.9 856.363  11
   2   0   8 5255.74 532.117  20
   2   0   8 5231.77 490.116  18
   2   0   8 4583.44 383.937  24
   2   0   8 5137.30 535.592  11
   2   0   9 12597.3 707.695  18
   2   0   9 14345.1 829.272  20
   2   0   9 13173.2 817.713  11
   2   0  10 6095.66 469.346  11
   2   0  10 5231.47 373.729  18
  -2  -1  12 71.5679 57.8983  11
  -2  -1  11-157.351 128.990  11
  -2  -1  11-63.6979 73.2849  20
  -2  -1  10 1564.71 249.421  20
  -2  -1  10 1436.71 271.569  11
  -2  -1  10 1469.68 242.567   9
  -2  -1   9 11177.9 756.797  11
  -2  -1   9 10921.1 670.146   9
  -2  -1   8 5763.57 491.796  16
  -2  -1   8 5502.90 450.740   9
   2   1  -7 47898.4 3199.34   1
  -2  -1   6 22795.0 764.318   6
  -2  -1   5 16621.2 572.005   6
  -2  -1   4 460.061 99.1981   6
  -2  -1   3 4231.39 213.609   6
   2   1  -3 4716.13 603.674   1
  -2  -1   2 26559.1 438.342   6
   2   1  -2 24334.8 1169.01   1
   2   1  -1 44305.5 948.040   2
   2   1  -1 37055.2 1182.31   1
   2   1   0 71379.5 1791.60   2
   2   1   0 72843.9 2206.29   3
   2   1   0 73753.5 1479.37   1
   2   1   1 7901.88 757.891   2
   2   1   1 7117.60 721.486   3
   2   1   2 89236.3 3055.55   2
   2   1   2 81391.3 2568.29   3
   2   1   3 111897. 3961.82   2
   2   1   3 102426. 3029.88   3
   2   1   4 109763. 4426.04   2
   2   1   5 65657.0 3834.19   2
   2   1   6 26331.7 1021.85  18
   2   1   6 28608.3 1120.47   8
   2   1   6 30714.5 2872.64   2
   2   1   6 27515.3 988.117  24
   2   1   6 28853.4 1177.51  20
   2   1   6 30332.5 1177.76  11
   2   1   7 22499.4 1102.73  20
   2   1   7 21649.5 991.662  18
   2   1   7 23878.0 1119.58  11
   2   1   7 21903.6 919.808  24
   2   1   8 20517.6 959.238  18
   2   1   8 19093.9 608.709  17
   2   1   8 20345.0 844.453  24
   2   1   8 22844.1 1082.03  11
   2   1   8 22123.0 1074.71  20
   2   1   9 4783.34 414.628  18
   2   1   9 5441.29 487.983  20
   2   1   9 5545.44 472.314  11
   2   1  10 3283.62 242.543  18
  -2  -2  12 9639.03 498.161  11
  -2  -2  11 11202.2 546.598  21
  -2  -2  11 11900.2 707.066  11
  -2  -2  10 16651.0 906.769  11
  -2  -2   9 12410.2 745.921   9
  -2  -2   9 13515.1 820.903  11
  -2  -2   8 33720.6 1097.26  16
  -2  -2   8 34083.0 1167.34   9
   2   2  -8 33786.5 2812.96   1
  -2  -2   7 73383.4 1574.89   6
  -2  -2   6 88721.7 1508.84   6
   2   2  -5 61556.9 2195.36   3
  -2  -2   5 55747.0 1054.65   6
  -2  -2   4 88159.0 1201.17   6
   2   2  -4 96267.5 2790.89   3
   2   2  -3 17780.3 1049.18   1
  -2  -2   3 16870.0 470.584   6
   2   2  -3 19091.6 1266.47   3
   2   2  -2 21940.3 833.360   1
   2   2  -2 19877.3 1366.54   3
   2   2  -1 34617.4 1779.15   3
   2   2   0 623.883 264.549   3
   2   2   0 553.528 182.676   2
   2   2   1 1023.95 352.459   3
   2   2   1 1203.87 325.770   2
   2   2   2 5743.16 851.127   2
   2   2   2 5548.56 812.221   3
   2   2   3 2264.87 538.444   3
   2   2   3 2683.23 645.687   2
   2   2   4 5779.00 1116.98   2
   2   2   5 11019.4 691.635  20
   2   2   5 10539.7 645.681  18
   2   2   5 10779.1 670.624   8
   2   2   5 12590.0 1798.17   2
   2   2   5 11565.5 662.998  24
   2   2   5 11780.5 687.883  11
   2   2   6 1223.06 269.644  20
   2   2   6 983.562 233.535  18
   2   2   6 1040.33 206.747  24
   2   2   6 1062.03 247.336  11
   2   2   7 559.349 185.509  11
   2   2   7 216.441 106.932  20
   2   2   7 261.891 120.442  18
   2   2   7 280.880 129.781  24
   2   2   8 1054.55 207.154  11
   2   2   8 713.842 174.842  20
   2   2   8 559.632 171.663  18
   2   2   8 643.430 151.412  24
   2   2   9-68.6472 64.1570  18
   2   2   9 952.499 205.955  20
  -2  -3  12 5746.64 307.630  21
  -2  -3  12 6264.64 400.930  11
  -2  -3  11 5269.09 456.400  11
  -2  -3  11 5202.02 420.847  21
  -2  -3  10 6665.09 555.156  11
  -2  -3   9 3950.74 432.487   9
  -2  -3   9 3859.25 358.953  13
  -2  -3   8 3936.71 358.760  13
  -2  -3   8 4606.46 446.608   9
   2   3  -8 3155.38 826.349   1
  -2  -3   8 3458.99 361.619   6
  -2  -3   7 13155.3 656.904   6
  -2  -3   6 15466.6 646.828   6
   2   3  -5 10974.0 1023.91   3
  -2  -3   5 10354.6 490.200   6
   2   3  -4 26820.8 1407.67   1
   2   3  -4 26048.5 1621.42   3
   2   3  -3 631.533 300.823   3
   2   3  -2 1821.02 479.640   3
   2   3  -1 411.183 233.798   3
   2   3   0 22187.6 1768.36   3
   2   3   1 24875.8 1962.86   3
   2   3   1 23912.3 1651.70   2
   2   3   2 23811.1 1883.49   2
   2   3   2 23943.1 2012.86   3
   2   3   3 36708.2 2611.88   3
   2   3   3 33469.4 2528.58   2
   2   3   4 39071.1 1290.22  18
   2   3   4 41112.1 1295.02  24
   2   3   4 41549.3 1265.94   8
   2   3   5 2717.78 307.440  10
   2   3   5 2411.95 353.469  18
   2   3   5 2873.02 359.714  20
   2   3   5 2926.51 367.335   8
   2   3   5 2618.23 348.419  24
   2   3   5 2762.72 305.533  17
   2   3   6 6853.25 568.783  20
   2   3   6 5392.42 409.066  17
   2   3   6 6629.03 584.350  18
   2   3   6 7054.36 575.255  24
   2   3   7 11956.4 733.488  18
   2   3   7 11242.3 497.276  17
   2   3   7 11177.8 680.833  20
   2   3   7 11692.1 673.323  24
   2   3   8 4857.41 392.024  18
   2   3   8 4651.74 341.802  24
  -2  -4  12 1058.77 154.300  21
  -2  -4  12 1021.87 152.402  11
  -2  -4  11 3884.08 376.008  21
  -2  -4  11 3528.15 345.007  11
  -2  -4  10 1540.47 224.926  13
  -2  -4  10 1536.43 265.029  11
  -2  -4   9 3074.95 343.109  13
  -2  -4   9 2842.64 345.760   6
  -2  -4   8 18316.1 824.831  13
  -2  -4   8 17027.2 805.124   6
  -2  -4   7 26374.4 952.759  13
  -2  -4   7 22514.8 874.635   6
  -2  -4   6 7574.52 491.002   6
   2   4  -5 5147.71 793.484   3
  -2  -4   5 5099.93 375.445   6
   2   4  -4 3817.33 739.072   3
  -2  -4   4 5166.35 366.236   6
   2   4  -3 7362.82 1053.14   3
   2   4  -2 43375.8 2627.97   3
   2   4  -1 15457.0 1644.96   3
   2   4   0 4977.90 989.198   3
   2   4   1 32010.3 2584.91   3
   2   4   2 38991.7 2959.77   3
   2   4   3 57550.2 1440.21  10
   2   4   3 60806.2 1675.37  18
   2   4   3 56718.8 3603.97   3
   2   4   4 3015.51 328.810  10
   2   4   4 3259.55 413.965  18
   2   4   4 3178.78 336.668  17
   2   4   4 3493.29 375.710   8
   2   4   4 3690.20 419.187  24
   2   4   5 23331.0 1104.88  18
   2   4   5 21121.1 845.628  17
   2   4   5 23796.5 1050.69  24
   2   4   6 9678.99 668.414  18
   2   4   6 9439.15 621.412  24
   2   4   6 9695.75 557.589  20
   2   4   7 9807.35 524.722  24
   2   4   8 3840.60 234.567  24
  -2  -5  12 1821.63 193.235  21
  -2  -5  11 12012.1 623.982  21
  -2  -5  11 11131.9 500.852  11
  -2  -5  10 13505.0 672.810  13
  -2  -5  10 13846.2 642.678  11
  -2  -5   9 5775.72 476.179  13
  -2  -5   9 5857.60 476.622   6
  -2  -5   8 43647.0 1293.49   6
  -2  -5   8 46713.0 1370.96  13
  -2  -5   7 28209.2 1012.01   6
  -2  -5   7 30369.6 1062.55  13
  -2  -5   6 21986.0 863.762  13
  -2  -5   6 20888.0 852.630   6
  -2  -5   5 8810.68 528.329   6
   2   5  -4 32108.0 2395.05   3
  -2  -5   4 36733.3 1027.55   6
   2   5  -3 418.350 283.957   3
   2   5  -2 3738.95 876.443   3
   2   5  -1-195.270 255.853   3
   2   5   0 1600.33 618.214   3
   2   5   1 1986.13 279.305  10
   2   5   1 1721.47 661.090   3
   2   5   2 464.264 146.980  10
   2   5   2 721.791 199.873  18
   2   5   3-140.235 91.9916  10
   2   5   3-17.3828 88.4870  18
   2   5   3-142.971 114.548  24
   2   5   4 6438.39 475.900  17
   2   5   4 7014.63 564.480  24
   2   5   5 232.603 93.6422  17
   2   5   5 187.529 112.485  24
   2   5   6 313.842 108.133  24
   2   5   7 376.021 76.0116  24
  -2  -6  12 4171.53 247.926  21
  -2  -6  11 759.608 151.098  21
  -2  -6  10 166.747 102.972  21
  -2  -6  10 103.286 69.2846  13
  -2  -6   9 5089.54 441.799  13
  -2  -6   8 48.1859 67.2959   6
  -2  -6   8-33.8345 86.9528  13
  -2  -6   7 2574.42 313.748   6
  -2  -6   7 3013.10 340.517  13
   2   6  -6 655.987 178.203  14
  -2  -6   6 221.519 107.528   6
  -2  -6   6 530.546 149.728  13
   2   6  -5 28058.8 1068.64  14
  -2  -6   5 26678.1 918.603  13
  -2  -6   5 24704.9 924.766   6
   2   6  -4 20422.9 2054.29   3
   2   6  -4 20514.5 928.800  14
   2   6  -3 3210.66 371.150  14
   2   6  -3 3075.07 369.862   7
   2   6  -3 3811.11 929.344   3
   2   6  -2 221.096 112.615  10
   2   6  -2 197.157 122.107  14
   2   6  -2 154.474 97.4239   7
   2   6  -1 3931.02 422.072  10
   2   6  -1 3913.41 415.285  14
   2   6  -1 3804.95 1008.42   3
   2   6   0 16647.3 871.819  10
   2   6   0 16432.8 823.756  14
   2   6   1 9948.71 668.051  10
   2   6   2 12578.8 708.533  10
   2   6   2 13186.0 764.834  24
   2   6   3 6645.21 531.639  24
   2   6   3 6664.72 455.608  10
   2   6   3 6792.56 471.352  17
   2   6   4 911.971 150.343  17
   2   6   4 1140.79 212.801  24
   2   6   5 6992.20 401.941  24
  -2  -7  11 212.325 67.9760  21
   2   7 -11 256.063 62.7848   7
  -2  -7  10 1892.15 212.739  21
   2   7 -10 1683.65 213.064   7
  -2  -7   9 16076.2 661.155  21
  -2  -7   9 15611.1 704.765  13
  -2  -7   8 7911.49 477.217  21
  -2  -7   8 7569.17 511.546  13
   2   7  -7 297.436 97.3565  14
  -2  -7   7 227.073 109.088  13
  -2  -7   7 27.1321 61.0327   6
   2   7  -6 434.356 132.470  14
  -2  -7   6 404.384 126.276   6
  -2  -7   6 418.258 135.574  13
  -2  -7   5 33618.2 1001.80  13
   2   7  -5 35342.9 1263.41  14
   2   7  -5 35974.8 1331.47   7
  -2  -7   5 31493.6 1048.81   6
   2   7  -4 2304.80 337.430   7
   2   7  -4 2262.11 335.138  14
   2   7  -3 14860.9 850.218  14
   2   7  -3 15114.7 833.678   7
   2   7  -2 2147.90 322.153  14
   2   7  -2 2118.68 302.625   7
   2   7  -1 14650.2 807.725  14
   2   7   0 1653.00 255.548  14
   2   7   1 7524.12 535.403  24
   2   7   2 12679.2 586.965  17
   2   7   2 14111.6 672.783  24
   2   7   3 569.903 104.986  17
   2   7   3 522.025 115.558  24
   2   7   4 9423.99 368.601  24
   2   8 -10 4238.06 262.263   7
   2   8  -9 4572.15 348.612   7
   2   8  -8 6964.18 486.289   7
   2   8  -7 5551.18 407.333  14
   2   8  -7 6073.91 483.920   7
   2   8  -6 9914.13 603.168  14
   2   8  -6 9463.26 629.298   7
   2   8  -5 248.440 120.865  14
   2   8  -5 377.950 135.071   7
   2   8  -4 516.034 155.653   7
   2   8  -4 124.605 112.357  14
   2   8  -3 5263.68 479.135  14
   2   8  -3 5553.34 458.293   7
   2   8  -2 132.568 82.0039  14
   2   8  -2 356.288 120.109   7
   2   8  -1 1928.02 267.514  14
   2   8  -1 1573.84 205.863  24
   2   8   0 737.922 133.914  24
   2   8   0 816.084 145.345  14
   2   8   1 496.445 102.681  17
   2   8   1 592.886 115.126  24
   2   9  -9 131.914 43.4519   7
   2   9  -8 1253.73 158.370   7
   2   9  -7 87.6695 43.5391  14
   2   9  -7 106.461 70.5019   7
   2   9  -6 112.982 66.7712  14
   2   9  -6-1.25763 52.9003   7
  -2  -9   6 137.205 60.5725  22
   2   9  -5 391.138 129.147  14
   2   9  -5 340.161 103.019   7
   2   9  -4 1033.61 184.110  14
   2   9  -4 1230.16 173.001   7
   2   9  -3 97.3708 68.3066  14
   2   9  -2 3740.54 292.606  14
  -2  -9   1 1101.31 127.778  22
  -3  10  -1 1729.77 141.986  19
  -3  10  -2 575.564 96.7105  19
   3 -10   2 655.709 97.6881  22
   3 -10   3 911.089 131.133  22
   3 -10   4 744.910 118.543  22
   3 -10   5 1456.66 149.579  22
   3 -10   6 534.783 86.5419  23
   3 -10   6 432.583 66.4752  22
  -3   9   2-6.68049 32.4613  19
  -3   9   1 1987.11 207.715  19
  -3   9   1 1956.85 170.025  17
  -3   9   0 48.3810 71.3008  19
   3  -9   0 96.3949 55.8087  22
   3  -9   1 55.7623 56.5228  22
   3  -9   2 301.128 111.054  22
   3  -9   3-36.2615 77.4184  22
   3  -9   4 1939.73 251.096  22
   3  -9   5 66.1057 69.2567  22
   3  -9   6 1259.07 170.827  22
   3  -9   7 2033.29 227.535  23
   3  -9   7 1779.01 158.080  22
   3  -9   8 1035.51 144.925  23
   3  -9   9 6779.05 274.450  23
  -3   8   4 48.6940 40.5532  19
  -3   8   3 11194.6 465.518  17
  -3   8   3 11746.9 547.053  19
  -3   8   2 1242.27 204.696  19
  -3   8   2 1065.49 166.317  17
   3  -8  -1 1587.43 200.294  22
  -3   8   1 1628.85 252.856  19
   3  -8   0 9299.34 545.170  22
   3  -8   1 7750.80 535.421  22
  -3   8  -1 8247.96 570.245   4
  -3   8  -2 1823.23 268.437   4
   3  -8   2 1666.44 268.781  22
  -3   8  -3 5328.04 438.148   4
  -3   8  -3 4916.46 457.042   7
   3  -8   3 5069.43 457.950  22
  -3   8  -4 14810.8 764.649   7
   3  -8   4 15155.3 781.578  22
  -3   8  -5 905.886 168.441   7
   3  -8   5 890.728 190.088  22
   3  -8   6 8457.92 524.311  22
   3  -8   7 2010.60 285.008  23
   3  -8   7 1816.96 208.797  22
   3  -8   7 2064.08 236.164  21
   3  -8   8 79.1629 68.3475  21
   3  -8   8 13.0460 68.4908  23
   3  -8   9 13836.7 518.500  21
   3  -8   9 14327.9 577.948  23
   3  -8  10 7087.28 299.938  23
  -3   7   6 2175.24 170.783  19
  -3   7   5 22490.8 634.943  17
  -3   7   5 25044.6 779.843  19
  -3   7   4 15639.9 726.198  19
  -3   7   4 14604.9 622.363  17
  -3   7   3 79.6877 80.0013  19
  -3   7   3 222.632 103.732  17
  -3   7   2 22524.5 992.825  19
  -3   7   2 23111.2 1001.41   5
  -3   7   2 23072.3 944.684   4
  -3   7   1 3808.85 405.758   4
  -3   7   1 3594.03 409.214   5
   3  -7  -1 3600.11 343.553  22
  -3   7   0 13032.3 765.297   5
   3  -7   0 13986.6 718.609  22
  -3   7  -1 337.383 128.254   5
  -3   7  -1 470.180 148.169   4
   3  -7   1 605.556 168.142  22
  -3   7  -2 21343.6 903.279   5
   3  -7   2 21672.5 939.184  22
  -3   7  -2 21852.8 935.840   4
  -3   7  -2 21084.6 956.748   7
  -3   7  -3 417.103 137.918   4
   3  -7   3 360.518 132.859  22
  -3   7  -4 2705.85 297.616   4
  -3   7  -4 2272.27 293.210   7
   3  -7   4 3110.11 364.415  22
  -3   7  -5 8016.67 528.234   7
   3  -7   5 8023.86 569.332  22
   3  -7   6 5027.97 428.130  22
   3  -7   6 5867.31 470.443  21
   3  -7   7 149.568 98.9312  21
   3  -7   7 188.718 117.302  23
   3  -7   8 6554.59 520.917  23
   3  -7   8 7204.94 520.171  21
   3  -7   9 4731.64 394.315  21
   3  -7   9 4933.78 405.560  23
   3  -7  10 7848.39 414.944  23
   3  -7  10 7999.34 434.815  21
  -3   6   7 5521.37 229.286  17
  -3   6   7 671.578 112.340  19
  -3   6   6-298.121 96.0255  17
  -3   6   6 2.44318 69.9905  19
  -3   6   5 5515.91 412.870  17
  -3   6   5 5110.88 356.503   9
  -3   6   5 5806.05 482.510  19
  -3   6   4-30.7330 99.6674  19
  -3   6   4 111.177 80.9405  17
  -3   6   4 148.263 85.7246   5
  -3   6   3 10882.9 698.716   5
  -3   6   3 9648.35 672.402  19
  -3   6   3 10842.2 643.247   4
  -3   6   2 1105.26 235.626   5
  -3   6   2 1445.42 248.713   4
  -3   6   1 3973.14 421.892   5
   3  -6  -1 3983.02 358.909  22
   3  -6   0 2095.07 267.584  22
  -3   6   0 2110.82 300.585   5
  -3   6  -1 1101.31 208.134   5
  -3   6  -1 851.101 184.777   7
   3  -6   1 1130.03 200.755  22
  -3   6  -2 6754.71 474.326   5
   3  -6   2 6461.05 1074.51   1
   3  -6   2 7473.86 519.939  22
  -3   6  -3 7333.08 462.347   5
   3  -6   3 7276.94 515.542  22
   3  -6   4 221.146 85.5209   6
   3  -6   4 512.939 152.443  22
   3  -6   5 25155.5 963.710  22
   3  -6   5 27285.2 1012.54  21
   3  -6   6 2753.18 346.107  21
   3  -6   6 3005.22 326.878  22
   3  -6   7 3678.34 410.202  21
   3  -6   7 3675.38 430.013  23
   3  -6   8 38027.5 1327.84  23
   3  -6   8 40215.7 1346.13  21
   3  -6   9 47832.2 1378.12  23
   3  -6   9 47606.0 1391.52  21
   3  -6  10-41.9985 63.7505  23
   3  -6  10-50.9320 66.1875  21
   3  -6  11 5183.75 299.998  21
  -3   5   8 8722.91 304.380  17
  -3   5   8 3147.12 246.704  20
  -3   5   7 11870.2 523.040  17
  -3   5   7 14349.9 678.055  19
  -3   5   6 25487.5 998.262  19
  -3   5   6 24463.5 895.425  17
  -3   5   6 23800.1 810.039   9
  -3   5   5 1114.55 206.685   5
  -3   5   5 1141.60 203.138  17
  -3   5   5 1118.37 224.943  19
  -3   5   4 10364.4 663.350   5
  -3   5   4 10502.9 672.566  19
  -3   5   4 9512.64 589.881  17
  -3   5   3 3076.81 367.923   5
   3  -5  -3 3179.31 831.067   1
  -3   5   2 18034.0 848.325   5
   3  -5  -2 16237.9 1790.29   1
   3  -5  -1 36507.1 2635.97   1
   3  -5   0 6258.36 1093.16   1
   3  -5   1 27558.1 2193.17   1
  -3   5  -2 23219.8 767.989   5
   3  -5   2 22413.1 2088.95   1
   3  -5   3 58062.2 1133.35   6
   3  -5   3 57368.9 3268.93   1
  -3   5  -3 60604.8 1155.11   5
   3  -5   4 7979.37 435.972   6
   3  -5   4 7502.59 1305.81   2
   3  -5   5 3346.23 847.338   2
   3  -5   6 15961.5 1884.39   2
   3  -5   6 16885.6 851.852  21
   3  -5   7 4811.64 481.288  21
   3  -5   7 4816.29 488.321  23
   3  -5   8 40745.6 1402.71  21
   3  -5   8 39627.1 1402.35  23
   3  -5   9 498.520 176.100  21
   3  -5   9 324.328 144.809  23
   3  -5  10 26670.4 958.405  21
   3  -5  11 6008.81 336.672  21
  -3   4   9 2314.23 234.535  20
  -3   4   8 17926.9 759.513  19
  -3   4   8 17311.7 577.672  17
  -3   4   7 3734.31 387.874  19
  -3   4   7 2947.91 294.817  17
  -3   4   7 3281.79 306.391   9
  -3   4   6 59843.7 1595.96  19
  -3   4   6 60020.0 1485.25  17
  -3   4   6 58734.0 1487.57   9
  -3   4   6 55594.8 1317.83  24
  -3   4   5 21565.1 902.070   5
  -3   4   5 18694.8 820.579  17
  -3   4   5 20191.7 900.612  19
  -3   4   5 17935.6 740.135  24
  -3   4   4 14101.2 727.783  19
  -3   4   4 14171.2 664.882  17
   3  -4  -3 58700.5 3510.24   1
   3  -4  -2 2206.96 651.654   1
   3  -4  -1 19319.5 1817.51   1
   3  -4   0 2388.38 703.253   1
   3  -4   1 82366.3 3812.62   1
   3  -4   2 2710.75 685.493   1
   3  -4   3 3301.90 773.736   1
   3  -4   3 2779.81 220.253   6
   3  -4   4 407.118 331.996   2
   3  -4   5 339.200 291.553   2
   3  -4   6 1262.04 234.795  21
   3  -4   6 929.756 490.889   2
   3  -4   6 1674.67 272.042  23
   3  -4   7 28796.7 1159.88  21
   3  -4   7 30962.3 1225.08  23
   3  -4   8 334.445 125.378  11
   3  -4   8 408.315 149.096  21
   3  -4   8 281.406 118.394  23
   3  -4   9 176.737 100.859  11
   3  -4   9 176.679 116.203  21
   3  -4   9 157.161 80.4558  23
   3  -4  10-94.4597 69.6313  11
   3  -4  10-19.8850 65.5188  21
   3  -4  11 50.8341 45.7170  18
   3  -4  11 6.46424 35.7101  21
  -3   3  10-7.64531 55.4696  20
  -3   3   9 6381.22 338.240  17
  -3   3   8 271.630 136.995  19
  -3   3   8 208.365 93.4176   9
  -3   3   7 535.551 145.778  19
  -3   3   7 94.3360 136.292  17
  -3   3   7 356.867 100.756   9
  -3   3   6 10471.6 640.180  19
  -3   3   6 10658.1 612.531  17
  -3   3   6 10179.6 614.498   9
  -3   3   6 10384.3 603.925  24
  -3   3   6 11935.7 699.038  16
   3  -3  -5 1842.36 684.039   1
  -3   3   5 2348.38 287.678  19
   3  -3  -4 4771.23 1017.58   1
   3  -3  -3 1287.14 507.552   1
   3  -3  -2 18234.1 1736.91   1
   3  -3  -1-45.3914 147.615   1
   3  -3   0 4918.35 918.206   1
   3  -3   1 63705.6 3033.82   1
   3  -3   2 51315.9 2735.02   1
   3  -3   3 3202.28 729.164   1
   3  -3   4 25403.0 2206.16   2
   3  -3   5 45964.8 3094.52   2
   3  -3   6 21012.2 2320.02   2
   3  -3   7 79973.6 1888.35  21
   3  -3   7 88312.6 4915.74   2
   3  -3   7 85507.9 2010.32  23
   3  -3   7 83675.5 1871.28  11
   3  -3   8 25782.4 1090.87  11
   3  -3   8 26302.6 1143.79  23
   3  -3   8 25210.8 1081.84  21
   3  -3   9 19906.0 942.142  11
   3  -3   9 20231.6 910.640  21
   3  -3  10 9501.94 576.920  11
   3  -3  10 9298.14 499.593  21
   3  -3  11 856.973 125.429  18
  -3   2  10 4631.26 388.025  20
  -3   2   9 15339.0 672.011   9
  -3   2   9 17095.9 605.490  17
  -3   2   8 19423.4 897.078  19
  -3   2   8 18157.0 799.284   9
  -3   2   8 20696.2 768.186  17
  -3   2   8 21311.1 901.051  11
  -3   2   7 57445.4 1469.40  19
  -3   2   7 55265.9 1409.84   9
  -3   2   7 60159.9 1680.65  16
  -3   2   6 7924.82 508.084  19
  -3   2   6 7729.79 476.887  17
  -3   2   6 8621.69 537.570   9
  -3   2   6 9489.18 629.634  16
  -3   2   6 9469.37 555.282  24
   3  -2  -6 9694.33 1567.55   1
   3  -2  -5 33532.5 2739.44   1
   3  -2  -4 29106.7 2381.46   1
   3  -2  -3 23948.8 1991.89   1
   3  -2  -2 105000. 4077.20   1
   3  -2  -1 50514.0 2550.04   1
   3  -2   0 104699. 3623.96   1
   3  -2   1 106502. 3593.04   1
   3  -2   2 106828. 3763.26   1
   3  -2   3 25870.2 2208.92   2
   3  -2   4 15821.0 1725.83   2
   3  -2   5 28139.3 2477.84   2
   3  -2   6 395.109 319.243   2
   3  -2   7 35249.0 1255.05  20
   3  -2   7 36470.5 3205.80   2
   3  -2   7 33899.1 1276.69  23
   3  -2   7 32967.2 1256.13  11
   3  -2   7 33609.6 1174.39  21
   3  -2   8 15381.3 858.664  20
   3  -2   8 13468.1 842.183  11
   3  -2   8 13943.7 757.745  21
   3  -2   9 8856.03 657.414  11
   3  -2  10 5828.73 426.343  18
   3  -2  10 6069.70 480.944  11
   3  -2  11 90.7939 43.0202  18
  -3   1  11 151.386 51.5878  11
  -3   1  11-31.3914 50.2887  20
  -3   1  10 3945.61 323.573   9
  -3   1  10 4350.97 378.121  11
  -3   1   9 18950.8 907.993  11
  -3   1   9 17890.9 810.400   9
  -3   1   8 26735.3 1104.42  11
  -3   1   8 23245.9 937.659   9
  -3   1   8 22153.4 805.360  17
  -3   1   8 25055.5 1117.76  16
  -3   1   8 24931.2 1005.67  19
   3  -1  -7 75418.4 4454.10   1
  -3   1   7 70418.9 1523.83  19
  -3   1   7 72630.1 1610.39   9
  -3   1   7 74953.9 1847.34  16
   3  -1  -6 37052.4 2934.42   1
   3  -1  -5 51051.4 3170.96   1
   3  -1  -4 40689.7 2588.59   1
   3  -1  -3 2015.18 568.750   1
   3  -1  -2 50556.8 2467.32   1
   3  -1  -1 16325.2 1333.24   1
   3  -1   0 79255.1 2875.65   1
   3  -1   1 12693.5 1174.35   1
   3  -1   2 8426.89 985.157   1
   3  -1   2 7925.64 739.971   3
   3  -1   3 650.914 371.009   2
   3  -1   4 559.172 332.725   2
   3  -1   5 18996.0 2107.23   2
   3  -1   6 37139.8 1251.10  20
   3  -1   6 37587.8 3185.15   2
   3  -1   6 36439.4 1180.13   8
   3  -1   6 33357.0 1216.10  11
   3  -1   7 2404.50 346.182  20
   3  -1   7 2292.34 354.941  11
   3  -1   8 6807.29 592.214  20
   3  -1   8 5830.36 566.043  11
   3  -1   9 28.0603 105.824  11
   3  -1   9-109.644 98.4638  18
   3  -1  10 414.621 132.570  11
   3  -1  10 421.444 117.005  18
  -3   0  11-46.7760 57.1484  20
  -3   0  11 68.2227 67.8222  11
  -3   0  10 310.797 156.091  11
  -3   0  10 303.209 109.868   9
  -3   0   9 161.378 137.316  11
  -3   0   9 343.901 162.217  16
  -3   0   9 21.9077 94.4927   9
  -3   0   8 34373.3 1288.10  16
  -3   0   8 33476.2 1141.98   9
  -3   0   7 43100.0 1200.96   9
  -3   0   7 49039.4 1456.40  16
   3   0  -7 46245.8 3364.26   1
   3   0  -6 146.830 226.847   1
   3   0  -5 901.139 414.815   1
   3   0  -4 14714.6 1433.08   1
   3   0  -3 15515.5 1373.31   1
   3   0  -2 4958.00 716.850   1
   3   0  -1 133410. 3381.59   1
   3   0   0 23776.0 1373.16   1
   3   0   0 21287.8 1246.43   2
   3   0   1 198366. 4649.81   3
   3   0   1 201016. 4172.88   1
   3   0   2 10056.2 1090.60   2
   3   0   2 8105.36 837.557   3
   3   0   3 25257.6 2005.91   2
   3   0   3 22619.6 1342.92   3
   3   0   4 54106.2 3315.05   2
   3   0   5 36909.8 3002.91   2
   3   0   6 91299.7 5025.93   2
   3   0   6 86051.3 1953.12   8
   3   0   6 84200.0 1986.79  20
   3   0   6 87376.7 2073.74  11
   3   0   7 19318.1 1008.99  20
   3   0   7 19518.5 1047.54  11
   3   0   8 19236.1 988.907  20
   3   0   8 17958.9 906.748  18
   3   0   8 18116.9 995.961  11
   3   0   9 14994.1 755.705  18
   3   0   9 14614.3 799.118  11
   3   0  10 866.000 138.394  18
  -3  -1  12 1206.96 152.981  11
  -3  -1  11 5115.38 431.103  11
  -3  -1  10 35549.1 1291.91  11
  -3  -1  10 32763.9 1143.94   9
  -3  -1   9 55117.1 1587.87  16
  -3  -1   9 55370.3 1570.92   9
  -3  -1   8 8502.93 583.686   9
  -3  -1   8 9305.04 645.063  16
   3   1  -7 41886.1 3063.98   1
   3   1  -6 50077.5 3054.02   1
  -3  -1   6 54439.9 1181.33   6
  -3  -1   5 49042.9 979.517   6
   3   1  -5 47070.9 2669.16   1
   3   1  -4 1207.77 411.899   1
  -3  -1   4 1328.99 148.181   6
   3   1  -3 245938. 5024.25   1
  -3  -1   3 280517. 1702.87   6
   3   1  -2 48332.8 1942.34   1
  -3  -1   2 52787.7 612.469   6
   3   1  -1 70483.3 1659.00   2
   3   1  -1 74268.3 2101.61   1
   3   1   0 196205. 3186.38   1
   3   1   0 189301. 4441.70   3
   3   1   1 15413.4 1235.17   2
   3   1   1 16164.6 1302.62   3
   3   1   2 19024.6 1583.07   2
   3   1   2 15680.8 1319.49   3
   3   1   3 18465.0 1774.42   2
   3   1   3 16294.2 1382.02   3
   3   1   4 33818.4 2682.88   2
   3   1   5 12491.5 731.837  20
   3   1   5 12480.3 1805.58   2
   3   1   5 13491.0 760.629   8
   3   1   5 13915.5 791.072  11
   3   1   5 12405.2 694.278  18
   3   1   6 24135.8 1097.69  20
   3   1   6 24554.8 1061.76  18
   3   1   6 27371.4 1164.41   8
   3   1   6 28376.5 1220.09  11
   3   1   6 25232.7 957.622  24
   3   1   7 14390.0 858.339  20
   3   1   7 14304.7 865.263  18
   3   1   7 13991.2 692.081  24
   3   1   7 14881.4 892.978  11
   3   1   8 5632.05 499.904  18
   3   1   8 4779.20 347.378  24
   3   1   8 5703.69 518.748  11
   3   1   9 79.2182 66.5281  18
  -3  -2  12 1870.30 209.468  11
  -3  -2  11 9423.19 502.786  21
  -3  -2  11 9310.20 595.397  11
  -3  -2  10 6803.77 578.883  11
  -3  -2  10 6508.32 535.461   9
  -3  -2   9 2662.08 334.986  16
  -3  -2   9 2688.39 364.961   9
  -3  -2   8 131593. 2364.24   9
  -3  -2   8 129411. 2250.02  16
   3   2  -8 128029. 5381.46   1
   3   2  -7 21440.9 2082.94   1
  -3  -2   7 22825.7 852.472   6
  -3  -2   6 11389.8 541.435   6
   3   2  -6 11720.2 1410.04   1
  -3  -2   5 197.117 70.7063   6
   3   2  -5 495.006 268.548   1
   3   2  -5 253.314 176.612   3
   3   2  -4 33968.3 1856.71   1
  -3  -2   4 34143.4 743.038   6
   3   2  -4 34310.9 2209.78   3
  -3  -2   3 3101.62 208.619   6
   3   2  -3 2635.57 434.078   1
   3   2  -3 3099.00 598.543   3
   3   2  -2 5204.56 814.110   3
  -3  -2   2 4786.31 223.934   6
   3   2  -1 8289.23 1027.36   3
   3   2   0 49751.9 1861.07   2
   3   2   0 48267.4 2529.08   3
   3   2   1 23877.3 1583.88   2
   3   2   1 22806.2 1802.81   3
   3   2   2 335.960 237.478   3
   3   2   2-294.699 226.807   2
   3   2   3 4788.26 936.947   2
   3   2   3 5303.36 905.245   3
   3   2   4 65415.9 1586.28  18
   3   2   4 69114.6 1685.08  11
   3   2   4 73188.8 1751.77   8
   3   2   4 64244.5 3821.07   2
   3   2   4 67485.5 1564.31  24
   3   2   5 1737.78 286.037  11
   3   2   5 1501.49 261.258  20
   3   2   5 1080.87 245.029  18
   3   2   5 1435.71 249.877  24
   3   2   5 1800.56 306.643   8
   3   2   6 4110.70 445.096  20
   3   2   6 4236.82 478.756  18
   3   2   6 4455.02 477.744   8
   3   2   6 4100.40 412.188  24
   3   2   6 4466.21 473.653  11
   3   2   7 9039.81 644.914  20
   3   2   7 8140.62 518.932  10
   3   2   7 8768.96 642.406  18
   3   2   7 8373.88 538.824  24
   3   2   8 3719.32 369.158  18
   3   2   8 3314.63 268.894  24
   3   2   9 60.0547 41.8497  18
  -3  -3  12 3315.03 223.299  21
  -3  -3  12 3825.00 293.143  11
  -3  -3  11 3802.26 370.095  11
  -3  -3  10 376.526 171.594  11
  -3  -3   9 3964.47 436.514   9
  -3  -3   9 4065.50 376.115  13
  -3  -3   8 6861.97 562.226   9
  -3  -3   8 5946.88 458.513   6
  -3  -3   8 6187.17 475.308  13
  -3  -3   7 6342.32 504.596   9
  -3  -3   7 6375.82 479.550  13
  -3  -3   7 6592.74 466.625   6
  -3  -3   6 837.836 152.303   6
   3   3  -5 104.278 141.489   3
  -3  -3   5 748.641 136.794   6
   3   3  -4 39219.6 2334.43   3
  -3  -3   4 37021.2 847.125   6
   3   3  -3 13918.4 1423.64   3
  -3  -3   3 14965.1 490.415   6
   3   3  -2 46716.1 2663.39   3
   3   3  -1 33958.8 2349.19   3
   3   3   0 13208.8 1532.15   3
   3   3   1 15658.8 1738.66   3
   3   3   2 30772.6 2494.82   3
   3   3   2 30819.7 2203.66   2
   3   3   3 39328.3 1283.14  18
   3   3   3 36614.8 2735.14   3
   3   3   3 33629.2 2558.35   2
   3   3   4 461.333 165.993  18
   3   3   4 440.514 174.065   8
   3   3   4 751.436 193.622  24
   3   3   5 78698.6 1787.64  20
   3   3   5 81401.0 1951.39   8
   3   3   5 77466.0 1990.71  18
   3   3   5 75674.8 1762.86  10
   3   3   5 78582.6 1875.99  24
   3   3   6 17904.0 772.955  10
   3   3   6 17216.2 920.927  18
   3   3   6 17470.4 831.479  24
   3   3   6 18956.6 864.128  20
   3   3   7 8743.19 586.610  18
   3   3   7 8476.51 492.009  24
   3   3   8 2450.02 186.225  24
  -3  -4  12 1961.63 191.576  21
  -3  -4  12 1676.47 171.393  11
  -3  -4  11 17515.2 718.489  11
  -3  -4  10 20168.6 864.774  11
  -3  -4  10 18737.8 760.046  13
  -3  -4   9 32055.6 1090.63  13
  -3  -4   9 30790.5 1041.22   6
  -3  -4   8 18995.8 860.378  13
  -3  -4   8 19029.6 832.800   6
  -3  -4   7 10876.6 598.717   6
  -3  -4   7 12284.7 681.385  13
  -3  -4   6 13329.0 684.240  13
  -3  -4   6 12408.0 603.374   6
   3   4  -5 7967.88 1136.74   3
  -3  -4   5 7622.35 448.618   6
   3   4  -4 71909.7 3522.21   3
  -3  -4   4 75277.2 1388.49   6
   3   4  -3 12350.5 1501.44   3
  -3  -4   3 10745.7 493.655   6
   3   4  -2 19789.2 1980.92   3
   3   4  -1 12583.0 1634.58   3
   3   4   0 32617.6 2738.78   3
   3   4   1 8954.66 581.926  10
   3   4   1 10564.5 1574.22   3
   3   4   2 2057.50 308.414  10
   3   4   2 2500.40 343.472  18
   3   4   2 2660.82 337.509   8
   3   4   3 134.538 113.324  10
   3   4   3 180.631 128.463  18
   3   4   3-37.2872 83.6523   8
   3   4   4 936.671 203.697  10
   3   4   4 602.617 189.737  18
   3   4   4 622.542 186.909   8
   3   4   4 799.848 212.351  24
   3   4   5 5479.85 434.830  10
   3   4   5 5981.79 547.485  18
   3   4   5 6157.03 514.021  24
   3   4   6 722.044 186.807  18
   3   4   6 532.281 145.515  24
   3   4   7-58.5734 56.6741  24
  -3  -5  12 2687.30 209.210  21
  -3  -5  11 3979.36 341.557  21
  -3  -5  11 3389.29 257.917  11
  -3  -5  10 4793.23 361.085  11
  -3  -5  10 4468.15 376.550  13
  -3  -5   9 33155.8 1113.54  13
  -3  -5   8 2554.23 294.157   6
  -3  -5   8 2365.48 315.909  13
  -3  -5   7 3168.11 358.825  13
  -3  -5   7 3326.20 336.080   6
  -3  -5   6 969.634 197.507  13
  -3  -5   6 852.128 176.227   6
  -3  -5   5 566.754 140.445   6
  -3  -5   5 584.760 140.363  13
   3   5  -5 291.276 259.563   3
   3   5  -4 573.557 364.257   3
  -3  -5   4 44.1807 100.969   6
   3   5  -3 28.4956 77.6546  10
   3   5  -3-236.715 250.969   3
   3   5  -2 173.853 112.066  10
   3   5  -2 72.1177 136.165   3
   3   5  -1 530.545 154.839  10
   3   5  -1 484.923 354.002   3
   3   5   0 205.122 112.990  10
   3   5   0 148.286 102.470  14
   3   5   1 1775.30 286.950  10
   3   5   2 4407.76 448.947  10
   3   5   3 2824.42 336.848  10
   3   5   3 3330.10 410.693  24
   3   5   4 12239.2 624.798  10
   3   5   4 14089.7 770.948  24
   3   5   5 2985.24 303.999  24
   3   5   6 1653.27 169.024  24
  -3  -6  11 2152.73 213.374  21
  -3  -6  10 2473.46 263.957  13
  -3  -6   9 1313.61 220.852  13
  -3  -6   8 1657.66 255.036  13
   3   6  -7 2467.12 299.961  14
  -3  -6   7 2244.76 295.606  13
  -3  -6   7 2275.73 274.746   6
   3   6  -6 2006.58 293.686  14
  -3  -6   6 1845.73 266.114  13
  -3  -6   6 1403.26 220.955   6
   3   6  -5 13183.6 767.761  14
  -3  -6   5 12855.2 652.457  13
  -3  -6   5 12543.7 642.851   6
   3   6  -4 15427.9 840.155  14
  -3  -6   4 13605.9 641.631   6
   3   6  -3 8245.72 640.990  10
   3   6  -3 9037.09 652.940  14
   3   6  -3 8789.12 611.434   7
   3   6  -2 10104.8 708.599  10
   3   6  -2 10099.8 684.352  14
   3   6  -1 12747.7 794.845  10
   3   6  -1 13183.2 767.902  14
   3   6   0 6463.92 559.358  10
   3   6   0 6950.17 532.313  14
   3   6   1 4907.07 476.090  10
   3   6   2 3594.60 372.975  10
   3   6   2 3750.17 404.964  24
   3   6   3 3832.35 340.326  10
   3   6   3 4428.97 399.595  24
   3   6   4 9822.15 501.917  24
   3   6   5 4267.96 229.300  24
  -3  -7  10 15393.7 501.456  21
   3   7 -10 15774.9 609.821   7
  -3  -7   9 3907.62 283.747  21
  -3  -7   9 3873.27 330.356  13
  -3  -7   8 2186.84 259.645  13
   3   7  -7 829.169 182.245  14
  -3  -7   7 977.438 181.414  13
   3   7  -6 4470.00 426.213  14
  -3  -7   6 4149.03 357.234  13
   3   7  -5 18643.5 913.339  14
   3   7  -5 19466.9 943.172   7
   3   7  -4 1085.74 229.931  14
   3   7  -4 1064.40 223.807   7
   3   7  -3 4525.46 470.566  14
   3   7  -3 4349.14 413.070   7
   3   7  -2 5171.31 486.255  14
   3   7  -1 10037.0 637.440  14
   3   7   0-29.7162 85.5069  14
   3   7   1 1299.62 212.311  24
   3   7   2 137.213 86.8448  24
   3   7   3 994.023 132.125  24
   3   8 -10 5485.22 253.830   7
   3   8  -9 72.7531 61.8182   7
   3   8  -8 461.223 124.736   7
   3   8  -7 589.171 137.282  14
   3   8  -7 689.416 155.612   7
   3   8  -6 1056.69 189.912  14
   3   8  -6 1313.88 217.113   7
   3   8  -5 216.486 121.003  14
   3   8  -5-62.0442 86.2961   7
   3   8  -4 451.441 163.391  14
   3   8  -4 153.345 83.6027   7
   3   8  -3 116.855 105.563  14
   3   8  -2 207.456 112.712  14
   3   8  -1 314.915 96.1791  14
   3   8  -1 478.928 115.891  24
   3   8   0 257.314 79.0288  24
   3   8   1 703.953 94.5379  24
   3   9  -7 1336.45 139.627   7
   3   9  -6 2337.85 202.698  14
   3   9  -6 2065.78 173.697   7
  -3  -9   6 1680.62 131.295  22
   3   9  -5 7425.20 388.575  14
   3   9  -5 6643.33 282.698   7
   3   9  -4-65.7417 74.6185  14
   3   9  -3 4512.10 278.274  14
  -3  -9   2 2029.64 156.167  22
  -4  10  -2 582.614 90.8450  19
   4 -10   2 559.572 78.5541  22
   4 -10   3 140.995 53.2010  22
   4 -10   4 57.9085 46.5362  22
   4 -10   5 90.6858 37.3316  22
  -4   9   2 1224.55 124.212  19
  -4   9   1 1926.27 192.591  19
  -4   9   0 1788.96 212.789  19
   4  -9   0 1516.57 153.622  22
   4  -9   1 2693.98 247.227  22
   4  -9   2 1116.72 182.133  22
   4  -9   3 2825.77 286.968  22
   4  -9   4 3687.43 321.218  22
   4  -9   5 3671.14 302.296  22
   4  -9   6 6682.75 376.099  23
   4  -9   6 6408.79 342.588  22
   4  -9   7 3426.19 244.307  23
   4  -9   8 3419.35 200.538  23
  -4   8   4 2261.34 179.432  19
  -4   8   3 782.634 139.036  19
  -4   8   3 741.181 120.783   9
  -4   8   2 8812.79 513.739  19
  -4   8   1 8992.29 564.357  19
   4  -8  -1 8466.70 427.884  22
   4  -8   0 3450.33 323.106  22
   4  -8   1 1259.31 210.676  22
   4  -8   2 10619.7 632.922  22
   4  -8   3 4024.35 398.218  22
   4  -8   4 1307.76 237.066  22
   4  -8   5 5092.21 420.348  22
   4  -8   6 775.358 158.837  22
   4  -8   6 759.690 169.651  23
   4  -8   7 1913.49 214.009  21
   4  -8   7 2440.33 274.936  23
   4  -8   8 6812.11 369.852  21
   4  -8   8 7664.42 429.506  23
   4  -8   9 173.010 58.2941  23
  -4   7   5 127.405 70.2321  19
  -4   7   4 590.966 106.730  17
  -4   7   4 656.102 138.140   9
  -4   7   4 871.384 172.158  19
  -4   7   3 1340.91 228.454  19
  -4   7   3 1270.32 178.544  17
  -4   7   2 353.615 125.949  19
  -4   7   1 2133.83 309.745   5
  -4   7   1 1697.90 258.466   4
   4  -7  -1 1716.09 236.756  22
  -4   7   0-10.1624 57.5731   5
   4  -7   0 1.81609 60.2911  22
  -4   7  -1 358.245 125.262   5
   4  -7   1 491.280 162.200  22
  -4   7  -2 81.4619 73.7235   5
   4  -7   2 187.610 132.606  22
   4  -7   3-18.0819 95.3104  22
   4  -7   4 5022.99 463.849  22
   4  -7   5 2118.24 296.676  22
   4  -7   5 2303.38 287.978  21
   4  -7   6 3209.35 374.590  23
   4  -7   6 3059.54 324.420  22
   4  -7   6 3433.87 367.040  21
   4  -7   7 1837.76 274.776  21
   4  -7   7 2451.12 317.172  23
   4  -7   8 43.1960 80.2490  21
   4  -7   8-30.1746 66.7621  23
   4  -7   9 1008.94 162.488  23
   4  -7   9 1267.70 189.389  21
   4  -7  10 2333.14 177.120  15
   4  -7  10 3190.05 222.668  21
  -4   6   7 110.549 50.9386  19
  -4   6   6 191.024 71.9618  17
  -4   6   6 318.962 80.6577   9
  -4   6   5 3204.82 332.143  19
  -4   6   5 2850.76 254.365  17
  -4   6   5 2605.29 282.828   9
  -4   6   4 4625.86 427.118  19
  -4   6   4 4195.35 339.881  17
  -4   6   3 7032.43 555.042   5
  -4   6   3 6235.41 518.362  19
  -4   6   3 7238.13 521.901   4
  -4   6   3 6437.37 428.653  17
  -4   6   2 7735.55 587.029   5
  -4   6   1 7589.12 576.655   5
   4  -6  -1 7146.51 480.016  22
  -4   6   0 15153.4 782.921   5
   4  -6   0 14599.1 719.969  22
  -4   6  -1 14877.7 735.605   5
   4  -6   1 12971.3 1730.53   1
   4  -6   1 14284.6 730.588  22
  -4   6  -2 15739.4 718.940   5
   4  -6   2 13703.5 1850.86   1
   4  -6   2 15999.9 790.660  22
   4  -6   3 12190.4 700.066  22
   4  -6   4 24729.6 1001.47  22
   4  -6   4 26676.2 1010.35  21
   4  -6   5 20326.5 888.939  22
   4  -6   5 21080.3 955.000  21
   4  -6   6 14699.5 819.974  23
   4  -6   6 14199.9 693.315  22
   4  -6   6 14421.1 807.768  21
   4  -6   7 19062.4 928.774  23
   4  -6   7 20011.8 955.364  21
   4  -6   8 333.288 139.508  21
   4  -6   8 293.698 130.214  23
   4  -6   9 6589.67 459.766  23
   4  -6   9 6072.58 461.334  21
   4  -6  10 187.838 72.1123  21
   4  -6  10 245.957 80.0317  15
  -4   5   8 2923.33 230.342  20
  -4   5   7 11302.6 546.465  19
  -4   5   7 10311.7 451.140   9
  -4   5   6-34.2243 96.3379  19
  -4   5   6 12.3825 69.3886   9
  -4   5   5 11159.3 649.544   5
  -4   5   5 10105.9 627.435  19
  -4   5   5 10139.3 547.000  17
  -4   5   4 21098.3 925.431  19
  -4   5   4 19776.3 773.112  17
  -4   5   3 3837.59 403.947  19
   4  -5  -2 50288.8 3441.87   1
   4  -5  -1 11390.4 1600.05   1
   4  -5   0 16687.3 1950.08   1
   4  -5   1 1936.11 663.115   1
   4  -5   2 52463.0 3583.72   1
   4  -5   3 4215.65 977.887   1
   4  -5   4 3535.21 1001.43   2
   4  -5   4 3769.33 375.066  22
   4  -5   4 3954.53 393.932  21
   4  -5   5 4676.32 1121.55   2
   4  -5   5 4838.49 456.676  23
   4  -5   5 3849.61 371.435  22
   4  -5   5 4531.87 447.371  21
   4  -5   6 5995.39 529.406  23
   4  -5   6 6734.55 569.896  21
   4  -5   7 13039.4 794.359  23
   4  -5   7 13777.3 823.395  21
   4  -5   8 704.763 209.076  21
   4  -5   8 790.465 208.707  23
   4  -5   9 3231.73 357.439  21
   4  -5  10 949.648 124.746  15
   4  -5  10 1026.91 168.110  21
  -4   4   9 7213.85 381.139  20
  -4   4   8 14524.6 622.781  19
  -4   4   8 14122.8 541.800   9
  -4   4   8 15147.2 451.050  17
  -4   4   7 565.361 135.502   9
  -4   4   7 653.980 164.238  19
  -4   4   6 293.486 118.112  19
  -4   4   6-30.2958 165.608  17
  -4   4   6 238.209 132.794   9
  -4   4   5 364.900 119.436  19
  -4   4   5 643.866 144.358  17
  -4   4   4 925.477 190.333  19
   4  -4  -4-1147.14 597.039   1
   4  -4  -3 12418.6 1739.92   1
   4  -4  -2-473.483 365.596   1
   4  -4  -1 7413.87 1245.11   1
   4  -4   0 19878.6 2013.80   1
   4  -4   1 50590.9 3192.69   1
   4  -4   2 51650.9 3458.75   1
   4  -4   3 25688.5 2350.24   1
   4  -4   4 4261.71 1154.34   2
   4  -4   5 969.675 196.635  21
   4  -4   5 862.762 188.277  23
   4  -4   5 830.564 489.790   2
   4  -4   6 28167.4 1127.27  23
   4  -4   6 26635.3 1119.45  21
   4  -4   7-41.8357 113.689  21
   4  -4   7 33.7274 78.5589  23
   4  -4   8 4031.00 383.743  11
   4  -4   8 3798.00 423.964  23
   4  -4   8 3539.20 417.295  21
   4  -4   9 9251.56 538.777  15
   4  -4   9 9406.46 600.708  21
   4  -4  10 4047.42 302.594  21
  -4   3  10 628.878 109.116  20
  -4   3   9 88.6918 59.0406   9
  -4   3   8 2028.90 261.480  19
  -4   3   8 2046.71 266.503   9
  -4   3   7 186.663 101.032   9
  -4   3   7 341.138 153.945  16
  -4   3   7 254.611 118.312  19
  -4   3   6 16292.5 773.927  19
  -4   3   6 18003.6 856.502   9
  -4   3   6 18510.0 881.824  16
  -4   3   5 9864.26 569.180  19
   4  -3  -5 12484.9 1825.12   1
  -4   3   5 11519.2 670.813  16
   4  -3  -4 12377.8 1753.60   1
   4  -3  -3 89460.2 4666.86   1
   4  -3  -2 35077.8 2686.05   1
   4  -3  -1 38141.7 2726.26   1
   4  -3   0 5442.62 1065.38   1
   4  -3   1 500432. 10213.8   1
   4  -3   2 3944.36 868.568   1
   4  -3   3 65843.2 3760.86   2
   4  -3   4 41735.4 3294.68   2
   4  -3   5 103003. 5118.08   2
   4  -3   6 16737.7 2200.59   2
   4  -3   6 14077.2 788.270  23
   4  -3   6 13861.5 745.984  11
   4  -3   6 14351.4 803.540  21
   4  -3   7 162.127 109.847  21
   4  -3   7 183.771 124.193  11
   4  -3   7 286.837 154.693  23
   4  -3   8 6415.72 505.902  15
   4  -3   8 6572.57 542.662  11
   4  -3   8 6295.05 531.840  21
   4  -3   9 1171.40 227.302  11
   4  -3   9 1522.27 228.950  21
   4  -3  10 5581.26 371.120  18
  -4   2  10 11652.0 444.809   9
  -4   2   9 12398.7 616.591   9
  -4   2   8 22586.7 886.614  11
  -4   2   8 22239.6 877.695  19
  -4   2   8 20501.1 663.278  17
  -4   2   8 23563.1 940.971   9
  -4   2   8 21228.0 987.225  16
  -4   2   7 2487.51 299.574  19
  -4   2   7 2319.11 356.603   9
  -4   2   7 2821.46 383.088  16
  -4   2   6 24611.3 859.190  19
   4  -2  -6 26528.8 2669.42   1
  -4   2   6 25989.1 1179.99   9
  -4   2   6 29550.3 1168.38  16
   4  -2  -5 44002.6 3295.68   1
   4  -2  -4 37990.9 2873.12   1
   4  -2  -3 49070.1 3147.80   1
   4  -2  -2 9482.60 1317.35   1
   4  -2  -1 100149. 4063.06   1
   4  -2   0 122829. 4723.77   1
   4  -2   1 4790.70 902.179   1
   4  -2   2 1445.36 527.313   2
   4  -2   2 1005.78 479.032   1
   4  -2   3 28309.2 2455.71   2
   4  -2   4 30522.1 2629.70   2
   4  -2   5 232.471 283.686   2
   4  -2   6 18766.2 2370.50   2
   4  -2   6 19787.1 830.456   8
   4  -2   6 19599.9 898.850  15
   4  -2   6 17748.0 916.782  11
   4  -2   6 19813.1 913.816  21
   4  -2   7 5240.59 459.906  15
   4  -2   7 4381.41 494.816  11
   4  -2   7 4601.83 449.678  21
   4  -2   8 5693.83 531.963  11
   4  -2   9 2372.95 303.074  18
   4  -2   9 1865.15 280.655  11
   4  -2  10 15304.7 598.403  18
  -4   1  11 14019.6 437.069  20
  -4   1  10 13193.1 605.124  11
  -4   1  10 13081.5 602.049   9
  -4   1   9 7603.07 544.960  11
  -4   1   9 7497.17 532.240   9
  -4   1   9 7424.91 585.604  16
  -4   1   8 121.239 72.3578   9
  -4   1   8 122.233 132.840  16
  -4   1   7 5494.69 390.744  17
  -4   1   7 4093.75 400.553   9
  -4   1   7 4542.39 484.574  16
  -4   1   6 108.544 75.7783   9
   4  -1  -6 776.811 471.062   1
   4  -1  -5 2394.06 726.747   1
   4  -1  -4 11571.1 1498.91   1
   4  -1  -3 7540.91 1166.96   1
   4  -1  -2 25783.1 2001.55   1
   4  -1  -1 35223.9 2234.54   1
   4  -1   0 37554.3 2296.18   1
   4  -1   1 29302.5 2093.40   1
   4  -1   1 32771.3 2129.88   2
   4  -1   2 34542.0 2413.18   2
   4  -1   2 36791.1 2063.33   3
   4  -1   3 17581.4 1839.41   2
   4  -1   4 26181.2 2480.38   2
   4  -1   5 23972.7 940.638   8
   4  -1   5 22902.6 913.872  15
   4  -1   5 22556.5 997.631  11
   4  -1   6 482.160 182.321  11
   4  -1   6 271.461 110.730  15
   4  -1   6 226.459 116.042   8
   4  -1   7 8868.97 698.026  11
   4  -1   8 7587.03 600.637  18
   4  -1   8 6781.02 595.261  11
   4  -1   9 20385.9 833.480  18
   4  -1  10 18037.4 570.029  18
  -4   0  11 257.694 85.4858  11
  -4   0  10 1271.53 228.019  11
  -4   0  10 1350.11 225.924   9
  -4   0   9 2504.16 327.240   9
  -4   0   9 2707.91 358.198  16
  -4   0   8 5915.90 497.010   9
  -4   0   8 5882.68 551.741  16
   4   0  -7 48037.0 3521.92   1
  -4   0   7 44706.7 1284.10   9
   4   0  -6 30143.8 2647.07   1
   4   0  -5 49375.4 3160.09   1
   4   0  -4 51493.4 2976.41   1
   4   0  -3 72327.2 3302.21   1
   4   0  -2 147405. 4387.92   1
   4   0  -1 144726. 4133.75   1
   4   0  -1 136840. 3376.95   2
   4   0   0 216104. 4922.92   1
   4   0   0 205808. 4543.79   2
   4   0   1 21370.1 1637.24   2
   4   0   1 25633.5 1792.85   3
   4   0   2 99816.8 3925.63   2
   4   0   2 93156.4 3368.51   3
   4   0   3 60235.7 3466.30   2
   4   0   4 37650.5 3008.01   2
   4   0   5 22118.2 1006.29  20
   4   0   5 22598.4 1061.77  11
   4   0   5 25671.9 2625.67   2
   4   0   5 23964.4 1032.18   8
   4   0   6 60.2036 111.154  11
   4   0   6 146.099 107.146   8
   4   0   7 1413.51 286.724  11
   4   0   7 1107.75 233.165  18
   4   0   8-88.4294 93.1945  18
   4   0   9-8.60821 59.2029  18
  -4  -1  12 15370.0 447.861  11
  -4  -1  11 13775.8 641.805  11
  -4  -1  10 8286.77 592.603  11
  -4  -1  10 8242.89 577.736   9
  -4  -1   9 12559.3 757.647   9
  -4  -1   9 11755.8 730.064  16
  -4  -1   8 25.9258 84.3209   9
  -4  -1   8-21.9196 118.144  16
   4   1  -7 26011.9 2466.72   1
  -4  -1   7 23683.3 933.157   9
   4   1  -6 18103.6 1935.09   1
   4   1  -5 18920.8 1828.15   1
  -4  -1   5 23530.8 650.112   6
   4   1  -4 42651.7 2505.97   1
   4   1  -3 11055.8 1163.18   1
   4   1  -2 31844.5 1776.43   1
   4   1  -2 40779.7 2465.49   3
   4   1  -1 17032.4 1157.52   1
   4   1  -1 19711.0 1726.34   3
   4   1   0 24823.8 1494.89   2
   4   1   0 27942.8 2037.70   3
   4   1   1 82.0025 118.862   2
   4   1   1 279.738 221.131   3
   4   1   2 8421.74 1160.90   2
   4   1   2 8937.90 1162.95   3
   4   1   3 2905.12 756.819   2
   4   1   4 339.810 121.180  11
   4   1   4 165.119 72.0563  18
   4   1   4 384.975 173.580   8
   4   1   4 288.755 278.731   2
   4   1   5 3913.09 461.192  20
   4   1   5 3372.14 402.424  18
   4   1   5 3677.18 434.943   8
   4   1   5 3450.92 431.742  11
   4   1   6 6548.55 576.936  18
   4   1   6 6536.38 579.969   8
   4   1   7 4323.15 450.640  18
   4   1   8 9597.17 465.934  10
   4   1   8 12061.2 650.138  18
   4   1   9 13657.0 503.724  18
  -4  -2  12 10389.7 424.264  11
  -4  -2  11 7853.55 501.246  11
  -4  -2  10 1639.58 273.766   9
  -4  -2  10 1453.17 224.990  16
  -4  -2   9 4440.89 452.829   9
  -4  -2   9 4653.92 438.093  16
  -4  -2   8 5481.32 497.626   9
  -4  -2   8 5601.23 495.243  16
  -4  -2   8 5727.59 444.589  13
  -4  -2   7 433.548 145.856   9
  -4  -2   7 122.315 86.7584  13
   4   2  -6 7383.20 1054.87   3
  -4  -2   6 9024.92 460.844   6
   4   2  -5 12538.8 1424.81   3
  -4  -2   5 14332.4 522.028   6
   4   2  -4 264.299 229.099   3
   4   2  -3 28374.3 2366.54   3
   4   2  -2 12239.3 1445.89   3
   4   2  -1 35319.7 2452.14   3
   4   2   0 16022.4 1672.35   3
   4   2   1 26001.8 2186.08   3
   4   2   2 16106.7 1750.99   3
   4   2   3 17647.4 814.845  18
   4   2   3 18672.4 924.891   8
   4   2   4 37266.9 1291.99  18
   4   2   4 36116.3 1189.96  24
   4   2   5 8230.27 637.977  18
   4   2   5 7971.89 646.406   8
   4   2   5 7697.59 550.527  24
   4   2   6 11303.5 747.764  18
   4   2   6 11362.5 738.201   8
   4   2   6 10019.5 572.092  24
   4   2   7 6274.85 425.644  10
   4   2   7 6691.17 533.778  18
   4   2   7 5516.27 344.526  24
   4   2   8 12665.8 557.470  18
  -4  -3  12 2365.07 160.137  21
  -4  -3  12 3303.23 236.430  11
  -4  -3  11 97.0378 77.1389  11
  -4  -3  10 1102.74 170.747  13
  -4  -3   9 190.590 136.526   9
  -4  -3   9 377.998 119.570  16
  -4  -3   9 153.531 93.7639  13
  -4  -3   8 16919.8 871.765   9
  -4  -3   8 17079.2 811.180  13
  -4  -3   8 17244.8 723.146   6
  -4  -3   7 31684.3 1147.45   9
  -4  -3   7 32676.0 1129.94  13
  -4  -3   7 33351.8 988.801   6
   4   3  -6 29182.0 2176.63   3
  -4  -3   6 31545.9 1097.00  13
   4   3  -5 44667.3 2813.24   3
  -4  -3   5 60645.5 1116.14   6
   4   3  -4 6232.67 1073.63   3
   4   3  -3 83744.7 3941.94   3
   4   3  -2 44869.8 2980.66   3
   4   3  -1 38884.2 2855.88   3
   4   3   0 8072.71 1333.14   3
   4   3   1 42985.7 3162.04   3
   4   3   2 37518.6 1210.60  18
   4   3   2 39835.3 1354.49   8
   4   3   3 11057.4 714.014  18
   4   3   3 13008.7 807.236   8
   4   3   4 2754.72 446.603  10
   4   3   4 3288.81 408.521  18
   4   3   4 3470.59 416.837   8
   4   3   4 3306.86 389.088  24
   4   3   5-84.3970 78.7145  24
   4   3   5-152.057 116.221  10
   4   3   5 44.1687 108.395  18
   4   3   5 219.106 154.589   8
   4   3   6 77.7306 68.7986  10
   4   3   6 299.667 131.993  18
   4   3   6 196.524 84.2666  24
   4   3   7 284.658 99.5222  18
   4   3   7 150.515 50.3787  24
  -4  -4  12 1452.12 139.621  21
  -4  -4  11 8892.31 464.321  11
  -4  -4  10 5577.01 393.641  13
  -4  -4   9 3234.73 341.929  13
  -4  -4   8 25695.1 1011.63  13
  -4  -4   8 25700.6 873.685   6
  -4  -4   7 3020.51 355.249  13
  -4  -4   7 2790.69 286.660   6
  -4  -4   6 4448.28 420.190  13
  -4  -4   6 3794.20 327.806   6
  -4  -4   5 4021.40 386.392  13
   4   4  -5 3151.37 784.197   3
   4   4  -4 32175.7 2612.10   3
   4   4  -3 223.943 239.716   3
   4   4  -2 443.435 365.133   3
   4   4  -1 7436.25 536.790  10
   4   4  -1 7992.55 1458.59   3
   4   4   0 170.846 104.071  10
   4   4   0 918.536 516.145   3
   4   4   1 124.136 92.7117  10
   4   4   1 538.044 383.480   3
   4   4   1 82.6459 90.2522  18
   4   4   1 426.370 171.440   8
   4   4   2 69.9440 116.808  10
   4   4   2 7.07829 71.6389  18
   4   4   2 7.56083 71.4442   8
   4   4   3 135.618 112.046  10
   4   4   3-10.1436 94.1391  18
   4   4   3 118.702 120.362  24
   4   4   3 17.8036 87.1763   8
   4   4   4 2531.09 328.507  10
   4   4   4 2484.27 350.155  18
   4   4   4 2758.23 334.610   8
   4   4   4 2742.28 338.995  24
   4   4   5 2367.07 264.466  10
   4   4   5 2125.82 301.917  18
   4   4   5 2173.20 264.852  24
   4   4   6 5441.85 304.883  24
  -4  -5  11 10.1592 40.9643  11
  -4  -5  10 2321.15 231.118  11
  -4  -5  10 2285.10 252.226  13
  -4  -5   9 3459.59 349.594  13
  -4  -5   8 5780.83 472.398  13
  -4  -5   7 7941.81 562.594  13
  -4  -5   6 2965.88 342.654  13
  -4  -5   5 4351.27 402.094  13
   4   5  -4 79445.8 1884.81  10
   4   5  -4 75214.2 4277.34   3
  -4  -5   4 78870.2 1625.28  13
   4   5  -3 197.587 119.534  10
   4   5  -3 882.803 497.141   3
   4   5  -2 10559.7 691.513  10
   4   5  -1 2071.90 314.774  10
   4   5   0 35664.2 1293.52  10
   4   5   0 37040.7 1232.13  14
   4   5   1 3832.94 432.010  10
   4   5   1 4057.62 398.790   8
   4   5   2 5168.03 482.052  10
   4   5   2 5926.92 451.769   8
   4   5   3 11313.1 643.982  10
   4   5   3 11108.1 565.966   8
   4   5   3 12017.1 696.079  24
   4   5   4 5858.83 397.736  10
   4   5   4 6358.44 436.498  24
   4   5   5 9416.10 397.542  24
  -4  -6  11 731.721 104.223  21
  -4  -6  10-41.4085 69.5039  13
  -4  -6   9 18416.0 730.219  13
  -4  -6   8 5523.28 428.840  13
   4   6  -7 6357.78 475.199  14
  -4  -6   7 6155.32 463.210  13
   4   6  -6 18481.0 871.093  14
  -4  -6   6 17240.6 771.321  13
   4   6  -5 22973.6 1015.48  14
  -4  -6   5 22067.0 848.386  13
   4   6  -4 2598.79 364.260  14
   4   6  -3 8196.18 639.173  10
   4   6  -3 9621.55 682.240  14
   4   6  -2 14586.6 843.567  10
   4   6  -2 14046.7 816.644  14
   4   6  -1 8833.34 656.723  10
   4   6  -1 9488.32 640.569  14
   4   6   0 2800.72 362.727  10
   4   6   0 2447.72 295.927  14
   4   6   1 10733.8 665.166  10
   4   6   2 2399.08 287.072  10
   4   6   2 2380.17 290.710  24
   4   6   3 1159.99 162.128  10
   4   6   3 1231.13 177.948  24
   4   7 -10 1027.04 136.471   7
  -4  -7   9 1188.95 160.457  13
  -4  -7   8 786.450 148.591  13
   4   7  -7 2281.65 262.307  14
  -4  -7   7 2174.69 239.508  13
   4   7  -6 3449.79 353.280  14
  -4  -7   6 3799.19 305.482  13
   4   7  -6 4197.36 395.523   7
   4   7  -5 183.479 108.328  14
   4   7  -5 279.565 105.183   7
   4   7  -4 102.193 95.9220  14
   4   7  -4 70.5926 96.0559   7
   4   7  -3 371.134 153.643  14
   4   7  -2 806.665 180.679  14
   4   7  -1 3028.69 310.736  14
   4   7   0 119.110 69.9415  24
   4   7   1-79.9334 73.9755  24
   4   7   2 390.048 78.1673  24
   4   8  -8 2759.78 218.243   7
   4   8  -7 1709.18 180.274  14
   4   8  -7 1662.34 184.544   7
   4   8  -6 395.490 109.517  14
   4   8  -6 275.013 77.0256   7
   4   8  -5 6148.21 413.430  14
   4   8  -4 523.503 144.478  14
   4   8  -3 4181.66 330.825  14
   4   8  -2 1245.62 159.923  14
   4   8  -2 1226.61 152.446  24
   4   8  -1 4812.06 267.898  24
  -5   9   1 4182.93 232.315  19
  -5   9   0 3192.95 237.857  19
   5  -9   0 2657.81 163.115  22
  -5   9  -1 12481.3 508.076  19
   5  -9   1 12347.8 459.281  22
   5  -9   2 646.425 124.530  22
  -5   9  -3 6586.74 291.403  12
   5  -9   3 11320.1 500.580  22
  -5   9  -4 3405.61 233.483  12
   5  -9   4 5690.50 348.766  22
   5  -9   5 1384.51 164.285  22
   5  -9   6 11583.7 356.977  22
  -5   8   3 1369.61 151.566  19
  -5   8   3 1117.04 135.603   9
  -5   8   2 3082.03 263.941  19
  -5   8   1 811.143 160.408  19
   5  -8  -1 1007.78 131.961  22
   5  -8   0 189.903 85.5451  22
   5  -8   1 116.607 81.7792  22
  -5   8  -2 874.028 159.217  12
   5  -8   2 1115.20 196.835  22
   5  -8   3 132.938 89.7928  22
   5  -8   4 272.222 87.9606  23
   5  -8   4 206.654 93.9706  22
   5  -8   5 1154.13 184.074  22
   5  -8   5 1457.72 193.521  23
   5  -8   6 344.790 89.4182  23
   5  -8   6 612.718 118.781  22
   5  -8   7 43.5786 38.7826  23
   5  -8   8 47.9972 49.2390  15
   5  -8   8 39.4573 26.9456  23
  -5   7   5 119.786 50.1231  19
  -5   7   5 88.2691 48.0444   9
  -5   7   4 87.7364 44.9722  19
  -5   7   4 19.0324 57.9051   9
  -5   7   3 2637.46 279.906  19
  -5   7   2 820.203 181.302  19
   5  -7  -1 8728.37 499.183  22
  -5   7   0 14599.2 741.012   5
  -5   7   0 13862.0 649.965  12
   5  -7   0 13667.7 684.242  22
  -5   7  -1 477.277 132.860   5
   5  -7   1 416.966 129.984  22
   5  -7   2 12612.8 711.124  22
   5  -7   3 11278.4 686.449  22
   5  -7   4 14359.2 676.364  23
   5  -7   4 14579.6 762.999  22
   5  -7   5 11708.3 651.632  21
   5  -7   5 12318.9 636.897  23
   5  -7   5 11956.8 655.002  22
   5  -7   6 165.526 103.759  21
   5  -7   6 244.313 98.4311  22
   5  -7   6 129.927 76.2470  23
   5  -7   7 2105.14 247.231  23
   5  -7   7 2036.62 259.005  21
   5  -7   8 4431.12 348.626  15
   5  -7   8 5126.06 338.325  23
   5  -7   8 4841.09 357.144  21
   5  -7   9 9268.74 386.830  15
  -5   6   6 186.084 59.6514  19
  -5   6   6 206.093 69.7133   9
  -5   6   5 2942.62 279.038  19
  -5   6   5 2884.42 291.008   9
  -5   6   4 2692.72 298.824  19
  -5   6   3 1904.85 280.783   5
  -5   6   3 1850.30 265.013  19
  -5   6   2 28096.7 1092.69   5
  -5   6   1 14640.1 783.987   5
  -5   6   1 13303.2 664.963  12
   5  -6  -1 13328.2 662.086  22
  -5   6   0 21658.0 924.171   5
   5  -6   0 19442.6 852.451  22
  -5   6  -1 865.233 184.891   5
   5  -6   1 876.378 183.734  22
   5  -6   2 47577.6 1401.11  22
   5  -6   3 16734.0 840.574  22
   5  -6   4 6439.68 480.412  23
   5  -6   4 6397.55 517.322  22
   5  -6   4 6644.85 534.923  21
   5  -6   5 10895.8 646.631  22
   5  -6   5 10536.5 632.567  23
   5  -6   5 11787.4 724.879  21
   5  -6   6 6676.25 511.909  23
   5  -6   6 7206.86 478.630  22
   5  -6   6 7189.40 566.704  21
   5  -6   7 1043.09 228.031  21
   5  -6   7 860.545 179.394  23
   5  -6   8 181.713 103.693  21
   5  -6   8 19.4824 77.3615  15
   5  -6   8 169.470 98.2079  23
   5  -6   9 25.7742 48.1240  15
   5  -6   9 171.476 90.8718  21
  -5   5   7 1645.14 178.011  19
  -5   5   7 1717.94 189.225   9
  -5   5   6 5690.31 389.521  19
  -5   5   6 6128.56 437.985   9
  -5   5   5 1484.88 230.852  19
  -5   5   5 1318.06 250.485   9
  -5   5   4 106.195 110.622  19
  -5   5   3 4254.67 389.343  19
  -5   5   2 390.160 136.427  12
  -5   5   1 150.543 85.8544  12
   5  -5  -1 158.254 82.5106  22
   5  -5   0 3908.30 1009.81   1
   5  -5   0 2832.42 316.505  22
   5  -5   1 2131.45 748.225   1
   5  -5   1 2465.63 303.203  22
   5  -5   2 5568.01 1215.61   1
   5  -5   2 6363.11 500.950  22
   5  -5   3 11.4958 71.6433  21
   5  -5   3 351.817 343.130   2
   5  -5   3 243.982 131.602  22
   5  -5   4 207.635 115.439  21
   5  -5   4 134.018 81.3105  23
   5  -5   4 141.823 96.2776  22
   5  -5   5 956.319 223.839  21
   5  -5   5 938.700 197.413  23
   5  -5   5 969.115 198.501  22
   5  -5   6 2237.55 339.737  21
   5  -5   6 2009.16 251.116  22
   5  -5   6 2071.38 298.131  23
   5  -5   7 4627.65 436.434  23
   5  -5   7 4753.04 477.863  21
   5  -5   8 3644.75 371.558  15
   5  -5   8 3753.33 393.847  21
   5  -5   9 2240.20 235.615  15
   5  -5   9 2525.33 264.133  21
   5  -5  10 2750.86 182.994  18
  -5   4   8 29.8614 46.3049   9
  -5   4   7-148.157 73.4906  19
  -5   4   7-15.1566 72.9498   9
  -5   4   6 72.8048 55.0243  19
  -5   4   6-4.12374 82.5385   9
  -5   4   6 57.2829 64.4098  16
  -5   4   5 140.523 66.5327  19
  -5   4   4 9676.39 555.808  19
  -5   4   4 11833.2 597.353  12
   5  -4  -3 19978.4 2302.91   1
  -5   4   3 19215.8 772.139  12
   5  -4  -2 27818.3 2718.61   1
  -5   4   2 28841.0 973.908  12
   5  -4  -1 36350.9 3069.51   1
   5  -4   0 18127.2 2183.45   1
   5  -4   1 53565.2 3672.56   1
   5  -4   2 43417.0 3390.86   1
   5  -4   3 22889.4 914.100  22
   5  -4   3 21870.5 2586.86   2
   5  -4   3 23459.6 986.244  21
   5  -4   4 23651.4 894.094  23
   5  -4   4 23714.9 939.811  22
   5  -4   4 22799.6 1015.92  21
   5  -4   5 10019.4 589.281  22
   5  -4   5 9869.41 629.713  23
   5  -4   5 9996.23 704.024  21
   5  -4   6 6947.42 556.668  23
   5  -4   6 7342.66 607.308  21
   5  -4   7 10301.2 663.490  23
   5  -4   7 9895.61 665.683  15
   5  -4   7 9522.56 674.217  21
   5  -4   8 6619.72 490.403  15
   5  -4   8 6417.42 505.578  21
   5  -4   9 3014.94 249.111  15
   5  -4  10 2685.90 193.101  18
  -5   3   9 1753.67 192.320   9
  -5   3   8 6416.01 448.994   9
  -5   3   7 9424.09 515.852  19
  -5   3   7 11189.7 657.346   9
  -5   3   7 9398.92 605.253  16
  -5   3   6 4471.40 428.386   9
  -5   3   6 4457.18 449.288  16
  -5   3   5 7260.88 622.370   9
  -5   3   5 8243.84 517.285  12
   5  -3  -4 23046.7 2516.57   1
  -5   3   4 26480.5 889.052  12
   5  -3  -3 30849.2 2814.16   1
   5  -3  -2 51990.7 3548.60   1
   5  -3  -1 74100.7 4209.19   1
   5  -3   0 24042.6 2408.12   1
   5  -3   1 95253.5 4638.85   1
   5  -3   2 43088.7 3181.68   1
   5  -3   2 45979.3 3332.18   2
   5  -3   3 29121.4 2737.64   2
   5  -3   4 15693.9 727.979  22
   5  -3   4 15852.7 835.208  21
   5  -3   5 10472.2 651.615  23
   5  -3   5 10499.2 705.609  21
   5  -3   6 437.100 162.473  21
   5  -3   6 789.749 203.319  15
   5  -3   7 579.588 176.197  21
   5  -3   7 591.375 173.080  15
   5  -3   8 157.515 88.0910  15
   5  -3   8 3.09925 64.1547  21
   5  -3   9 1852.99 238.029  18
   5  -3  10-31.1820 43.8505  18
  -5   2  10 10351.3 407.739   9
  -5   2   9 5431.22 398.568   9
  -5   2   8 17156.2 790.888   9
  -5   2   8 15360.5 797.586  16
  -5   2   7-197.045 106.060   9
  -5   2   7 81.7387 113.117  16
  -5   2   6 8612.18 590.026   9
  -5   2   6 9193.50 579.402  12
  -5   2   5 215.448 148.776   9
  -5   2   5 292.433 116.878  12
   5  -2  -5 693.564 451.469   1
   5  -2  -4-458.694 358.846   1
   5  -2  -3 8823.33 1449.99   1
   5  -2  -2-200.335 245.520   1
   5  -2  -1 3210.10 824.782   1
   5  -2   0 12303.6 1629.36   1
   5  -2   1 2844.37 882.670   1
   5  -2   1 2692.55 739.582   2
   5  -2   2 4709.85 989.822   1
   5  -2   2 5200.16 1071.15   2
   5  -2   3 882.136 448.953   2
   5  -2   4 215.805 110.261  21
   5  -2   4 76.9407 76.6205  15
   5  -2   4-20.4568 197.369   2
   5  -2   4 87.2304 88.4122  22
   5  -2   5 5670.60 505.629  15
   5  -2   5 4582.00 454.373  21
   5  -2   6 16246.5 767.966   8
   5  -2   6 16717.7 859.760  15
   5  -2   6 16517.6 856.944  21
   5  -2   7 9306.47 597.305  15
   5  -2   7 8624.98 578.654  21
   5  -2   9 5020.02 355.559  18
  -5   1  10 3778.67 312.815   9
  -5   1  10 3221.22 253.624  11
  -5   1   9 222.317 88.8941  11
  -5   1   9 181.749 113.104   9
  -5   1   9 147.230 88.7422  16
  -5   1   8 21367.4 909.844   9
  -5   1   8 22167.5 1039.72  16
  -5   1   7 14104.3 764.689   9
  -5   1   7 13739.9 851.190  16
  -5   1   7 14719.1 750.169  12
  -5   1   6 10203.4 620.501   9
   5  -1  -6 9782.07 1603.93   1
  -5   1   6 9998.44 604.751  12
   5  -1  -5 29983.7 2745.44   1
  -5   1   5 36296.8 1072.98  12
   5  -1  -4 68492.7 3979.80   1
   5  -1  -3 19841.4 2030.13   1
   5  -1  -2 142976. 5288.23   1
   5  -1  -1 95118.5 4140.98   1
   5  -1   0 71997.6 3535.61   1
   5  -1   0 67759.0 3205.48   2
   5  -1   1 252248. 6530.91   2
   5  -1   1 252298. 6756.94   3
   5  -1   2 21132.8 2055.23   2
   5  -1   3 27680.2 2520.68   2
   5  -1   4 14384.7 1981.51   2
   5  -1   4 13850.5 755.476  15
   5  -1   4 13592.5 733.191   8
   5  -1   4 12840.9 617.903  22
   5  -1   4 12392.4 695.215  21
   5  -1   5 25148.5 1038.99   8
   5  -1   5 25616.9 1048.48  15
   5  -1   6 4465.99 448.048   8
   5  -1   6 3976.65 401.047  15
   5  -1   7 4407.22 440.285  18
   5  -1   8 7100.46 489.837  18
   5  -1   9 5175.85 331.787  18
  -5   0  11 7123.20 331.099  11
  -5   0  10 13367.9 634.945  11
  -5   0  10 13314.9 645.544   9
  -5   0   9 10629.5 655.854   9
  -5   0   9 10288.3 662.658  16
  -5   0   8 205.111 107.519   9
  -5   0   8 282.822 159.716  16
  -5   0   7 27778.8 1050.64   9
   5   0  -6 14641.1 1899.62   1
  -5   0   6 17088.4 788.558  12
   5   0  -5 21561.3 2193.40   1
   5   0  -4 483.700 331.227   1
   5   0  -3 145077. 5065.93   1
   5   0  -2 47343.1 2753.99   1
   5   0  -1 46065.5 2596.72   1
   5   0  -1 47933.7 2979.73   3
   5   0   0 113803. 3981.04   1
   5   0   0 114465. 4576.39   3
   5   0   1 5846.26 932.345   2
   5   0   1 5942.24 1001.99   3
   5   0   2 25000.7 2190.90   2
   5   0   3 19828.9 2142.99   2
   5   0   3 22640.4 963.789  15
   5   0   3 21003.9 941.648   8
   5   0   3 22154.7 917.511  22
   5   0   4 13682.8 1859.23   2
   5   0   4 13235.0 747.426  15
   5   0   4 14524.6 827.055   8
   5   0   5 43230.0 1448.10   8
   5   0   5 41465.1 1287.65  15
   5   0   6 8307.28 612.479  18
   5   0   6 8397.64 635.136   8
   5   0   7-9.00355 70.3759  18
   5   0   8 2155.41 267.722  18
  -5  -1  11 7233.70 405.966  11
  -5  -1  10 1364.09 227.801   9
  -5  -1  10 1294.00 219.253  16
  -5  -1   9 3017.96 362.179   9
  -5  -1   9 2549.50 334.454  16
  -5  -1   8 11921.3 718.297   9
  -5  -1   8 11629.5 756.462  16
  -5  -1   7 2018.52 295.198   9
  -5  -1   7 1750.37 252.283  13
  -5  -1   6 4811.35 415.080   9
  -5  -1   6 5087.32 439.775  13
  -5  -1   6 4762.26 421.117  12
   5   1  -6 5406.45 1021.72   3
   5   1  -5 3920.77 878.967   3
   5   1  -4 864.062 456.652   3
   5   1  -3 4059.56 930.323   3
   5   1  -2 838.891 403.142   3
   5   1  -1 20066.4 1989.96   3
   5   1   0 34892.8 2624.13   3
   5   1   1 1557.82 542.325   3
   5   1   2 3530.34 381.054  15
   5   1   2 2265.08 324.965   8
   5   1   3 7023.28 498.586  18
   5   1   3 5884.78 509.706  15
   5   1   3 6273.11 563.164   8
   5   1   4 28821.2 1039.88  15
   5   1   4 31648.4 1283.31   8
   5   1   5 131.831 105.823  18
   5   1   5 186.235 150.252   8
   5   1   6 15319.3 800.805  18
   5   1   6 14734.1 817.606   8
   5   1   7 13688.7 681.188  18
   5   1   8 9931.29 445.399  18
  -5  -2  11 703.085 142.375  11
  -5  -2  10 733.523 174.959   9
  -5  -2  10 519.007 140.410  16
  -5  -2   9 6234.23 515.809   9
  -5  -2   9 5915.23 471.073  16
  -5  -2   9 5378.02 385.928  13
  -5  -2   8 90.3698 98.9533   9
  -5  -2   8 292.569 129.529  16
  -5  -2   8 351.384 127.171  13
  -5  -2   7 18792.7 877.293   9
  -5  -2   7 19599.7 900.441  13
  -5  -2   6 18340.9 812.546   9
  -5  -2   6 18462.4 873.732  13
  -5  -2   5 23932.8 952.651  13
  -5  -2   5 20329.3 813.941  12
   5   2  -4 46661.2 3098.12   3
   5   2  -3 85838.8 4338.11   3
   5   2  -2 42081.4 3015.27   3
   5   2  -1 38092.6 2875.04   3
   5   2   0 42107.3 3107.81   3
   5   2   1 36501.9 1205.76  15
   5   2   1 26199.0 2448.52   3
   5   2   2 36885.9 1172.09  15
   5   2   2 31809.2 1270.47   8
   5   2   3 12676.2 721.794  18
   5   2   3 12471.7 765.971  15
   5   2   3 12337.0 813.739   8
   5   2   4 811.617 203.105  18
   5   2   4 559.871 201.555   8
   5   2   4 368.628 130.322  24
   5   2   5 27560.5 1081.67  18
   5   2   5 26304.9 1113.07   8
   5   2   6 4658.87 400.527  10
   5   2   6 4736.96 423.326  18
   5   2   7 1477.56 164.275  10
   5   2   7 1716.44 205.393  18
  -5  -3  11 7587.78 415.904  11
  -5  -3  10 4304.90 298.723  13
  -5  -3   9 10754.9 555.698  16
  -5  -3   9 11278.9 596.119  13
  -5  -3   8 8839.93 610.370   9
  -5  -3   8 8745.90 561.337  16
  -5  -3   8 8162.69 564.719  13
  -5  -3   7 4141.77 415.406   9
  -5  -3   7 3851.42 404.999  13
  -5  -3   6 8571.43 555.163   9
  -5  -3   6 8511.16 609.048  13
  -5  -3   5 5125.85 462.833  13
   5   3  -5 4375.65 958.905   3
   5   3  -4 47785.1 3256.88   3
  -5  -3   4 50888.0 1385.95  13
  -5  -3   3 5722.83 450.611  13
   5   3  -3 5178.18 1092.13   3
   5   3  -2 8202.62 1411.05   3
   5   3  -1 7686.96 542.968  10
   5   3  -1 6813.15 541.361  15
   5   3   0 17235.0 860.363  10
   5   3   0 19539.6 880.666  15
   5   3   0 16358.8 2066.54   3
   5   3   1 2876.85 387.757  10
   5   3   1 3884.48 410.697  15
   5   3   1 3915.81 460.196   8
   5   3   2 1503.95 295.409  10
   5   3   2 1201.37 232.453  18
   5   3   2 1614.96 273.308  15
   5   3   2 1784.26 324.575   8
   5   3   3 91.6691 120.894  10
   5   3   3 166.492 101.733  18
   5   3   3-22.3923 87.8350  24
   5   3   3 130.770 125.992   8
   5   3   4 3055.57 366.828  10
   5   3   4 3330.34 391.015  18
   5   3   4 3683.41 413.990   8
   5   3   4 3125.42 335.120  24
   5   3   5 292.931 115.902  10
   5   3   5 200.315 94.5882  18
   5   3   5 192.814 106.664   8
   5   3   5 195.213 74.0479  24
   5   3   6 1571.95 180.217  10
  -5  -4  11 1776.69 173.729  11
  -5  -4  10 245.052 84.3711  13
  -5  -4   9 4879.30 394.576  13
  -5  -4   8 75.7805 69.5319  13
  -5  -4   7 1896.42 284.015  13
  -5  -4   6 1500.93 253.543  13
  -5  -4   5 3914.98 409.595  13
  -5  -4   4 1942.47 280.469  13
   5   4  -3 5008.24 446.739  10
  -5  -4   3 4759.87 419.361  13
   5   4  -2 4644.45 441.280  10
   5   4  -1 7228.46 565.753  10
   5   4   0 1341.44 264.392  10
   5   4   0 1497.68 283.797   8
   5   4   1 4745.90 480.874  10
   5   4   1 5619.80 526.738   8
   5   4   2 3203.46 401.803  10
   5   4   2 3938.41 430.775   8
   5   4   3 1566.14 271.046  10
   5   4   3 1499.59 256.882   8
   5   4   3 1805.23 262.481  24
   5   4   4 16225.9 709.137  10
   5   4   4 16174.7 691.421   8
   5   4   4 15451.3 645.832  24
   5   4   5 2692.98 218.836  10
   5   4   5 1865.01 155.838  24
  -5  -5  11 833.597 113.227  21
  -5  -5  10 2676.38 207.539  11
  -5  -5  10 3094.97 251.464  13
  -5  -5   9 146.979 84.0053  13
  -5  -5   8 8308.72 531.795  13
  -5  -5   7 9370.39 591.737  13
  -5  -5   6 5378.24 456.558  13
  -5  -5   5 22542.8 914.320  13
  -5  -5   4 25818.6 937.430  13
   5   5  -3 8405.86 613.688  10
   5   5  -2 12203.7 748.789  10
   5   5  -1 18658.9 923.595  10
   5   5  -1 21595.6 925.072   8
   5   5   0 9614.96 662.839  10
   5   5   0 10853.0 649.732   8
   5   5   0 10443.6 621.819  14
   5   5   1 2441.45 325.334  10
   5   5   1 2647.99 306.365   8
   5   5   2 3645.03 368.817  10
   5   5   2 3800.26 324.449   8
   5   5   2 3639.13 357.178  24
   5   5   3 75.0171 73.2804  10
   5   5   3 88.1853 81.1510  24
   5   5   4 2419.21 173.207  24
  -5  -6  10 7372.50 289.866  21
  -5  -6  10 9553.31 371.931  13
  -5  -6   9 882.741 146.160  13
  -5  -6   8 263.163 105.271  13
   5   6  -7 1449.46 214.009  14
  -5  -6   7 1480.15 215.291  13
   5   6  -6 4016.59 389.975  14
  -5  -6   6 3775.88 336.931  13
   5   6  -5 7630.47 571.095  14
  -5  -6   5 7229.40 446.702  13
   5   6  -4 1087.00 235.415  14
   5   6  -3 1126.80 236.026  14
   5   6  -2 1025.44 216.704  10
   5   6  -2 1028.19 220.024  14
   5   6  -1 5246.16 462.327  10
   5   6  -1 5419.47 427.149  14
   5   6   0-7.77232 86.0806  10
   5   6   1 104.029 88.0107  10
   5   6   1 391.264 115.677  24
   5   6   2 408.937 104.915  10
   5   6   2 352.205 93.5495  24
  -5  -7   9 1799.17 144.557  13
   5   7  -9 2070.29 170.794   7
  -5  -7   8 89.7076 47.5190  13
   5   7  -8 146.445 71.4648   7
   5   7  -7 1426.93 182.811  14
  -5  -7   7 1323.10 149.448  13
   5   7  -7 1371.65 176.960   7
   5   7  -6 5861.96 404.262  14
  -5  -7   6 4541.77 263.887  13
   5   7  -6 5252.76 327.422   7
   5   7  -5 25.0549 73.9571  14
   5   7  -4 7909.16 500.820  14
   5   7  -3 93.3068 93.5477  14
   5   7  -2 4818.43 348.964  14
   5   7  -1 334.636 66.8734  14
   5   7  -1 168.038 81.0873  24
   5   7   0 3786.28 255.763  24
   5   8  -6 5448.99 263.952  14
   5   8  -5 7329.10 334.004  14
   5   8  -4 114.565 49.7272  14
  -6   9  -1 138.303 39.1442  19
   6  -9   1 256.730 50.4936  22
  -6   9  -2 4443.28 226.717  19
   6  -9   2 5357.28 267.839  22
   6  -9   3 1089.37 126.952  22
  -6   9  -4 911.862 97.0831  12
   6  -9   4 1860.56 158.260  22
  -6   8   3 294.773 58.3786   9
  -6   8   2-34.9182 42.1619  19
  -6   8   1 365.646 82.6486  19
  -6   8   0 524.656 106.898  19
   6  -8   0 643.300 112.002  22
  -6   8  -1 10891.6 443.810  12
   6  -8   1 12557.1 546.891  22
  -6   8  -2 93.8467 69.3086  12
   6  -8   2-65.8160 71.1060  22
  -6   8  -3 1310.21 184.696  12
   6  -8   3 1618.79 211.957  22
   6  -8   4 1131.49 174.745  22
   6  -8   5 143.887 53.7075  15
   6  -8   5 247.978 81.9414  22
   6  -8   6 3627.54 237.526  15
   6  -8   6 3981.84 216.073  22
   6  -8   7 1193.59 115.270  15
  -6   8  -7 613.915 88.5968  12
  -6   7   4 3030.11 186.221  19
  -6   7   4 3104.11 242.007   9
  -6   7   3 2193.49 199.447  19
  -6   7   2 215.150 75.8484  19
  -6   7   1 9398.94 497.079  19
  -6   7   1 8731.92 429.533  12
   6  -7  -1 8988.54 458.746  22
  -6   7   0 3312.45 306.353  12
   6  -7   0 3493.71 325.860  22
  -6   7  -1 31721.9 1009.79  12
   6  -7   1 32768.7 1050.22  22
   6  -7   2 2419.29 298.899  22
   6  -7   3 17141.8 785.299  22
   6  -7   4 6150.67 415.917  15
   6  -7   4 6372.76 462.946  22
   6  -7   5 372.691 122.537  15
   6  -7   5 375.633 108.999  22
   6  -7   6 2879.11 236.450  22
   6  -7   6 3312.81 302.067  15
   6  -7   6 2917.61 224.282  23
   6  -7   7 1899.84 211.141  15
   6  -7   8 3334.38 221.581  15
  -6   6   6 1711.34 152.647   9
  -6   6   5 4365.79 248.077  19
  -6   6   5 4920.24 338.405   9
  -6   6   4 10802.2 470.428  19
  -6   6   4 9955.93 566.829   9
  -6   6   3 48.3314 54.9524  19
  -6   6   2 7422.37 470.630  19
  -6   6   2 6773.34 426.938  12
  -6   6   1 1772.70 260.673   5
  -6   6   1 1716.82 244.722  12
   6  -6  -1 1747.18 235.281  22
  -6   6   0 499.583 129.951   5
  -6   6   0 569.134 161.237  12
   6  -6   0 638.662 166.288  22
   6  -6   1 415.753 150.048  22
   6  -6   2 28610.2 1079.69  22
   6  -6   3 71.3215 73.7328  15
   6  -6   3 202.730 111.394  22
   6  -6   4 128.837 89.6375  15
   6  -6   4 23.8415 89.2081  22
   6  -6   5 2112.47 298.957  15
   6  -6   5 2090.98 264.529  22
   6  -6   6 271.019 110.565  15
   6  -6   6 555.118 124.495  23
   6  -6   6 467.688 112.521  22
   6  -6   7 3847.42 344.099  15
   6  -6   8 1346.49 175.494  15
  -6   5   7 693.209 110.998   9
  -6   5   6 754.576 143.871   9
  -6   5   5 485.438 141.930   9
  -6   5   4 262.439 101.882  12
  -6   5   3 659.662 154.677  12
  -6   5   2 10613.0 617.562  12
   6  -5  -2 10280.2 539.941  22
  -6   5   1 10484.1 639.007  12
   6  -5  -1 9789.98 575.807  22
  -6   5   0 36062.2 1194.31  12
   6  -5   0 32758.3 1108.33  22
   6  -5   1 8830.17 594.536  22
   6  -5   2 60122.3 1442.87  15
   6  -5   2 59630.8 1578.43  22
   6  -5   3 2777.17 338.675  15
   6  -5   3 2670.47 337.433  22
   6  -5   4 1881.37 284.957  15
   6  -5   4 1807.71 274.340  22
   6  -5   5 6353.42 471.346  22
   6  -5   5 5935.69 517.411  15
   6  -5   5 6686.13 569.373  21
   6  -5   6 28896.4 1094.32  15
   6  -5   6 28437.7 845.194  22
   6  -5   6 29046.3 1142.92  21
   6  -5   7 9464.71 576.293  15
   6  -5   8 4209.51 322.682  15
  -6   4   8 3121.81 229.350   9
  -6   4   7 19301.8 717.521   9
  -6   4   6 1137.20 206.381   9
  -6   4   6 1371.61 195.222  16
  -6   4   5 14304.0 756.196   9
  -6   4   5 15837.0 679.771  12
  -6   4   4 10318.1 581.553  12
  -6   4   3 19329.9 816.486  12
  -6   4   2 18905.6 842.470  12
   6  -4  -2 15065.8 664.398  22
   6  -4  -1 3208.09 938.636   1
  -6   4   1 3911.93 395.641  12
   6  -4  -1 3128.46 328.203  22
  -6   4   0 56866.8 1473.05  12
   6  -4   0 55429.9 1423.09  22
   6  -4   1 62981.7 1438.48  15
   6  -4   1 64505.0 1582.85  22
   6  -4   2 7169.87 524.341  15
   6  -4   2 7354.06 548.276  22
   6  -4   3 5830.67 497.543  15
   6  -4   3 5881.56 499.454  22
   6  -4   4 1949.03 286.179  22
   6  -4   4 1567.14 280.777  15
   6  -4   4 1952.25 318.944  21
   6  -4   5 23447.0 1047.66  15
   6  -4   5 23066.2 887.543  22
   6  -4   5 23607.1 1092.57  21
   6  -4   6 40.9730 94.8837  15
   6  -4   7 7362.99 518.094  15
   6  -4   8 974.878 156.934  15
  -6   3   9 16882.4 505.436   9
  -6   3   8 12748.5 569.541   9
  -6   3   7-145.004 90.9350   9
  -6   3   7-83.7219 81.0654  16
  -6   3   6 28828.5 1060.61   9
  -6   3   6 30980.4 1023.70  12
  -6   3   5 30453.0 1111.82   9
  -6   3   5 28444.2 1002.77  12
  -6   3   4 4003.81 372.448  12
  -6   3   3-21.9711 66.6957  12
   6  -3  -3-81.1373 182.500   1
   6  -3  -2 6745.46 1421.09   1
  -6   3   2 7116.72 515.794  12
   6  -3  -2 4821.19 370.327  22
  -6   3   1 126.457 86.1653  12
   6  -3  -1 321.994 297.234   1
   6  -3  -1-78.7477 75.1388  22
   6  -3   0 13595.9 1877.52   1
  -6   3   0 14110.2 712.836  12
   6  -3   0 13026.2 669.915  22
   6  -3   1 639.079 156.032  15
   6  -3   1 699.720 180.135  22
   6  -3   2 261.755 116.831  15
   6  -3   2-262.697 319.591   2
   6  -3   2-82.6508 203.347   1
   6  -3   2 122.906 88.2176  22
   6  -3   3 85.7239 92.7000  15
   6  -3   3 18.8651 70.1674  22
   6  -3   4 2823.71 367.701  15
   6  -3   4 3151.86 352.173  22
   6  -3   5 6740.34 567.667  15
   6  -3   5 6219.27 448.774  22
   6  -3   6 7310.67 563.936  15
   6  -3   7 3220.72 335.989  15
   6  -3   8 6764.88 394.844  18
   6  -3   8 6063.24 336.661  15
  -6   2   9 86.6004 63.8333   9
  -6   2   8 5717.79 444.765   9
  -6   2   8 5242.67 429.401  16
  -6   2   7 7386.65 519.797   9
  -6   2   7 7532.26 577.293  16
  -6   2   6 6036.64 496.578   9
  -6   2   6 5281.09 452.639  12
  -6   2   5 511.956 162.112   9
  -6   2   5 852.881 211.270  12
   6  -2  -4 7792.78 1425.83   1
  -6   2   4 8050.80 559.960   9
  -6   2   4 7876.35 545.266  12
   6  -2  -3 2863.70 862.544   1
  -6   2   3 3651.40 355.303  12
  -6   2   2 31265.7 1008.12  12
   6  -2  -2 29109.8 2740.96   1
   6  -2  -1 98879.6 4931.23   1
   6  -2   0 13238.4 1782.92   1
   6  -2   0 11463.5 1579.15   2
   6  -2   1 38753.3 1196.36  15
   6  -2   1 43431.4 2882.75   3
   6  -2   1 45107.0 3301.33   1
   6  -2   1 42182.8 1213.43  22
   6  -2   2 6281.15 514.618  15
   6  -2   2 5786.66 1179.26   2
   6  -2   2 7367.37 527.091  22
   6  -2   3 12438.5 1776.05   2
   6  -2   3 12493.3 745.914  15
   6  -2   3 11923.3 688.374  22
   6  -2   4 35049.7 1282.35  15
   6  -2   4 33650.3 1104.34  22
   6  -2   5 30444.5 1180.95  15
   6  -2   5 29191.1 946.952  22
   6  -2   6 13877.3 748.367  15
   6  -2   7 13249.2 648.199  18
   6  -2   7 10949.8 560.588  15
   6  -2   8 21630.9 678.622  18
  -6   1  10 18172.5 588.436   9
  -6   1   9 6062.14 381.295  11
  -6   1   9 6801.28 461.798   9
  -6   1   9 5585.78 419.384  16
  -6   1   8 14587.0 721.899   9
  -6   1   8 13475.3 759.603  16
  -6   1   7 22902.5 939.120   9
  -6   1   7 17955.3 852.347  12
  -6   1   6 38462.1 1202.24   9
  -6   1   6 37126.7 1195.28  12
  -6   1   5 20146.7 834.885   9
  -6   1   5 17524.0 777.857  13
  -6   1   5 19091.3 835.547  12
  -6   1   4 18985.1 762.911   9
  -6   1   4 17375.7 754.952  12
  -6   1   3 42062.6 1123.40  12
   6  -1  -3 33091.5 2798.05   1
   6  -1  -2 25333.6 2339.15   1
   6  -1  -1 132364. 5219.33   1
   6  -1   0 39600.7 2823.59   1
   6  -1   0 42881.4 3049.14   3
   6  -1   1 20474.1 918.911  15
   6  -1   1 21063.9 894.794  22
   6  -1   2 10167.1 1492.76   2
   6  -1   2 10755.9 681.335  15
   6  -1   2 10044.1 638.585   8
   6  -1   2 12337.7 674.754  22
   6  -1   3 3615.29 414.900  15
   6  -1   3 3311.19 366.119   8
   6  -1   3 3865.52 383.761  22
   6  -1   4 6951.02 571.274  15
   6  -1   4 6831.42 540.797   8
   6  -1   4 6533.69 542.910  22
   6  -1   5 2226.60 288.597  18
   6  -1   5 1920.22 284.576   8
   6  -1   5 1802.54 274.590  15
   6  -1   6 3719.65 373.052  18
   6  -1   6 3019.10 336.309   8
   6  -1   6 2776.19 310.621  15
   6  -1   7 879.318 161.491  18
   6  -1   8 3973.18 261.641  18
  -6   0  10 12906.4 514.892  11
  -6   0  10 13954.8 577.031   9
  -6   0   9 6012.70 455.599   9
  -6   0   9 5550.29 443.782  16
  -6   0   8 10521.7 639.958   9
  -6   0   8 10404.1 690.121  16
  -6   0   7 12248.6 681.691   9
  -6   0   6 20539.2 857.472   9
  -6   0   6 19632.8 855.444  13
  -6   0   6 18380.4 869.997  12
  -6   0   5 4075.58 365.205   9
  -6   0   5 3944.53 399.050  13
  -6   0   5 3922.43 383.303  12
  -6   0   4 635.361 165.809  12
  -6   0   3 1817.96 230.179  12
   6   0  -3 3375.32 882.909   3
   6   0  -2 6422.48 1223.88   3
   6   0  -1 10773.7 1575.37   3
   6   0   0 182.152 103.435  15
   6   0   0 229.639 236.862   3
   6   0   0 233.701 100.116  22
   6   0   1 3168.37 372.147  15
   6   0   1 3243.28 351.227  22
   6   0   1 3654.34 869.258   3
   6   0   2 2576.33 346.231  15
   6   0   2 1791.96 301.508   8
   6   0   2 2116.17 318.048  22
   6   0   3 12174.6 757.544  15
   6   0   3 13849.6 818.395   8
   6   0   4 7874.77 586.937  15
   6   0   4 8096.28 631.724   8
   6   0   5 19420.2 833.655  15
   6   0   5 20338.6 950.668   8
   6   0   6 2243.40 278.476  18
   6   0   6 1474.09 241.383   8
   6   0   7 12442.4 542.019  18
  -6  -1  11 4117.41 228.255  11
  -6  -1  10 93.2969 75.5677   9
  -6  -1  10-21.3950 70.4221  16
  -6  -1   9 928.783 189.772   9
  -6  -1   9 979.695 195.248  16
  -6  -1   8 2425.78 312.570   9
  -6  -1   8 2257.24 325.895  16
  -6  -1   8 2643.99 271.700  13
  -6  -1   7 1103.21 213.930   9
  -6  -1   7 1125.58 206.942  13
  -6  -1   6 2935.23 327.771   9
  -6  -1   6 3151.56 363.145  13
  -6  -1   6 2544.03 333.107  12
  -6  -1   5 6562.52 520.087  13
  -6  -1   5 5831.87 472.724  12
   6   1  -5 5175.68 1073.57   3
   6   1  -4 23258.7 2346.27   3
  -6  -1   4 15737.2 710.864  12
   6   1  -3 7447.78 510.394  15
  -6  -1   3 8324.90 483.559  12
   6   1  -2 84913.4 1756.05  15
   6   1  -2 99308.3 4863.20   3
   6   1  -1 30983.4 1090.22  15
   6   1  -1 29548.3 2678.94   3
   6   1   0 28022.8 1069.37  15
   6   1   0 17164.3 1967.04   3
   6   1   1 14145.5 774.459  15
   6   1   2 19071.2 921.753  15
   6   1   2 14089.4 860.353   8
   6   1   3 49613.9 1430.83  15
   6   1   3 38743.5 1428.97   8
   6   1   4 30770.8 1050.77  15
   6   1   4 32036.6 1254.13   8
   6   1   5 5816.75 439.788  18
   6   1   5 4416.77 438.622   8
   6   1   6 14423.6 661.929  10
   6   1   6 16470.1 651.794  18
   6   1   7 9262.53 367.934  10
  -6  -2  11 6131.75 300.330  11
  -6  -2  10 11037.6 467.130  16
  -6  -2   9 18545.7 781.495   9
  -6  -2   9 18357.1 747.875  16
  -6  -2   9 18251.7 646.068  13
  -6  -2   8 6587.62 499.646   9
  -6  -2   8 6514.46 510.120  16
  -6  -2   8 6015.92 448.907  13
  -6  -2   7 40449.0 1234.16   9
  -6  -2   7 40422.1 1285.89  13
  -6  -2   6 10881.5 691.031  13
  -6  -2   5 12338.6 732.478  13
  -6  -2   4 721.115 188.008  13
  -6  -2   4 511.980 116.447  12
   6   2  -3 58198.1 3822.82   3
   6   2  -2 29260.4 1102.89  15
   6   2  -2 28663.6 2689.63   3
   6   2  -1 5680.70 1194.85   3
   6   2  -1 5391.21 441.116  10
   6   2  -1 6979.42 550.139  15
   6   2   0 6438.03 526.078  10
   6   2   0 7037.40 580.471  15
   6   2   1 11153.6 703.262  15
   6   2   1 8131.49 669.908   8
   6   2   2 355.633 138.686  15
   6   2   2 327.127 171.976   8
   6   2   3 239.838 119.323  15
   6   2   3 296.743 157.557   8
   6   2   4 1201.94 234.000  10
   6   2   4 1092.41 197.397  18
   6   2   4 935.964 227.306   8
   6   2   5 478.629 163.222  10
   6   2   5 511.316 130.194  18
   6   2   5 626.465 166.293   8
   6   2   6 1034.88 149.971  10
  -6  -3  11 10436.2 360.784  11
  -6  -3  10 1084.04 124.626  13
  -6  -3   9 2928.84 253.950  16
  -6  -3   9 3049.30 279.702  13
  -6  -3   8 13972.6 646.981  16
  -6  -3   8 14153.0 698.530  13
  -6  -3   7 3672.43 389.984  13
  -6  -3   6 41.5427 84.1430  13
  -6  -3   5-191.209 109.921  13
  -6  -3   4 18459.1 885.922  13
  -6  -3   3 42505.1 1314.13  13
   6   3  -2 1518.69 232.532  10
  -6  -3   2 1971.58 278.643  13
   6   3  -1 48.0766 78.5091  10
   6   3   0 278.019 139.908  10
   6   3   1 12078.8 753.004  10
   6   3   1 14350.1 867.596   8
   6   3   2 10218.7 701.824  10
   6   3   2 10054.2 702.309   8
   6   3   3 7870.29 565.191  10
   6   3   3 6944.60 542.281   8
   6   3   3 5998.30 399.802  24
   6   3   4 12975.3 648.918  10
   6   3   4 11053.1 600.678   8
   6   3   5 274.967 84.4263  10
  -6  -4  10 811.188 112.478  13
  -6  -4   9 1849.34 211.427  13
  -6  -4   8 7471.95 482.979  13
  -6  -4   7 1047.05 209.078  13
  -6  -4   6 502.931 152.614  13
  -6  -4   5 1836.95 274.207  13
  -6  -4   4 45342.3 1331.49  13
   6   4  -3 9455.12 587.545  10
  -6  -4   3 9414.02 582.641  13
   6   4  -2 4819.88 439.031  10
   6   4  -1 5006.87 457.335  10
   6   4  -1 5210.60 500.891   8
   6   4   0 19227.8 897.794  10
   6   4   0 22084.7 1019.91   8
   6   4   1 629.649 180.299  10
   6   4   1 767.562 204.865   8
   6   4   2 15713.9 737.156   8
   6   4   2 14045.6 636.951  24
   6   4   3 13164.8 573.572   8
   6   4   3 11457.1 457.089  24
   6   4   4 664.097 108.403  10
  -6  -5  10 6638.58 269.951  13
  -6  -5   9 9722.63 432.314  13
  -6  -5   8 6204.87 399.260  13
  -6  -5   7 2455.37 273.801  13
  -6  -5   6 6235.84 446.104  13
  -6  -5   5 5015.09 394.651  13
  -6  -5   4 909.458 164.344  13
   6   5  -3 7086.18 505.213  10
   6   5  -2 4658.14 419.966  10
   6   5  -2 4538.44 416.658   8
   6   5  -1 1973.20 282.930  10
   6   5  -1 2441.18 289.098   8
   6   5  -1 2140.56 272.039  14
   6   5   0 138.657 96.3814  10
   6   5   0 403.978 118.128   8
   6   5   1-147.801 90.4819  10
   6   5   1 56.6005 66.6711   8
   6   5   1 73.3060 85.1067  24
   6   5   2-8.05677 51.3686  10
   6   5   2-65.7055 50.0825  24
  -6  -6   9 451.675 76.7405  13
  -6  -6   8 3358.22 234.336  13
   6   6  -8 3720.07 243.685   7
   6   6  -7-72.3762 70.7755  14
   6   6  -7 65.3038 52.3428   7
  -6  -6   7 45.2811 52.2793  13
   6   6  -6-17.7418 74.5186  14
  -6  -6   6 31.2637 50.7219  13
   6   6  -5 445.396 130.988  14
  -6  -6   5 465.401 94.8746  13
   6   6  -4 5722.76 434.111  14
   6   6  -3 664.432 159.822  14
   6   6  -2 303.647 108.193  14
   6   6  -1 2427.15 202.289  14
   6   6   0 2526.96 218.857  24
   6   7  -6 1167.90 134.689  14
   6   7  -5 4888.96 292.450  14
   6   7  -4 5730.57 316.533  14
   6   7  -3 1484.04 145.949  14
  -7   8   1 2213.11 165.215   9
   7  -8   0 2509.60 151.376  22
  -7   8  -1 116.786 50.0882  12
   7  -8   1 68.7311 50.1982  22
  -7   8  -2 86.9656 55.8699  12
   7  -8   2 30.3693 42.0684  22
  -7   8  -3 5076.79 278.193  12
   7  -8   3 6033.28 319.287  22
   7  -8   4 4909.59 263.263  22
  -7   8  -4 3693.05 230.221  12
  -7   8  -5 3105.83 184.531  12
  -7   7   4 1213.28 110.948   9
  -7   7   3 3063.59 225.889   9
   7  -7  -1 5740.31 292.784  22
  -7   7   1 5114.84 290.514  12
   7  -7   0 6080.31 362.061  22
  -7   7   0 5544.22 347.850  12
  -7   7  -1 1183.16 180.228  12
   7  -7   1 1211.78 184.059  22
  -7   7  -2 6533.41 418.158  12
   7  -7   2 6407.56 417.288  22
   7  -7   3 1095.09 173.265  22
  -7   7  -3 988.410 173.371  12
   7  -7   4 714.597 114.167  15
  -7   7  -4 600.090 132.025  12
   7  -7   4 744.612 135.477  22
   7  -7   5 1079.86 142.410  15
  -7   7  -5 1137.25 156.750  12
   7  -7   5 1048.18 135.752  22
   7  -7   6 398.010 85.9013  15
  -7   7  -6 281.368 69.4586  12
  -7   6   5 116.490 52.5080   9
  -7   6   4 24.3677 50.4379   9
  -7   6   3 708.843 138.426   9
  -7   6   3 735.954 118.936  12
  -7   6   2 224.593 90.8185  12
  -7   6   1-4.90070 78.4434  12
   7  -6  -1 15.4753 77.9223  22
  -7   6   0 6340.73 454.785  12
   7  -6   0 6052.54 430.759  22
  -7   6  -1 942.811 196.458  12
   7  -6   1 656.739 160.681  22
  -7   6  -2 7311.18 500.441  12
   7  -6   2 7755.78 516.883  22
   7  -6   3 8815.85 485.351  15
  -7   6  -3 8066.53 518.726  12
   7  -6   3 8094.07 521.721  22
   7  -6   4 10628.5 552.480  15
  -7   6  -4 9494.44 532.394  12
   7  -6   4 9841.90 540.663  22
   7  -6   5 4297.75 342.159  15
  -7   6  -5 3729.82 302.671  12
   7  -6   5 3974.67 300.503  22
   7  -6   6 10916.5 504.811  15
   7  -6   6 9238.41 333.155  22
   7  -6   7 4808.87 283.097  15
  -7   5   6 5611.13 314.482   9
  -7   5   5 3768.87 305.565   9
  -7   5   4 17099.6 707.965   9
  -7   5   4 18297.3 652.387  12
  -7   5   3 11458.3 570.565  12
  -7   5   2 7882.22 500.066  12
   7  -5  -2 7588.87 432.649  22
  -7   5   1 9099.90 590.441  12
   7  -5  -1 8973.70 530.749  22
  -7   5   0 130.463 114.168  12
   7  -5   0 240.088 107.814  22
  -7   5  -1 4788.28 434.149  12
   7  -5   1 4745.08 426.734  22
   7  -5   2 8753.03 530.244  15
  -7   5  -2 7673.18 542.134  12
   7  -5   2 7583.14 543.929  22
   7  -5   3 7145.99 506.432  15
  -7   5  -3 7609.42 523.533  12
   7  -5   3 7220.97 522.419  22
   7  -5   4 17735.1 808.270  15
   7  -5   4 17891.8 772.279  22
   7  -5   5 6775.28 482.756  15
  -7   5  -5 5870.79 391.311  12
   7  -5   5 6789.30 421.225  22
   7  -5   6 14547.4 653.389  15
   7  -5   7 3630.44 276.940  15
  -7   4   7 14670.2 522.514   9
  -7   4   6 4786.06 352.268   9
  -7   4   5 11109.4 585.870   9
  -7   4   5 14701.0 636.472  12
  -7   4   4 26681.7 943.369   9
  -7   4   4 29620.5 958.579  12
  -7   4   3 25537.9 934.054   9
  -7   4   3 31849.9 1049.24  12
  -7   4   2 10730.5 635.362  12
   7  -4  -2 8709.64 500.389  22
  -7   4   1 19664.7 879.708  12
   7  -4  -1 17585.5 775.891  22
  -7   4   0 180.568 115.846  12
   7  -4   0 171.926 105.798  22
   7  -4   1 42.7774 65.4608  15
  -7   4  -1 165.185 121.606  12
   7  -4   1 179.528 106.682  22
   7  -4   2 415.918 150.973  15
  -7   4  -2 578.118 162.241  12
   7  -4   2 578.815 163.850  22
   7  -4   3 1525.32 260.962  15
  -7   4  -3 1980.71 272.794  12
   7  -4   3 1612.28 256.321  22
   7  -4   4 442.280 149.210  15
  -7   4  -4 536.084 141.429  12
   7  -4   4 246.404 113.703  22
   7  -4   5 51.9917 82.2457  15
   7  -4   5 126.070 84.8718  22
   7  -4   6 67.9628 80.7074  15
   7  -4   7 309.230 95.0230  15
  -7   3   8 1893.31 185.545   9
  -7   3   7 12520.9 564.956   9
  -7   3   7 11008.2 508.641  16
  -7   3   6 8647.41 509.251   9
  -7   3   6 7486.36 496.196  16
  -7   3   5 791.916 176.484   9
  -7   3   5 1089.39 219.520  12
  -7   3   4 20.2527 60.7871   9
  -7   3   4-35.0168 84.7529  12
  -7   3   3 1115.37 199.541   9
  -7   3   3 1558.41 253.836  12
  -7   3   2 4064.21 396.465  12
   7  -3  -2 2922.44 299.985  22
  -7   3   1 5447.55 461.555  12
   7  -3  -1 4184.21 385.355  22
   7  -3   0 16059.0 757.011  15
  -7   3   0 18124.2 830.437  12
   7  -3   0 15598.9 782.595  22
   7  -3   1 2767.30 340.138  15
  -7   3  -1 2963.81 332.742  12
   7  -3   1 2769.61 347.519  22
   7  -3   2 45698.5 1395.98  15
  -7   3  -2 44333.2 1244.72  12
   7  -3   2 46146.2 1366.17  22
   7  -3   3 22747.4 1005.87  15
  -7   3  -3 21987.8 821.750  12
   7  -3   3 23920.2 964.407  22
   7  -3   4 10341.4 677.962  15
   7  -3   4 10387.1 601.302  22
   7  -3   5 15606.8 794.527  15
   7  -3   5 14794.1 621.464  22
   7  -3   6 22190.6 845.322  15
   7  -3   7 7848.38 388.112  15
  -7   2   9 16190.9 487.677   9
  -7   2   8 22723.5 722.457   9
  -7   2   8 17914.5 660.639  16
  -7   2   7 1107.13 194.191   9
  -7   2   7 506.619 159.860  16
  -7   2   6 30261.6 986.641   9
  -7   2   6 29116.0 1002.28  12
  -7   2   5 61600.4 1415.52   9
  -7   2   5 60042.9 1467.81  12
  -7   2   4 54882.3 1313.70   9
  -7   2   4 53222.4 1377.05  12
  -7   2   3 1588.15 244.732  12
  -7   2   2 59390.3 1448.81  12
   7  -2  -2 45994.5 1216.03  22
   7  -2  -1 834.633 184.059  15
  -7   2   1 1292.71 217.134  12
   7  -2  -1 984.283 200.783  22
   7  -2   0 8024.19 573.850  15
  -7   2   0 7233.95 502.119  12
   7  -2   0 7388.12 541.599  22
   7  -2   1 34630.1 1227.23  15
  -7   2  -1 31387.0 989.670  12
   7  -2   1 35057.1 1209.54  22
   7  -2   2 2941.48 372.002  15
   7  -2   2 2910.89 362.161  22
   7  -2   3 23976.0 1058.15  15
   7  -2   3 28967.3 1070.14  22
   7  -2   4 11680.1 725.477  15
   7  -2   4 10930.7 625.423  22
   7  -2   5 45182.2 1316.83  15
   7  -2   6 971.502 171.347  15
  -7   1   9 6750.61 370.083   9
  -7   1   9 5271.55 332.308  16
  -7   1   8 4471.28 371.910   9
  -7   1   8 3665.08 347.376  16
  -7   1   7 29698.5 982.785   9
  -7   1   6 23369.3 863.742   9
  -7   1   6 20448.0 782.898  13
  -7   1   6 22624.6 922.453  12
  -7   1   5 26645.9 1010.44  13
  -7   1   5 28363.3 1026.72  12
  -7   1   4 19904.0 842.463  12
  -7   1   3 39090.4 1148.51  12
   7  -1  -3 37815.3 1067.90  22
   7  -1  -2 25310.8 935.518  15
  -7   1   2 24498.2 877.370  12
   7  -1  -2 23890.1 895.915  22
   7  -1  -1 2555.91 320.758  15
  -7   1   1 2084.71 256.257  12
   7  -1  -1 2664.94 328.354  22
   7  -1   0-287.120 128.358  15
   7  -1   0 255.959 139.040  22
   7  -1   1 24543.2 1060.44  15
   7  -1   1 29689.0 1092.88  22
   7  -1   2 444.935 153.491  15
   7  -1   2 567.795 171.408   8
   7  -1   2 571.098 211.300  22
   7  -1   3 895.030 214.142  15
   7  -1   3 989.046 204.936   8
   7  -1   3 1008.98 235.701  22
   7  -1   4 625.978 179.458  15
   7  -1   4 430.273 130.189   8
   7  -1   5 17938.4 724.913   8
   7  -1   5 16956.7 744.987  15
   7  -1   6 2031.41 196.642  15
   7  -1   7 69.2735 46.2999  10
  -7   0   9 76.6094 64.7566   9
  -7   0   9 59.7518 64.5357  16
  -7   0   8 2750.46 289.707   9
  -7   0   8 2568.95 314.248  16
  -7   0   7 1670.86 230.993   9
  -7   0   7 1452.75 204.881  13
  -7   0   6 12054.0 616.570   9
  -7   0   6 11528.4 656.615  13
  -7   0   6 12210.6 692.959  12
  -7   0   5 615.420 161.269  13
  -7   0   5 742.246 198.625  12
  -7   0   4 137.965 97.8939  12
   7   0  -3 634.147 161.836  15
  -7   0   3 472.509 136.911  12
   7   0  -2 1046.72 216.465  15
  -7   0   2 697.336 151.418  12
   7   0  -2 634.882 152.339  22
   7   0  -1 37630.4 1232.44  15
   7   0  -1 36594.0 1180.52  22
   7   0   0 24241.3 1026.48  15
   7   0   0 22993.7 967.628  22
   7   0   1 30114.3 1171.52  15
   7   0   2 45759.3 1450.12  15
   7   0   2 38661.5 1343.12   8
   7   0   3 28435.2 1100.20  15
   7   0   3 25969.1 1078.87   8
   7   0   4 34120.6 1100.01  15
   7   0   4 35254.6 1162.18   8
   7   0   5 545.044 122.284  15
   7   0   5 784.941 165.023   8
   7   0   6 14498.5 562.194  10
  -7  -1  10 13510.1 434.352  11
  -7  -1   9 7485.58 406.655   9
  -7  -1   9 7681.85 428.385  16
  -7  -1   8 11226.1 555.669   9
  -7  -1   8 11473.5 629.597  16
  -7  -1   8 11482.4 506.417  13
  -7  -1   7 25320.8 878.445   9
  -7  -1   7 26224.3 938.739  13
  -7  -1   6 34089.6 1163.73  13
  -7  -1   5 25537.1 1047.87  13
  -7  -1   5 22961.6 927.731  12
  -7  -1   4 7549.17 579.201  13
  -7  -1   4 6835.28 491.157  12
  -7  -1   3 53189.5 1278.35  12
   7   1  -2 3549.57 399.540  15
   7   1  -1 8722.24 625.089  15
   7   1   0 6797.01 486.891  10
   7   1   0 6288.44 543.013  15
   7   1   1 21687.7 910.799  10
   7   1   1 20543.5 963.264  15
   7   1   2 29309.5 1134.24  15
   7   1   2 24095.0 1087.49   8
   7   1   3 7463.43 519.686  15
   7   1   3 5695.14 507.013   8
   7   1   4 6246.62 498.274  10
   7   1   4 5373.53 378.854  15
   7   1   4 6107.19 468.598   8
   7   1   5 3897.46 326.212  10
   7   1   5 3494.19 299.281   8
  -7  -2  10 5934.70 298.721  11
  -7  -2   9 3440.62 257.126  16
  -7  -2   9 3244.27 214.319  13
  -7  -2   8 12530.5 603.983  16
  -7  -2   8 12886.5 573.275  13
  -7  -2   7 4046.59 376.014  13
  -7  -2   6 13000.1 730.737  13
  -7  -2   5 14733.2 793.356  13
  -7  -2   4 14658.8 797.238  13
  -7  -2   3 7027.31 555.225  13
  -7  -2   2 10985.6 670.053  13
   7   2  -1 1081.72 246.343  15
  -7  -2   1 1722.36 267.724  13
   7   2   0 5550.90 459.710  10
   7   2   0 6015.22 531.893  15
  -7  -2   0 7131.90 492.337  13
   7   2   1 7170.95 524.589  10
   7   2   1 7039.73 555.602  15
   7   2   1 5915.59 549.391   8
   7   2   2 169.046 129.810  10
   7   2   2 295.251 154.641   8
   7   2   3 4715.42 395.864  10
   7   2   3 3430.34 362.190   8
   7   2   4 322.677 109.986  10
   7   2   4 520.630 138.168   8
   7   2   5 1112.34 129.874  10
  -7  -3  10 375.882 76.1394  11
  -7  -3   9 1399.66 149.850  13
  -7  -3   8 218.178 74.1905  16
  -7  -3   8 430.327 112.149  13
  -7  -3   7 7957.03 505.948  13
  -7  -3   6 1624.45 253.777  13
  -7  -3   5-216.686 141.129  13
  -7  -3   4 721.490 190.346  13
  -7  -3   3-19.1034 75.5230  13
  -7  -3   2 10853.9 609.715  13
   7   3  -1 9233.55 555.006  10
   7   3   0 19041.2 809.162  10
   7   3   0 21503.1 997.008   8
   7   3   1 35033.4 1074.90  10
   7   3   1 31426.5 1137.52   8
   7   3   2 7209.82 476.667  10
   7   3   2 6082.39 453.197   8
   7   3   3 15328.1 602.779  10
   7   3   3 11996.0 539.950   8
  -7  -4   9 11687.6 395.711  13
  -7  -4   8 10035.4 458.237  13
  -7  -4   7 14964.8 626.214  13
  -7  -4   6 8147.94 492.129  13
  -7  -4   5 9795.73 551.402  13
  -7  -4   4 11612.4 590.596  13
  -7  -4   3 2633.45 267.603  13
   7   4  -2 1999.44 242.574  10
   7   4  -2 2568.86 344.539   8
   7   4  -1 1601.33 220.974  10
   7   4  -1 1959.80 277.652   8
   7   4   0 6099.94 418.359  10
   7   4   0 6196.51 453.862   8
   7   4   1 4947.91 355.208  10
   7   4   1 5111.49 362.615   8
   7   4   2 2717.86 225.545  10
   7   4   2 2521.42 204.170   8
  -7  -5   8 61.8758 50.5236  13
   7   5  -7 8628.82 385.587  14
  -7  -5   7 8790.83 392.496  13
   7   5  -6 5815.50 379.025  14
  -7  -5   6 5388.12 321.854  13
  -7  -5   5 497.794 102.901  13
   7   5  -4 6173.68 400.037   8
   7   5  -3 15769.3 624.966   8
   7   5  -3 12463.3 594.581  14
   7   5  -2 391.307 103.137   8
   7   5  -2 230.266 79.9062  14
   7   5  -1 3282.69 241.393   8
   7   5  -1 2934.76 203.646  14
   7   5   0 1410.48 129.265  24
   7   6  -6 13.3199 37.5573  14
   7   6  -5-24.2273 54.5667  14
   7   6  -4 673.189 107.854  14
   7   6  -3 794.590 101.150  14
  -8   7   1-13.5545 30.9939  12
  -8   7   0 570.973 89.9344  12
   8  -7   0 567.999 80.7990  22
  -8   7  -1 1325.84 141.027  12
   8  -7   1 1397.30 141.961  22
  -8   7  -2 9259.48 368.423  12
   8  -7   2 10659.2 402.446  22
  -8   7  -3 7317.59 310.909  12
   8  -7   3 8845.81 350.190  22
   8  -7   4 818.474 94.6070  22
  -8   7  -4 605.318 79.9438  12
  -8   6   3 1006.98 116.578   9
  -8   6   3 1314.51 124.593  12
  -8   6   2 2169.40 178.396   9
  -8   6   2 3002.88 222.857  12
  -8   6   1 4058.06 284.327  12
   8  -6  -1 4511.97 261.250  22
  -8   6   0 4219.15 304.554  12
   8  -6   0 4608.27 305.620  22
  -8   6  -1 509.632 117.954  12
   8  -6   1 712.899 131.886  22
  -8   6  -2 16631.6 613.391  12
   8  -6   2 17456.2 636.582  22
  -8   6  -3 2828.74 240.790  12
   8  -6   3 3110.59 257.188  22
   8  -6   4 2398.97 190.359  15
  -8   6  -4 2140.04 182.787  12
   8  -6   4 2565.11 209.509  22
   8  -6   5 2989.63 189.774  15
  -8   5   5 11318.2 371.197   9
  -8   5   4 9109.01 387.237   9
  -8   5   4 12314.4 471.960  12
  -8   5   3 8835.73 406.729   9
  -8   5   3 12083.4 511.036  12
  -8   5   2 663.030 118.356   9
  -8   5   2 810.829 149.884  12
  -8   5   1 2440.62 261.386  12
   8  -5  -1 2429.60 236.525  22
  -8   5   0 11660.8 586.018  12
   8  -5   0 11679.3 562.407  22
  -8   5  -1 7287.54 452.640  12
   8  -5   1 7098.40 455.975  22
   8  -5   2 1097.70 166.290  15
  -8   5  -2 1375.04 195.448  12
   8  -5   2 1267.64 195.615  22
   8  -5   3 466.743 107.884  15
  -8   5  -3 327.768 98.1135  12
   8  -5   3 284.950 98.2937  22
   8  -5   4 150.255 78.0885  15
  -8   5  -4 105.557 55.6540  12
   8  -5   4 164.988 71.0128  22
   8  -5   5 2388.24 217.118  15
   8  -5   5 2144.40 163.857  22
   8  -5   6 262.497 62.6180  15
  -8   4   6 10847.9 383.892   9
  -8   4   5 2613.67 224.760   9
  -8   4   5 3129.13 258.247  12
  -8   4   4 276.057 84.9269   9
  -8   4   4 289.422 93.9279  12
  -8   4   3 53.8784 56.1926   9
  -8   4   3 21.6505 76.2900  12
  -8   4   2 1063.31 196.443  12
   8  -4  -2 888.829 144.128  22
  -8   4   1 3155.83 324.756  12
   8  -4  -1 2989.13 296.155  22
  -8   4   0 370.803 138.687  12
   8  -4   0 123.912 100.995  22
   8  -4   1 57.4930 62.5995  15
  -8   4  -1 59.6673 92.9164  12
   8  -4   1 96.6582 71.5909  22
   8  -4   2 7880.28 496.373  15
  -8   4  -2 7860.59 459.397  12
   8  -4   2 8180.37 525.734  22
   8  -4   3 902.232 185.564  15
  -8   4  -3 796.868 130.113  12
   8  -4   3 773.111 167.526  22
   8  -4   4 5034.22 383.234  15
   8  -4   4 4711.79 334.480  22
   8  -4   5 5638.18 368.471  15
   8  -4   6 5964.47 297.695  15
  -8   3   7 1922.36 164.847   9
  -8   3   7 1243.65 116.902  16
  -8   3   6 11798.4 466.769   9
  -8   3   6 8360.34 403.708  16
  -8   3   5 6723.83 381.019   9
  -8   3   5 7725.74 453.808  12
  -8   3   4 9833.28 466.543   9
  -8   3   4 11424.0 609.924  12
  -8   3   3 3473.10 345.788  12
  -8   3   2 15607.3 708.654  12
   8  -3  -2 11380.9 558.986  22
  -8   3   1 27191.2 930.802  12
   8  -3  -1 23899.1 873.134  22
   8  -3   0 11310.2 590.143  15
  -8   3   0 11333.1 589.547  12
   8  -3   0 10877.5 619.725  22
   8  -3   1 14473.5 708.851  15
  -8   3  -1 13019.8 602.238  12
   8  -3   1 13861.0 712.936  22
   8  -3   2 6984.67 507.450  15
  -8   3  -2 6250.38 379.740  12
   8  -3   2 7716.31 515.347  22
   8  -3   3 5727.12 456.092  15
   8  -3   3 5498.69 416.668  22
   8  -3   4 14086.1 665.468  15
   8  -3   5 10966.7 516.025  15
   8  -3   6 1415.10 137.841  15
  -8   2   8 3558.84 202.698  16
  -8   2   7 13656.7 482.969   9
  -8   2   7 9282.22 444.772  16
  -8   2   6 25837.1 726.000   9
  -8   2   6 24600.4 823.195  12
  -8   2   5 14593.5 558.101   9
  -8   2   5 14544.2 584.889  13
  -8   2   5 14471.4 666.961  12
  -8   2   4 13510.7 695.997  13
  -8   2   4 14056.5 688.516  12
  -8   2   3 8818.92 537.230  12
   8  -2  -3 5406.88 364.477  22
  -8   2   2 5625.15 425.925  12
   8  -2  -2 4043.35 355.165  22
   8  -2  -1 18741.2 787.110  15
  -8   2   1 19965.0 784.309  12
   8  -2  -1 17971.5 800.232  22
   8  -2   0 6365.97 487.504  15
  -8   2   0 6339.20 419.511  12
   8  -2   0 6369.84 499.016  22
   8  -2   1 2630.19 329.484  15
   8  -2   1 2830.66 336.511  22
   8  -2   2 1190.58 224.180  15
   8  -2   2 1431.72 237.669  22
   8  -2   3 16.4463 81.4554  15
   8  -2   4 410.891 130.685  15
   8  -2   5 264.478 91.6437  15
  -8   1   8 335.551 76.4506   9
  -8   1   8 229.924 80.4261  16
  -8   1   7 83.0842 48.4880   9
  -8   1   7 107.194 90.3739  16
  -8   1   6 3950.10 304.787  13
  -8   1   6 4219.00 368.917  12
  -8   1   5 44.3015 73.5212  13
  -8   1   5 164.636 102.947  12
  -8   1   4 147.655 108.012  13
  -8   1   4-1.58558 79.9098  12
  -8   1   3 2090.77 267.043  12
   8  -1  -2 10461.0 582.092  15
  -8   1   2 10844.6 566.877  12
   8  -1  -2 10294.0 585.485  22
   8  -1  -1 413.127 148.833  15
  -8   1   1 318.804 103.933  12
   8  -1  -1 462.626 152.335  22
   8  -1   0 6246.69 501.177  15
   8  -1   0 6590.37 497.749  22
   8  -1   1 7936.45 568.411  15
   8  -1   1 7929.50 525.672   8
   8  -1   2 2701.41 329.090  15
   8  -1   2 2830.11 306.466   8
   8  -1   3 9568.90 577.587  15
   8  -1   3 9758.45 502.382   8
   8  -1   4 8103.17 387.195   8
   8  -1   4 7461.01 444.791  15
   8  -1   5 5567.02 295.399  10
   8  -1   5 8488.87 358.365  15
  -8   0   9 1770.23 140.552  16
  -8   0   8 10589.2 473.615  16
  -8   0   7 3151.95 239.602  13
  -8   0   6 12191.7 590.924  13
  -8   0   5 13972.3 704.021  13
  -8   0   5 13475.5 662.925  12
  -8   0   4 22477.5 939.260  13
  -8   0   4 20183.9 801.216  12
  -8   0   3 661.963 150.935  12
   8   0  -2 100547. 1885.33  15
   8   0  -1 19332.2 862.314  15
   8   0   0 13889.4 744.984  15
   8   0   0 13217.8 746.759   8
   8   0   1 10510.9 642.294  15
   8   0   1 8354.13 577.646   8
   8   0   2 10949.0 534.425  10
   8   0   2 9366.24 594.700  15
   8   0   3 16636.8 701.150  15
   8   0   3 14634.2 639.327   8
   8   0   4 4600.67 302.671  10
   8   0   4 4137.64 281.281   8
  -8  -1   8 3019.82 249.762  16
  -8  -1   8 2407.25 164.715  13
  -8  -1   7 26338.8 766.798  13
  -8  -1   6 5301.98 409.742  13
  -8  -1   5 3263.27 349.201  13
  -8  -1   4 30.0914 85.0304  13
  -8  -1   3 42629.4 1292.67  13
  -8  -1   2 2437.41 313.379  13
   8   1  -1 2106.98 303.187  15
   8   1   0 2304.09 305.837  15
   8   1   0 1845.25 309.496   8
  -8  -1   0 2390.88 272.811  13
   8   1   1 6942.38 411.668  10
   8   1   1 7103.94 497.656  15
   8   1   2 3378.19 333.773  15
   8   1   2 3317.29 330.491   8
   8   1   3 31.6274 47.7415  10
   8   1   3-3.33732 66.4735   8
   8   1   4-58.7888 44.0824  10
  -8  -2   8 221.565 64.5960  16
  -8  -2   8 186.085 58.7560  13
  -8  -2   7 38.2281 57.0324  13
  -8  -2   6 2485.45 276.861  13
  -8  -2   5 134.194 82.8747  13
  -8  -2   4 977.896 199.472  13
  -8  -2   3 69942.4 1546.25  13
  -8  -2   2 89.1052 83.7703  13
   8   2  -1 3252.18 374.296   8
  -8  -2   1 3304.23 312.708  13
   8   2   0 1041.96 215.421   8
   8   2   1 16393.0 598.252  10
   8   2   1 13507.9 665.805   8
   8   2   2 5257.43 306.963  10
   8   2   2 4035.37 318.914   8
   8   2   3 3913.26 244.966   8
  -8  -3   8 10165.3 352.161  13
  -8  -3   7 1735.11 184.765  13
  -8  -3   6 2926.06 267.088  13
  -8  -3   5 8702.54 486.356  13
  -8  -3   4 14264.2 629.457  13
  -8  -3   3 23474.0 772.969  13
   8   3  -2 4662.05 424.452   8
  -8  -3   2 3086.15 254.457  13
   8   3  -1 11573.9 616.963   8
   8   3   0 10773.7 414.421  10
   8   3   0 12123.1 575.778   8
   8   3   1 30.8044 48.7065  10
   8   3   1 93.4590 74.1542   8
  -8  -4   7 2044.04 159.289  13
  -8  -4   6 902.312 120.215  13
  -8  -4   5 1039.46 132.881  13
   8   4  -4-0.58106 63.6384   8
  -8  -4   4 124.437 54.5654  13
   8   4  -3 3814.93 310.889   8
   8   4  -2 2041.39 223.920   8
   8   4  -2 1286.89 153.696  14
   8   4  -1 1002.26 142.150   8
  -9   6   1 2983.81 164.411  12
  -9   6   0 6372.69 253.790  12
  -9   6  -1 4139.22 200.607  12
   9  -6   1 4759.17 212.089  22
   9  -6   2 12017.4 332.703  22
  -9   5   3 316.269 69.3291  12
  -9   5   2 465.272 92.5971  12
  -9   5   1 197.152 68.3050  12
   9  -5  -1 119.358 37.5228  22
  -9   5   0 379.200 90.0300  12
   9  -5   0 238.224 63.0247  22
   9  -5   1 750.160 114.547  22
  -9   5  -1 670.827 103.612  12
  -9   5  -2 2855.86 175.974  12
   9  -5   2 3416.69 230.011  22
   9  -5   3 200.061 52.5896  22
  -9   4   4 3942.72 246.398  12
  -9   4   3 27135.3 724.925  12
  -9   4   2 1121.60 154.211  12
  -9   4   1 20699.1 638.004  12
   9  -4  -1 19089.6 573.599  22
  -9   4   0 9886.24 428.146  12
   9  -4   0 9842.70 446.589  22
  -9   4  -1 7842.75 349.477  12
   9  -4   1 8311.86 418.372  22
   9  -4   2 12934.3 437.554  15
  -9   4  -2 11656.2 342.357  12
   9  -4   3 945.645 116.580  15
  -9   3   5 3646.08 194.592  16
  -9   3   4 3772.12 284.541  12
  -9   3   3 5792.30 344.292  13
  -9   3   3 6991.24 389.352  12
  -9   3   2 22239.9 704.906  12
  -9   3   1 11048.1 482.080  12
   9  -3  -1 9637.78 460.761  22
   9  -3   0 9811.74 413.014  15
  -9   3   0 11478.6 460.936  12
   9  -3   0 11067.9 516.410  22
   9  -3   1 25558.9 719.333  15
   9  -3   1 29080.9 826.875  22
   9  -3   2 1045.90 150.223  15
   9  -3   3 3386.83 247.080  15
   9  -3   4 1839.50 150.262  15
  -9   2   6 2443.73 186.075  16
  -9   2   4 5313.89 335.567  13
  -9   2   4 5305.55 347.001  12
  -9   2   3 124.714 71.7638  13
  -9   2   3 83.9244 67.0542  12
  -9   2   2 321.785 100.402  12
  -9   2   1 360.706 95.8326  12
   9  -2   0 1958.48 217.602  15
   9  -2   1 19.6260 57.0127  15
   9  -2   2 361.172 96.4829  15
   9  -2   3 68.5025 50.4676  15
  -9   1   7 126.559 47.0202  16
  -9   1   6 6635.41 360.533  16
  -9   1   5 8742.08 408.150  13
  -9   1   4 31767.7 885.074  13
  -9   1   4 28696.4 793.402  12
  -9   1   3 7285.70 455.327  13
  -9   1   3 6535.81 371.963  12
  -9   1   2 57358.2 1030.93  12
   9  -1  -1 25967.2 743.116   8
   9  -1   0 23405.9 779.521  15
   9  -1   1 6064.93 391.414  15
   9  -1   2 7214.70 400.929  15
   9  -1   3 2719.25 209.369  15
  -9   0   7 3431.02 215.226  16
  -9   0   6 2626.96 197.482  13
  -9   0   5 1424.72 183.744  13
  -9   0   4 11728.5 556.447  13
  -9   0   3 39814.9 1056.11  13
  -9   0   2 7861.89 475.573  13
   9   0  -1 13010.3 579.439   8
  -9   0   1 13811.5 601.115  13
   9   0   0 20505.2 694.471   8
  -9   0   0 21761.6 707.073  13
   9   0   1 7344.07 368.997   8
  -9   0  -1 8148.75 349.226  13
   9   0   2 1672.87 139.915   8
  -9  -1   7-5.69793 30.7561  16
  -9  -1   6 920.744 121.730  13
  -9  -1   5 4309.81 309.356  13
  -9  -1   4 269.381 98.5457  13
  -9  -1   3 987.315 169.147  13
   9   1  -2 6408.08 412.057   8
  -9  -1   2 6142.67 379.729  13
   9   1  -1 961.358 166.632   8
  -9  -1   1 1282.51 167.301  13
   9   1   0 180.963 70.5142   8
   9   1   1 190.079 71.2714   8
  -9  -2   6 4936.61 251.614  13
  -9  -2   5 11072.4 430.589  13
  -9  -2   4 16792.2 555.185  13
   9   2  -3 23806.2 741.099   8
  -9  -2   3 18848.0 578.387  13
   9   2  -2 18577.8 642.401   8
  -9  -2   2 14817.8 450.953  13
   9   2  -1 16162.6 563.301   8
   9   2   0 4658.29 263.825   8
   9   3  -5 4421.78 234.913   8
   9   3  -4 4844.27 265.184   8
   9   3  -3 4432.14 255.434   8
   9   3  -2 1648.47 144.275   8
 -10   2   2 82.6391 46.2949  13
 -10   2   1 14049.7 416.094  13
 -10   2   0 2747.76 170.023  13
 -10   1   3 829.338 98.8754  13
 -10   1   2 36343.0 668.302  13
 -10   1   1 4621.25 227.293  13
   0   0   0    0.00    0.00   0
TITL isoquinoline in P-1
REM P-1 (#2 in standard setting)
CELL 1.54184   7.993408   8.330120  10.114961 109.7480  97.8650  99.4437
ZERR    1.00   0.000551   0.000708   0.000697   0.0070   0.0057   0.0064
LATT  1
SFAC C H N Cu
UNIT 30.00 18.00 6.00 2.00
TREF
HKLF 4
END
;
_shelx_hkl_checksum              3749
loop_
_space_group_symop_operation_xyz
'x, y, z'
'-x, -y, -z'
loop_
_atom_site_label
_atom_site_type_symbol
_atom_site_fract_x
_atom_site_fract_y
_atom_site_fract_z
_atom_site_U_iso_or_equiv
_atom_site_adp_type
_atom_site_occupancy
_atom_site_site_symmetry_order
_atom_site_calc_flag
_atom_site_refinement_flags_posn
_atom_site_refinement_flags_adp
Cu1 Cu 0.12811(5) 0.18285(6) 0.51787(4) 0.0228(3) Uani 1 1 d . .
N3 N 0.1779(3) 0.3255(3) 0.7300(3) 0.0206(5) Uani 1 1 d . .
N2 N 0.3291(4) 0.1559(4) 0.4384(3) 0.0265(6) Uani 1 1 d . .
N1 N -0.1112(4) 0.1328(4) 0.4298(3) 0.0228(6) Uani 1 1 d . .
C15 C 0.3012(4) 0.4801(4) 0.7887(4) 0.0240(7) Uani 1 1 d . .
H15 H 0.3571 0.5206 0.7275 0.029 Uiso 1 1 calc R U
C3 C 0.4469(4) 0.1338(4) 0.3860(3) 0.0209(6) Uani 1 1 d . .
C6 C 0.6629(4) 0.0046(4) 0.0698(3) 0.0172(6) Uani 1 1 d . .
H6 H 0.7730 0.0067 0.1153 0.021 Uiso 1 1 calc R U
C12 C 0.3082(5) 0.6085(5) 1.1794(4) 0.0291(7) Uani 1 1 d . .
H12 H 0.3915 0.7132 1.2194 0.035 Uiso 1 1 calc R U
C1 C -0.2535(4) 0.1215(4) 0.3805(3) 0.0179(6) Uani 1 1 d . .
C14 C 0.3456(4) 0.5766(4) 0.9317(4) 0.0244(7) Uani 1 1 d . .
H14 H 0.4288 0.6812 0.9661 0.029 Uiso 1 1 calc R U
C2 C 0.5779(4) 0.1022(4) 0.3091(3) 0.0184(6) Uani 1 1 d . .
C5 C 0.3743(4) 0.0430(4) 0.0781(3) 0.0172(6) Uani 1 1 d . .
H5 H 0.2882 0.0713 0.1292 0.021 Uiso 1 1 calc R U
C8 C 0.1366(4) 0.3601(4) 0.9689(3) 0.0196(6) Uani 1 1 d . .
C13 C 0.2651(4) 0.5178(4) 1.0280(4) 0.0220(6) Uani 1 1 d . .
C4 C 0.5379(4) 0.0498(4) 0.1526(3) 0.0166(6) Uani 1 1 d . .
C7 C 0.0985(4) 0.2714(4) 0.8196(4) 0.0222(6) Uani 1 1 d . .
H7 H 0.0125 0.1686 0.7810 0.027 Uiso 1 1 calc R U
C9 C 0.0514(4) 0.2949(4) 1.0617(4) 0.0248(7) Uani 1 1 d . .
H9 H -0.0352 0.1926 1.0232 0.030 Uiso 1 1 calc R U
C11 C 0.2263(5) 0.5409(5) 1.2664(4) 0.0309(8) Uani 1 1 d . .
H11 H 0.2556 0.5993 1.3655 0.037 Uiso 1 1 calc R U
C10 C 0.0966(5) 0.3817(5) 1.2055(4) 0.0297(7) Uani 1 1 d . .
H10 H 0.0425 0.3370 1.2654 0.036 Uiso 1 1 calc R U
loop_
_atom_site_aniso_label
_atom_site_aniso_U_11
_atom_site_aniso_U_22
_atom_site_aniso_U_33
_atom_site_aniso_U_23
_atom_site_aniso_U_13
_atom_site_aniso_U_12
Cu1 0.0105(3) 0.0396(4) 0.0171(3) 0.0084(2) 0.0037(2) 0.0061(2)
N3 0.0123(12) 0.0304(13) 0.0181(12) 0.0069(10) 0.0046(10) 0.0053(10)
N2 0.0123(13) 0.0488(16) 0.0173(13) 0.0100(11) 0.0052(10) 0.0071(11)
N1 0.0124(13) 0.0376(14) 0.0148(12) 0.0051(10) 0.0043(9) 0.0047(10)
C15 0.0157(15) 0.0323(16) 0.0285(17) 0.0152(13) 0.0078(12) 0.0056(12)
C3 0.0128(15) 0.0326(15) 0.0142(13) 0.0076(11) -0.0006(11) 0.0020(11)
C6 0.0074(12) 0.0246(13) 0.0183(14) 0.0073(11) 0.0025(11) 0.0019(10)
C12 0.0225(17) 0.0325(16) 0.0248(17) 0.0017(13) 0.0018(13) 0.0077(13)
C1 0.0129(15) 0.0262(14) 0.0122(13) 0.0039(10) 0.0047(11) 0.0033(10)
C14 0.0156(15) 0.0235(14) 0.0305(18) 0.0075(12) 0.0030(13) 0.0012(11)
C2 0.0096(13) 0.0278(14) 0.0170(14) 0.0068(11) 0.0050(11) 0.0031(10)
C5 0.0096(13) 0.0237(13) 0.0183(14) 0.0070(11) 0.0054(10) 0.0032(10)
C8 0.0139(14) 0.0242(14) 0.0216(15) 0.0082(11) 0.0045(11) 0.0059(11)
C13 0.0155(15) 0.0258(14) 0.0254(16) 0.0078(12) 0.0059(12) 0.0081(12)
C4 0.0090(13) 0.0219(12) 0.0173(14) 0.0073(10) 0.0018(10) 0.0001(10)
C7 0.0148(14) 0.0256(14) 0.0256(16) 0.0086(12) 0.0057(11) 0.0037(11)
C9 0.0211(16) 0.0311(15) 0.0272(16) 0.0134(13) 0.0109(13) 0.0084(12)
C11 0.0291(18) 0.0454(19) 0.0164(15) 0.0052(13) 0.0067(13) 0.0155(15)
C10 0.0293(18) 0.0427(18) 0.0257(17) 0.0166(14) 0.0127(14) 0.0166(15)
loop_
_atom_type_symbol
_atom_type_description
_atom_type_scat_dispersion_real
_atom_type_scat_dispersion_imag
_atom_type_scat_source
C C 0.0181 0.0091 'International Tables Vol C Tables 4.2.6.8 and 6.1.1.4'
H H 0.0000 0.0000 'International Tables Vol C Tables 4.2.6.8 and 6.1.1.4'
N N 0.0311 0.0180 'International Tables Vol C Tables 4.2.6.8 and 6.1.1.4'
Cu Cu -1.9646 0.5888 'International Tables Vol C Tables 4.2.6.8 and 6.1.1.4'
loop_
_geom_angle_atom_site_label_1
_geom_angle_atom_site_label_2
_geom_angle_atom_site_label_3
_geom_angle
_geom_angle_site_symmetry_1
_geom_angle_site_symmetry_3
N2 Cu1 N1 131.69(11) . .
N2 Cu1 N3 114.52(11) . .
N1 Cu1 N3 112.90(11) . .
C7 N3 C15 117.2(3) . .
C7 N3 Cu1 121.7(2) . .
C15 N3 Cu1 121.0(2) . .
C3 N2 Cu1 177.3(3) . .
C1 N1 Cu1 172.7(3) . .
C14 C15 N3 123.3(3) . .
N2 C3 C2 174.1(3) . .
C5 C6 C4 121.5(3) 2_655 .
C11 C12 C13 119.8(3) . .
N1 C1 C2 175.0(3) . 1_455
C15 C14 C13 119.9(3) . .
C3 C2 C1 120.4(3) . 1_655
C3 C2 C4 119.6(3) . .
C1 C2 C4 120.0(3) 1_655 .
C6 C5 C4 121.8(3) 2_655 .
C7 C8 C13 118.3(3) . .
C7 C8 C9 122.1(3) . .
C13 C8 C9 119.6(3) . .
C14 C13 C8 117.4(3) . .
C14 C13 C12 123.3(3) . .
C8 C13 C12 119.3(3) . .
C5 C4 C6 116.7(3) . .
C5 C4 C2 121.8(3) . .
C6 C4 C2 121.5(3) . .
N3 C7 C8 123.9(3) . .
C10 C9 C8 120.0(3) . .
C12 C11 C10 120.3(3) . .
C9 C10 C11 120.9(3) . .
loop_
_geom_bond_atom_site_label_1
_geom_bond_atom_site_label_2
_geom_bond_distance
_geom_bond_site_symmetry_2
Cu1 N2 1.904(3) .
Cu1 N1 1.910(3) .
Cu1 N3 2.016(3) .
N3 C7 1.330(4) .
N3 C15 1.374(4) .
N2 C3 1.153(5) .
N1 C1 1.153(5) .
C15 C14 1.358(5) .
C3 C2 1.395(4) .
C6 C5 1.386(4) 2_655
C6 C4 1.408(4) .
C12 C11 1.375(5) .
C12 C13 1.422(5) .
C1 C2 1.396(4) 1_455
C14 C13 1.412(5) .
C2 C1 1.396(4) 1_655
C2 C4 1.465(4) .
C5 C6 1.386(4) 2_655
C5 C4 1.399(4) .
C8 C7 1.402(5) .
C8 C13 1.413(4) .
C8 C9 1.427(4) .
C9 C10 1.352(5) .
C11 C10 1.426(6) .
