#------------------------------------------------------------------------------
#$Date: 2022-09-21 18:44:46 +0300 (Wed, 21 Sep 2022) $
#$Revision: 278046 $
#$URL: file:///home/coder/svn-repositories/cod/cif/4/51/38/4513815.cif $
#------------------------------------------------------------------------------
#
# This file is available in the Crystallography Open Database (COD),
# http://www.crystallography.net/
#
# All data on this site have been placed in the public domain by the
# contributors.
#
data_4513815
loop_
_publ_author_name
'Singh, Manish K.'
'Akula, Hari K.'
'Satishkumar, Sakilam'
'Stahl, Lothar'
'Lakshman, Mahesh K.'
_publ_section_title
;
 Ruthenium-Catalyzed C-H Bond Activation Approach to Azolyl Aminals and
 Hemiaminal Ethers, Mechanistic Evaluations, and Isomer Interconversion.
;
_journal_issue                   3
_journal_name_full               'ACS catalysis'
_journal_page_first              1921
_journal_page_last               1928
_journal_paper_doi               10.1021/acscatal.5b02603
_journal_volume                  6
_journal_year                    2016
_chemical_absolute_configuration unk
_chemical_formula_moiety         'C17 H17 N3 O'
_chemical_formula_sum            'C17 H17 N3 O'
_chemical_formula_weight         279.34
_space_group_crystal_system      monoclinic
_space_group_IT_number           4
_space_group_name_Hall           'P 2yb'
_space_group_name_H-M_alt        'P 1 21 1'
_symmetry_Int_Tables_number      4
_symmetry_space_group_name_Hall  'P 2yb'
_symmetry_space_group_name_H-M   'P 1 21 1'
_atom_sites_solution_primary     direct
_audit_creation_date             2015-04-13
_audit_creation_method
;
Olex2 1.2
(compiled 2015.01.26 svn.r3150 for OlexSys, GUI svn.r4998)
;
_cell_angle_alpha                90
_cell_angle_beta                 96.8229(7)
_cell_angle_gamma                90
_cell_formula_units_Z            2
_cell_length_a                   8.6937(1)
_cell_length_b                   8.2505(1)
_cell_length_c                   9.8923(2)
_cell_measurement_reflns_used    9900
_cell_measurement_theta_max      41.42
_cell_measurement_theta_min      2.36
_cell_volume                     704.524(19)
_computing_molecular_graphics    'Olex2 (Dolomanov et al., 2009)'
_computing_publication_material  'Olex2 (Dolomanov et al., 2009)'
_computing_structure_refinement  'olex2.refine (Bourhis et al., 2015)'
_computing_structure_solution    'XS (Sheldrick, 2008)'
_diffrn_ambient_temperature      99.98
_diffrn_measured_fraction_theta_full 0.8713
_diffrn_measured_fraction_theta_max 0.8355
_diffrn_measurement_device_type  'Bruker APEX-II CCD'
_diffrn_measurement_method       '\f and \w scans'
_diffrn_radiation_type           'Mo K\a'
_diffrn_radiation_wavelength     0.71073
_diffrn_reflns_av_R_equivalents  0.0152
_diffrn_reflns_av_unetI/netI     0.0197
_diffrn_reflns_limit_h_max       14
_diffrn_reflns_limit_h_min       -15
_diffrn_reflns_limit_k_max       14
_diffrn_reflns_limit_k_min       -14
_diffrn_reflns_limit_l_max       17
_diffrn_reflns_limit_l_min       -15
_diffrn_reflns_number            15586
_diffrn_reflns_theta_full        26.0000
_diffrn_reflns_theta_max         39.39
_diffrn_reflns_theta_min         2.36
_diffrn_standards_number         0
_exptl_absorpt_coefficient_mu    0.084
_exptl_absorpt_correction_type   multi-scan
_exptl_crystal_colour            colourless
_exptl_crystal_density_diffrn    1.3167
_exptl_crystal_description       block
_exptl_crystal_F_000             296.1178
_exptl_crystal_size_max          0.8
_exptl_crystal_size_mid          0.73
_exptl_crystal_size_min          0.6
_refine_diff_density_max         0.4054
_refine_diff_density_min         -0.2101
_refine_diff_density_rms         0.0454
_refine_ls_abs_structure_details
'Flack, H. D. (1983). Acta Cryst. A39, 876-881.'
_refine_ls_abs_structure_Flack   -0.6(3)
_refine_ls_d_res_high            0.5600
_refine_ls_d_res_low             8.6321
_refine_ls_goodness_of_fit_ref   1.0952
_refine_ls_hydrogen_treatment    constr
_refine_ls_matrix_type           full
_refine_ls_number_constraints    28
_refine_ls_number_parameters     191
_refine_ls_number_reflns         7015
_refine_ls_number_restraints     0
_refine_ls_restrained_S_all      1.0952
_refine_ls_R_factor_all          0.0346
_refine_ls_R_factor_gt           0.0324
_refine_ls_shift/su_max          0.0008
_refine_ls_shift/su_mean         0.0002
_refine_ls_structure_factor_coef Fsqd
_refine_ls_weighting_details
'w=1/[\s^2^(Fo^2^)+(0.0598P)^2^+0.0208P] where P=(Fo^2^+2Fc^2^)/3'
_refine_ls_weighting_scheme      calc
_refine_ls_wR_factor_gt          0.0887
_refine_ls_wR_factor_ref         0.0913
_reflns_Friedel_coverage         0.670
_reflns_limit_h_max              15
_reflns_limit_h_min              -15
_reflns_limit_k_max              14
_reflns_limit_k_min              -14
_reflns_limit_l_max              17
_reflns_limit_l_min              -17
_reflns_number_gt                6714
_reflns_number_total             7015
_reflns_threshold_expression     I>=2u(I)
_iucr_refine_instructions_details
;
TITL ML415n in P2(1)
CELL 0.71073 8.6937 8.2505 9.8923 90 96.8229 90
ZERR 2 0.0001 0.0001 0.0002 0 0.0007 0
LATT -1
SYMM -X,0.5+Y,-Z
SFAC C H O N
UNIT 34 34 2 6

L.S. 16
PLAN  20
TEMP -173.17
BOND 
FMAP 2
MORE -1
BOND $H
ACTA 52
CONF 
WGHT 0.059804 0.020758
FVAR 0.446681
REM <olex2.extras>
REM <HklSrc "%.\\ML415n.hkl">
REM </olex2.extras>

O1    3     0.14716  0.52497  0.08214  11.00000  0.01639  0.01663  0.01905 =
 0.00174  0.00629 -0.00037 
N1    4     0.10935  0.80537  0.11419  11.00000  0.01052  0.01663  0.01415 =
 -0.00335  0.00414 -0.00196 
N2    4     0.23110  0.90983  0.13741  11.00000  0.01408  0.02320  0.02189 =
 -0.00683  0.00579 -0.00607 
N3    4     0.20997  1.00278  0.24040  11.00000  0.01564  0.02393  0.02173 =
 -0.00763  0.00474 -0.00621 
C1    1     0.31122  0.51231  0.12327  11.00000  0.01914  0.02423  0.01480 =
 0.00296  0.00289  0.00477 
AFIX 23
H1a   2     0.34701  0.60808  0.17858  11.00000 -1.20000 
H1b   2     0.33274  0.41445  0.18029  11.00000 -1.20000 
AFIX 0
C2    1     0.39897  0.50209 -0.00007  11.00000  0.01439  0.01978  0.01662 =
 0.00255  0.00277  0.00459 
AFIX 23
H2a   2     0.51113  0.51608  0.02899  11.00000 -1.20000 
H2b   2     0.38330  0.39361 -0.04224  11.00000 -1.20000 
AFIX 0
C3    1     0.34486  0.63040 -0.10357  11.00000  0.01116  0.01465  0.01340 =
 -0.00056  0.00333  0.00100 
C4    1     0.43179  0.66717 -0.21021  11.00000  0.01394  0.01769  0.01713 =
 -0.00115  0.00685  0.00081 
AFIX 43
H4    2     0.52780  0.61389 -0.21535  11.00000 -1.20000 
AFIX 0
C5    1     0.37876  0.78077 -0.30837  11.00000  0.02059  0.01821  0.01618 =
 -0.00018  0.00778 -0.00199 
AFIX 43
H5    2     0.43911  0.80582 -0.37961  11.00000 -1.20000 
AFIX 0
C6    1     0.23709  0.85817 -0.30261  11.00000  0.02255  0.01677  0.01601 =
 0.00247  0.00350  0.00097 
AFIX 43
H6    2     0.19968  0.93393 -0.37105  11.00000 -1.20000 
AFIX 0
C7    1     0.15075  0.82416 -0.19641  11.00000  0.01550  0.01650  0.01626 =
 0.00097  0.00304  0.00324 
AFIX 43
H7    2     0.05488  0.87781 -0.19152  11.00000 -1.20000 
AFIX 0
C8    1     0.20498  0.71111 -0.09692  11.00000  0.01079  0.01460  0.01228 =
 -0.00084  0.00303  0.00069 
C9    1     0.10650  0.67220  0.01489  11.00000  0.01093  0.01558  0.01345 =
 -0.00202  0.00353 -0.00051 
AFIX 13
H9    2    -0.00281  0.66103 -0.02867  11.00000 -1.20000 
AFIX 0
C10   1     0.00730  0.83116  0.20687  11.00000  0.01043  0.01393  0.01136 =
 -0.00077  0.00232  0.00011 
C11   1     0.07304  0.95791  0.28780  11.00000  0.01321  0.01626  0.01292 =
 -0.00246  0.00191 -0.00118 
C12   1     0.00006  1.01722  0.39708  11.00000  0.01830  0.01856  0.01199 =
 -0.00343  0.00117  0.00029 
AFIX 43
H12   2     0.04428  1.10381  0.45189  11.00000 -1.20000 
AFIX 0
C13   1    -0.13723  0.94679  0.42287  11.00000  0.01844  0.01799  0.01101 =
 -0.00018  0.00383  0.00297 
C14   1    -0.20652  0.82016  0.33639  11.00000  0.01442  0.01577  0.01446 =
 0.00104  0.00525  0.00137 
C15   1    -0.13452  0.76102  0.22873  11.00000  0.01246  0.01373  0.01446 =
 -0.00090  0.00388 -0.00020 
AFIX 43
H15   2    -0.17948  0.67638  0.17207  11.00000 -1.20000 
AFIX 0
C16   1    -0.21381  1.00013  0.54420  11.00000  0.02983  0.02990  0.01475 =
 -0.00348  0.00933  0.00394 
AFIX 137
H16a  2    -0.21476  0.90982  0.60845  11.00000 -1.50000 
H16b  2    -0.15608  1.09124  0.58898  11.00000 -1.50000 
H16c  2    -0.32043  1.03403  0.51413  11.00000 -1.50000 
AFIX 0
C17   1    -0.36131  0.75203  0.36252  11.00000  0.01853  0.02350  0.02889 =
 -0.00138  0.01300 -0.00139 
AFIX 137
H17a  2    -0.39205  0.66607  0.29642  11.00000 -1.50000 
H17b  2    -0.35324  0.70733  0.45488  11.00000 -1.50000 
H17c  2    -0.43920  0.83844  0.35324  11.00000 -1.50000 
AFIX 0

Q1    1    -0.17400  0.79260  0.27670  11.00000  0.05000  0.530

Q2    1     0.27150  0.66870 -0.09860  11.00000  0.05000  0.470

Q3    1     0.39090  0.64870 -0.15430  11.00000  0.05000  0.470

Q4    1    -0.06090  0.80340  0.21400  11.00000  0.05000  0.450

Q5    1     0.18050  0.77440 -0.14150  11.00000  0.05000  0.430

Q6    1     0.18560  0.84130 -0.25480  11.00000  0.05000  0.430

Q7    1     0.05750  0.82020  0.15500  11.00000  0.05000  0.430

Q8    1     0.03940  0.90000  0.24850  11.00000  0.05000  0.430

Q10   1     0.40920  0.72590 -0.26110  11.00000  0.05000  0.400

Q13   1    -0.17430  0.88930  0.38180  11.00000  0.05000  0.400

Q15   1    -0.07520  0.99090  0.40850  11.00000  0.05000  0.390

Q17   1     0.03860  0.99040  0.34470  11.00000  0.05000  0.390

Q18   1     0.30860  0.82080 -0.30840  11.00000  0.05000  0.380

Q20   1     0.35960  0.51360  0.06850  11.00000  0.05000  0.360

Q23   1    -0.28490  0.78900  0.34640  11.00000  0.05000  0.340

Q28   1     0.13610  0.97660  0.26280  11.00000  0.05000  0.340

Q29   1    -0.17400  0.97180  0.48050  11.00000  0.05000  0.330

Q32   1     0.15960  0.69480 -0.03940  11.00000  0.05000  0.320

Q35   1     0.36810  0.55970 -0.06140  11.00000  0.05000  0.310

Q36   1     0.22240  0.95930  0.18600  11.00000  0.05000  0.310

Q9    1    -0.17500  0.77500  0.28889  11.00000  0.06000  0.410

Q12   1     0.27500  0.67500 -0.08889  11.00000  0.06000  0.400

Q16   1     0.40000  0.65000 -0.15556  11.00000  0.06000  0.390

Q22   1    -0.05000  0.80000  0.22222  11.00000  0.06000  0.350

Q25   1     0.20000  0.85000 -0.24444  11.00000  0.06000  0.340

Q24   1     0.05000  0.82500  0.15556  11.00000  0.06000  0.340

Q31   1     0.17500  0.77500 -0.13333  11.00000  0.06000  0.330

Q34   1    -0.07500  0.97500  0.40000  11.00000  0.06000  0.320

Q40   1     0.05000  0.90000  0.24444  11.00000  0.06000  0.310

Q38   1     0.30000  0.82500 -0.31111  11.00000  0.06000  0.310

Q39   1    -0.17500  0.87500  0.37778  11.00000  0.06000  0.310

Q44   1     0.40000  0.72500 -0.26667  11.00000  0.06000  0.300

Q46   1     0.35000  0.50000  0.06667  11.00000  0.06000  0.280

Q48   1    -0.17500  0.97500  0.48889  11.00000  0.06000  0.270

Q49   1     0.05000  0.97500  0.33333  11.00000  0.06000  0.270

Q52   1     0.22500  0.95000  0.20000  11.00000  0.06000  0.260

Q54   1     0.37500  0.55000 -0.06667  11.00000  0.06000  0.250

Q55   1     0.15000  0.70000 -0.04444  11.00000  0.06000  0.250

Q56   1    -0.27500  0.80000  0.35556  11.00000  0.06000  0.250

Q60   1     0.15000  0.97500  0.26667  11.00000  0.06000  0.240
HKLF 4

END

REM The information below was added by Olex2.
REM
REM R1 = 0.0324 for 6714 Fo > 4sig(Fo) and 0.0346 for all 7015 data
REM 191 parameters refined using 0 restraints
REM Highest difference peak 0.4054, deepest hole -0.2101
REM Mean Shift 0.0002, Max Shift 0.0008.

REM +++ Tabular Listing of Refinement Information +++
REM R1_all = 0.0346
REM R1_gt = 0.0324
REM wR_ref = 0.0913
REM GOOF = 1.0952
REM Shift_max = 0.0008
REM Shift_mean = 0.0002
REM Reflections_all = 7015
REM Reflections_gt = 6714
REM Parameters = 191
REM Hole = -0.2101
REM Peak = 0.4054
REM Flack = -0.6(3)

;
_cod_data_source_file            cs5b02603_si_002.cif
_cod_data_source_block           ML415n
_cod_depositor_comments
;Adding full bibliography for 4513815.cif.

 Adding full bibliography for 4513815.cif.
;
_cod_original_sg_symbol_Hall     ' P 2yb'
_cod_database_code               4513815
_olex2_refinement_description
;
1. Fixed Uiso
 At 1.2 times of:
  All C(H) groups, All C(H,H) groups
 At 1.5 times of:
  All C(H,H,H) groups
2.a Ternary CH refined with riding coordinates:
 C9(H9)
2.b Secondary CH2 refined with riding coordinates:
 C1(H1a,H1b), C2(H2a,H2b)
2.c Aromatic/amide H refined with riding coordinates:
 C4(H4), C5(H5), C6(H6), C7(H7), C12(H12), C15(H15)
2.d Idealised Me refined as rotating group:
 C16(H16a,H16b,H16c), C17(H17a,H17b,H17c)
;
_olex2_submission_special_instructions 'No special instructions were received'
loop_
_space_group_symop_id
_space_group_symop_operation_xyz
1 x,y,z
2 -x,y+1/2,-z
loop_
_atom_site_label
_atom_site_type_symbol
_atom_site_fract_x
_atom_site_fract_y
_atom_site_fract_z
_atom_site_U_iso_or_equiv
_atom_site_adp_type
_atom_site_occupancy
_atom_site_refinement_flags_posn
O1 O 0.14716(6) 0.52497(6) 0.08214(5) 0.01702(8) Uani 1.000000 .
N1 N 0.10935(6) 0.80537(6) 0.11419(5) 0.01355(8) Uani 1.000000 .
N2 N 0.23110(7) 0.90983(8) 0.13741(6) 0.01943(10) Uani 1.000000 .
N3 N 0.20997(7) 1.00278(8) 0.24040(6) 0.02023(10) Uani 1.000000 .
C1 C 0.31122(8) 0.51231(9) 0.12327(6) 0.01932(11) Uani 1.000000 .
H1a H 0.34701(8) 0.60808(9) 0.17858(6) 0.02319(13) Uiso 1.000000 R
H1b H 0.33274(8) 0.41445(9) 0.18029(6) 0.02319(13) Uiso 1.000000 R
C2 C 0.39897(7) 0.50209(8) -0.00007(6) 0.01685(10) Uani 1.000000 .
H2a H 0.51113(7) 0.51608(8) 0.02899(6) 0.02023(12) Uiso 1.000000 R
H2b H 0.38330(7) 0.39361(8) -0.04224(6) 0.02023(12) Uiso 1.000000 R
C3 C 0.34486(7) 0.63040(7) -0.10357(6) 0.01292(9) Uani 1.000000 .
C4 C 0.43179(7) 0.66717(8) -0.21021(6) 0.01585(10) Uani 1.000000 .
H4 H 0.52780(7) 0.61389(8) -0.21535(6) 0.01902(11) Uiso 1.000000 R
C5 C 0.37876(8) 0.78077(8) -0.30837(6) 0.01788(10) Uani 1.000000 .
H5 H 0.43911(8) 0.80582(8) -0.37961(6) 0.02145(12) Uiso 1.000000 R
C6 C 0.23709(8) 0.85817(8) -0.30261(7) 0.01835(11) Uani 1.000000 .
H6 H 0.19968(8) 0.93393(8) -0.37105(7) 0.02202(13) Uiso 1.000000 R
C7 C 0.15075(7) 0.82416(8) -0.19641(6) 0.01599(10) Uani 1.000000 .
H7 H 0.05488(7) 0.87781(8) -0.19152(6) 0.01919(12) Uiso 1.000000 R
C8 C 0.20498(7) 0.71111(7) -0.09692(5) 0.01242(8) Uani 1.000000 .
C9 C 0.10650(7) 0.67220(7) 0.01489(6) 0.01315(9) Uani 1.000000 .
H9 H -0.00281(7) 0.66103(7) -0.02867(6) 0.01578(10) Uiso 1.000000 R
C10 C 0.00730(6) 0.83116(7) 0.20687(5) 0.01182(8) Uani 1.000000 .
C11 C 0.07304(7) 0.95791(7) 0.28780(6) 0.01410(9) Uani 1.000000 .
C12 C 0.00006(8) 1.01722(8) 0.39708(6) 0.01633(10) Uani 1.000000 .
H12 H 0.04428(8) 1.10381(8) 0.45189(6) 0.01960(12) Uiso 1.000000 R
C13 C -0.13723(7) 0.94679(8) 0.42287(6) 0.01564(10) Uani 1.000000 .
C14 C -0.20652(7) 0.82016(7) 0.33639(6) 0.01460(9) Uani 1.000000 .
C15 C -0.13452(7) 0.76102(7) 0.22873(6) 0.01337(9) Uani 1.000000 .
H15 H -0.17948(7) 0.67638(7) 0.17207(6) 0.01604(10) Uiso 1.000000 R
C16 C -0.21381(10) 1.00013(10) 0.54420(7) 0.02429(13) Uani 1.000000 .
H16a H -0.2148(10) 0.9098(4) 0.6084(4) 0.0364(2) Uiso 1.000000 GR
H16b H -0.1561(6) 1.0912(7) 0.5890(6) 0.0364(2) Uiso 1.000000 GR
H16c H -0.3204(4) 1.0340(11) 0.51413(13) 0.0364(2) Uiso 1.000000 GR
C17 C -0.36131(9) 0.75203(10) 0.36252(8) 0.02282(12) Uani 1.000000 .
H17a H -0.3920(5) 0.6661(7) 0.2964(6) 0.03423(18) Uiso 1.000000 GR
H17b H -0.3532(3) 0.7073(10) 0.4549(3) 0.03423(18) Uiso 1.000000 GR
H17c H -0.4392(2) 0.8384(3) 0.3532(9) 0.03423(18) Uiso 1.000000 GR
loop_
_atom_site_aniso_label
_atom_site_aniso_U_11
_atom_site_aniso_U_22
_atom_site_aniso_U_33
_atom_site_aniso_U_12
_atom_site_aniso_U_13
_atom_site_aniso_U_23
O1 0.01639(18) 0.01663(18) 0.01905(18) -0.00037(15) 0.00629(14) 0.00174(15)
N1 0.01052(17) 0.0166(2) 0.01415(17) -0.00196(15) 0.00414(14) -0.00335(15)
N2 0.0141(2) 0.0232(2) 0.0219(2) -0.00607(18) 0.00579(17) -0.00683(19)
N3 0.0156(2) 0.0239(2) 0.0217(2) -0.00621(19) 0.00474(17) -0.00763(19)
C1 0.0191(2) 0.0242(3) 0.0148(2) 0.0048(2) 0.00289(18) 0.0030(2)
C2 0.0144(2) 0.0198(2) 0.0166(2) 0.00459(19) 0.00277(17) 0.00255(18)
C3 0.0112(2) 0.0147(2) 0.01340(19) 0.00100(17) 0.00333(15) -0.00056(16)
C4 0.0139(2) 0.0177(2) 0.0171(2) 0.00081(18) 0.00685(17) -0.00115(18)
C5 0.0206(3) 0.0182(2) 0.0162(2) -0.0020(2) 0.00778(19) -0.00018(18)
C6 0.0226(3) 0.0168(2) 0.0160(2) 0.0010(2) 0.00350(19) 0.00247(17)
C7 0.0155(2) 0.0165(2) 0.0163(2) 0.00324(18) 0.00304(16) 0.00097(18)
C8 0.01079(18) 0.0146(2) 0.01228(18) 0.00069(16) 0.00303(15) -0.00084(16)
C9 0.01093(19) 0.0156(2) 0.01345(19) -0.00051(16) 0.00353(15) -0.00202(16)
C10 0.01043(19) 0.01393(19) 0.01136(17) 0.00011(16) 0.00232(14) -0.00077(15)
C11 0.0132(2) 0.0163(2) 0.01292(19) -0.00118(18) 0.00191(15) -0.00246(17)
C12 0.0183(2) 0.0186(2) 0.01199(19) 0.0003(2) 0.00117(16) -0.00343(17)
C13 0.0184(2) 0.0180(2) 0.01101(18) 0.00297(19) 0.00383(16) -0.00018(16)
C14 0.0144(2) 0.0158(2) 0.01446(19) 0.00137(18) 0.00525(16) 0.00104(17)
C15 0.0125(2) 0.0137(2) 0.0145(2) -0.00020(17) 0.00388(15) -0.00090(16)
C16 0.0298(3) 0.0299(3) 0.0147(2) 0.0039(3) 0.0093(2) -0.0035(2)
C17 0.0185(3) 0.0235(3) 0.0289(3) -0.0014(2) 0.0130(2) -0.0014(2)
loop_
_atom_type_symbol
_atom_type_scat_dispersion_real
_atom_type_scat_dispersion_imag
_atom_type_scat_Cromer_Mann_a1
_atom_type_scat_Cromer_Mann_a2
_atom_type_scat_Cromer_Mann_a3
_atom_type_scat_Cromer_Mann_a4
_atom_type_scat_Cromer_Mann_b1
_atom_type_scat_Cromer_Mann_b2
_atom_type_scat_Cromer_Mann_b3
_atom_type_scat_Cromer_Mann_b4
_atom_type_scat_Cromer_Mann_c
_atom_type_scat_source
_atom_type_scat_dispersion_source
H 0.00000 0.00000 0.49300 0.32291 0.14019 0.04081 10.51090 26.12570 3.14236
57.79970 0.0030380000826
'International Tables Volume C Table 6.1.1.4 (pp. 500-502)'
'Henke, Gullikson and Davis, At. Data and Nucl. Data Tables, 1993, 54, 2'
C 0.00347 0.00161 2.31000 1.02000 1.58860 0.86500 20.84390 10.20750 0.56870
51.65120 0.215599998832
'International Tables Volume C Table 6.1.1.4 (pp. 500-502)'
'Henke, Gullikson and Davis, At. Data and Nucl. Data Tables, 1993, 54, 2'
O 0.01158 0.00611 3.04850 2.28680 1.54630 0.86700 13.27710 5.70110 0.32390
32.90890 0.250800013542
'International Tables Volume C Table 6.1.1.4 (pp. 500-502)'
'Henke, Gullikson and Davis, At. Data and Nucl. Data Tables, 1993, 54, 2'
N 0.00653 0.00323 12.21260 3.13220 2.01250 1.16630 0.00570 9.89330 28.99750
0.58260 -11.5290002823
'International Tables Volume C Table 6.1.1.4 (pp. 500-502)'
'Henke, Gullikson and Davis, At. Data and Nucl. Data Tables, 1993, 54, 2'
loop_
_geom_angle_atom_site_label_1
_geom_angle_atom_site_label_2
_geom_angle_atom_site_label_3
_geom_angle
C9 O1 C1 112.35(5)
C9 N1 N2 122.38(5)
C10 N1 N2 109.97(5)
C10 N1 C9 127.11(5)
N3 N2 N1 108.94(5)
C11 N3 N2 108.32(5)
C2 C1 O1 110.67(5)
C3 C2 C1 111.15(5)
C4 C3 C2 120.66(5)
C8 C3 C2 120.42(5)
C8 C3 C4 118.89(5)
C5 C4 C3 120.56(6)
C6 C5 C4 120.14(6)
C7 C6 C5 119.81(6)
C8 C7 C6 119.99(6)
C7 C8 C3 120.59(5)
C9 C8 C3 120.39(5)
C9 C8 C7 118.97(5)
N1 C9 O1 110.17(5)
C8 C9 O1 113.35(5)
C8 C9 N1 111.33(5)
C11 C10 N1 104.30(5)
C15 C10 N1 133.82(5)
C15 C10 C11 121.87(5)
C10 C11 N3 108.46(5)
C12 C11 N3 130.86(6)
C12 C11 C10 120.68(6)
C13 C12 C11 118.41(5)
C14 C13 C12 120.50(5)
C16 C13 C12 119.93(6)
C16 C13 C14 119.56(6)
C15 C14 C13 121.18(6)
C17 C14 C13 119.23(6)
C17 C14 C15 119.59(6)
C14 C15 C10 117.31(5)
loop_
_geom_bond_atom_site_label_1
_geom_bond_atom_site_label_2
_geom_bond_distance
O1 C1 1.4397(8)
O1 C9 1.4096(8)
N1 N2 1.3631(7)
N1 C9 1.4720(8)
N1 C10 1.3662(8)
N2 N3 1.3055(8)
N3 C11 1.3808(9)
C1 C2 1.5162(9)
C2 C3 1.5086(8)
C3 C4 1.4020(9)
C3 C8 1.3948(8)
C4 C5 1.3884(9)
C5 C6 1.3945(10)
C6 C7 1.3904(9)
C7 C8 1.3966(8)
C8 C9 1.5115(8)
C10 C11 1.3973(8)
C10 C15 1.4018(8)
C11 C12 1.4048(9)
C12 C13 1.3783(9)
C13 C14 1.4366(9)
C13 C16 1.5057(9)
C14 C15 1.3866(8)
C14 C17 1.5088(10)
loop_
_refln_index_h
_refln_index_k
_refln_index_l
_refln_F_squared_meas
_refln_F_squared_sigma
-1 0 0 333.51 3.02
-2 0 0 265.67 2.56
-3 0 0 106.65 1.02
-4 0 0 118.94 1.17
-5 0 0 129.27 1.3
-6 0 0 7.73 0.22
-6 0 0 7.62 0.19
-7 0 0 1.78 0.11
7 0 0 1.89 0.13
-7 0 0 1.81 0.12
-7 0 0 1.82 0.13
-8 0 0 29.76 0.5
8 0 0 29.11 0.53
-8 0 0 29.28 0.53
-8 0 0 29.07 0.47
9 0 0 57.98 0.86
-9 0 0 58.95 0.83
10 0 0 4.77 0.23
-10 0 0 5.14 0.23
-11 0 0 5.06 0.25
-12 0 0 2.26 0.21
-13 0 0 4.33 0.28
-14 0 0 16.23 0.5
-15 0 0 2.13 0.23
0 1 0 -0.09 0.01
1 1 0 386.54 3.58
-1 1 0 404.52 3.59
-2 1 0 85.51 0.8
2 1 0 86.74 0.81
-3 1 0 77.21 0.78
3 1 0 79.11 0.79
4 1 0 5.62 0.15
-4 1 0 5.46 0.15
-5 1 0 144.75 1.45
5 1 0 147.31 1.45
-5 1 0 147.38 1.43
-6 -1 0 31.53 0.43
-6 1 0 30.09 0.48
6 1 0 31.03 0.48
-6 1 0 30.97 0.45
-7 -1 0 11.3 0.27
-7 1 0 11.45 0.3
-7 1 0 11.4 0.28
7 1 0 11.73 0.29
-7 1 0 11.63 0.27
-8 -1 0 15.26 0.34
-8 1 0 15.45 0.35
-8 1 0 14.44 0.36
-8 1 0 15.17 0.34
8 1 0 14.85 0.36
-9 -1 0 0.49 0.09
9 -1 0 0.51 0.1
-9 1 0 0.55 0.1
-9 1 0 0.62 0.11
9 1 0 0.62 0.1
-9 1 0 0.47 0.08
-10 -1 0 6.72 0.26
10 -1 0 6.43 0.28
-10 1 0 6.71 0.27
-10 1 0 7.01 0.29
10 1 0 6.99 0.28
-11 -1 0 0.48 0.11
-11 1 0 0.17 0.09
-12 -1 0 2 0.19
-12 1 0 1.97 0.2
-13 -1 0 3.67 0.25
-13 1 0 3.67 0.27
-14 -1 0 4.45 0.29
-14 1 0 4.71 0.32
-15 -1 0 0.03 0.1
-15 1 0 -0.05 0.1
0 2 0 159.42 1.57
-1 -2 0 177.71 1.9
-1 2 0 183.89 1.77
1 2 0 180.13 1.66
2 2 0 67.5 0.68
2 2 0 69.28 0.71
-2 2 0 69.82 0.67
-3 2 0 28.39 0.36
3 2 0 28.36 0.37
4 2 0 94.53 0.97
-4 2 0 93.85 0.97
5 2 0 9.44 0.22
-5 2 0 9.6 0.22
-6 2 0 7.79 0.21
-6 2 0 7.31 0.22
6 2 0 7.69 0.22
-7 -2 0 1.29 0.1
7 2 0 1.33 0.11
-7 2 0 1.25 0.11
-7 2 0 1.02 0.1
-7 2 0 1.49 0.12
-8 -2 0 20.12 0.4
8 -2 0 20.03 0.36
-8 2 0 20.03 0.42
-8 2 0 19.95 0.4
-8 2 0 20.57 0.44
8 2 0 20.03 0.42
-9 -2 0 1.83 0.14
9 2 0 1.91 0.15
-9 2 0 1.99 0.15
-9 2 0 1.89 0.15
-9 2 0 1.78 0.15
-10 -2 0 0.23 0.08
-10 2 0 0.29 0.09
-10 2 0 0.27 0.09
-10 2 0 0.19 0.07
10 2 0 0.39 0.09
-11 -2 0 11.72 0.36
-11 2 0 12.24 0.39
-12 -2 0 4.33 0.25
-12 2 0 4.46 0.27
-13 -2 0 23.91 0.58
-13 2 0 23.79 0.61
-14 -2 0 0.3 0.11
-14 2 0 0.42 0.15
-15 -2 0 1.57 0.19
-15 2 0 1.75 0.23
1 3 0 120.49 1.11
-1 3 0 122.2 1.1
-2 3 0 4.88 0.11
2 3 0 4.82 0.12
-3 3 0 11.55 0.21
3 3 0 11.85 0.25
4 3 0 7.89 0.19
-4 3 0 7.78 0.19
4 3 0 8.04 0.21
-5 3 0 32.59 0.48
-5 3 0 32.01 0.47
5 3 0 32.31 0.47
-6 -3 0 17.58 0.32
6 3 0 17.28 0.34
-6 3 0 17.16 0.35
-6 3 0 17.8 0.34
-6 3 0 16.9 0.34
-7 -3 0 4.43 0.17
7 -3 0 4.41 0.16
-7 3 0 4.56 0.18
7 3 0 4.42 0.19
-7 3 0 4.33 0.19
-7 3 0 4.19 0.18
-8 -3 0 41.98 0.62
8 -3 0 41.8 0.6
-8 3 0 42.46 0.69
-8 3 0 42.55 0.65
8 3 0 42.26 0.66
-8 3 0 41.61 0.66
9 -3 0 24.8 0.46
-9 -3 0 25.02 0.48
-9 3 0 24.82 0.51
9 3 0 24.64 0.51
-9 3 0 24.32 0.5
-9 3 0 25.77 0.54
-10 -3 0 0.91 0.12
-10 3 0 0.71 0.12
-10 3 0 0.85 0.12
-10 3 0 0.83 0.21
-11 -3 0 10.43 0.34
-11 3 0 11.71 0.39
-12 -3 0 17.44 0.46
-12 3 0 17.55 0.5
-13 -3 0 6.18 0.3
-13 3 0 5.35 0.32
-14 -3 0 5.73 0.3
-14 3 0 5.84 0.35
-15 -3 0 1.68 0.2
-15 3 0 2.58 0.27
0 4 0 191.33 1.7
-1 4 0 22.06 0.28
1 4 0 21.77 0.29
-2 4 0 5.05 0.12
2 4 0 4.78 0.13
-3 4 0 8.21 0.18
3 4 0 8.14 0.18
-3 4 0 8.32 0.13
-4 4 0 39.33 0.4
4 4 0 39.17 0.52
-4 4 0 39.18 0.52
4 4 0 38.71 0.6
-4 4 0 38.87 0.52
5 4 0 9.7 0.28
-5 4 0 9.48 0.24
-5 4 0 9.49 0.14
-5 4 0 10.41 0.25
5 4 0 9.09 0.23
-6 -4 0 38.34 0.52
-6 4 0 37.71 0.56
-6 4 0 38.06 0.58
-6 4 0 37.17 0.56
6 4 0 38.16 0.64
6 4 0 38.06 0.57
-7 -4 0 10.69 0.26
7 -4 0 11 0.28
7 4 0 10.58 0.29
-7 4 0 10.59 0.29
-7 4 0 11.15 0.3
-7 4 0 10.82 0.3
8 -4 0 10.92 0.29
-8 -4 0 10.97 0.28
-8 4 0 11.09 0.33
-8 4 0 10.76 0.31
8 4 0 11.49 0.32
-8 4 0 11.38 0.32
9 -4 0 2.86 0.17
-9 -4 0 3.03 0.17
9 4 0 3.26 0.19
-9 4 0 2.84 0.19
-9 4 0 2.93 0.19
-9 4 0 2.65 0.18
-10 -4 0 10.84 0.32
10 -4 0 10.83 0.32
-10 4 0 10.48 0.34
-10 4 0 10.82 0.36
-11 -4 0 2.01 0.17
-11 4 0 2.32 0.19
-11 4 0 1.98 0.2
-12 -4 0 10.36 0.35
-12 4 0 9.65 0.39
-13 -4 0 3.8 0.24
-13 4 0 3.64 0.29
-14 4 0 2.19 0.24
0 5 0 0.02 0.03
-1 -5 0 48.89 0.54
-1 -5 0 48.69 0.54
-1 5 0 49.04 0.55
1 5 0 49.65 0.56
-2 -5 0 1.51 0.07
-2 5 0 1.43 0.08
2 5 0 1.5 0.08
-2 5 0 1.51 0.06
-3 -5 0 26.8 0.32
-3 5 0 27.07 0.4
3 5 0 26.66 0.39
-3 5 0 25.89 0.38
-3 5 0 26.84 0.32
-4 -5 0 18.17 0.2
4 -5 0 18.18 0.33
-4 5 0 18.29 0.33
4 5 0 18.27 0.33
-4 5 0 18.04 0.33
-4 5 0 18.21 0.24
5 -5 0 19.78 0.36
5 5 0 19.85 0.37
-5 5 0 20.47 0.37
-5 5 0 19.43 0.37
5 5 0 19.54 0.33
-5 5 0 19.7 0.25
-5 5 0 20.32 0.38
6 -5 0 10.64 0.27
6 5 0 10.67 0.28
-6 5 0 10.9 0.29
-6 5 0 10.71 0.28
6 5 0 10.87 0.25
-6 5 0 10.17 0.28
7 -5 0 2.46 0.15
7 5 0 2.42 0.14
7 5 0 2.46 0.15
-7 5 0 2.66 0.16
-7 5 0 2.37 0.15
-7 5 0 2.43 0.15
8 -5 0 0.13 0.06
-8 5 0 0.09 0.06
-8 5 0 0.07 0.06
-8 5 0 0.03 0.06
8 5 0 0.02 0.05
9 -5 0 23.4 0.49
-9 5 0 24.03 0.52
-9 5 0 23.25 0.52
9 5 0 22.65 0.51
-9 5 0 23.88 0.54
10 -5 0 11.56 0.36
-10 5 0 11.58 0.38
-10 5 0 11.8 0.39
11 -5 0 1.29 0.16
-11 5 0 1.07 0.16
-11 5 0 1.52 0.18
-12 5 0 9.1 0.39
12 5 0 9.62 0.35
-13 5 0 0.35 0.14
13 5 0 0.28 0.12
14 5 0 -0.04 0.08
-14 5 0 0.06 0.11
0 -6 0 169.64 1.6
0 6 0 170.77 1.56
0 6 0 171.54 1.6
1 -6 0 17.53 0.29
-1 -6 0 17.33 0.28
-1 6 0 17.28 0.26
1 6 0 17.12 0.29
-1 6 0 17.35 0.28
2 -6 0 9.77 0.22
-2 -6 0 9.69 0.19
-2 6 0 9.66 0.18
2 6 0 9.41 0.22
-2 6 0 9.93 0.21
-3 -6 0 4.51 0.12
3 -6 0 4.34 0.16
3 6 0 4.46 0.16
-3 6 0 4.31 0.15
-3 6 0 4.19 0.11
-3 6 0 4.16 0.15
4 -6 0 42.67 0.59
-4 -6 0 42.61 0.43
-4 6 0 42.67 0.47
-4 6 0 41.52 0.58
4 6 0 42.08 0.58
-4 6 0 41.71 0.58
4 6 0 41.84 0.56
-4 6 0 43.23 0.57
5 -6 0 23.3 0.43
-5 6 0 23.75 0.3
-5 6 0 22.97 0.42
-5 6 0 24.11 0.43
5 6 0 24.76 0.43
-5 6 0 23.7 0.42
5 6 0 24.14 0.38
6 -6 0 0.85 0.1
-6 6 0 0.78 0.1
-6 6 0 0.7 0.05
-6 6 0 0.78 0.09
6 6 0 0.64 0.08
-6 6 0 0.8 0.1
6 6 0 0.71 0.09
7 -6 0 9.05 0.28
7 6 0 9.35 0.25
-7 6 0 9.58 0.3
7 6 0 9.54 0.29
-7 6 0 9.33 0.29
-7 6 0 9.82 0.29
8 -6 0 2.88 0.19
-8 6 0 3 0.19
-8 6 0 3.04 0.19
-8 6 0 3.01 0.19
8 6 0 3.26 0.17
8 6 0 3.45 0.19
9 -6 0 10.95 0.35
-9 6 0 10.71 0.36
9 6 0 10.77 0.31
-9 6 0 10.8 0.36
10 -6 0 20.77 0.49
-10 6 0 20.97 0.53
-10 6 0 20.02 0.5
10 6 0 20.77 0.46
11 -6 0 0.39 0.11
-11 6 0 0.53 0.14
-11 6 0 0.55 0.13
11 6 0 0.47 0.11
12 -6 0 2.09 0.21
12 6 0 1.42 0.17
-12 6 0 1.63 0.21
13 6 0 0.39 0.12
-13 6 0 0.43 0.15
-14 6 0 0.08 0.13
14 6 0 0.11 0.09
0 -7 0 -0.05 0.03
0 7 0 0.01 0.03
0 7 0 -0.04 0.03
1 -7 0 18.35 0.33
-1 -7 0 17.74 0.31
1 7 0 18.57 0.32
-1 7 0 17.76 0.31
2 -7 0 36.85 0.53
2 -7 0 36.98 0.52
-2 -7 0 36.96 0.47
-2 7 0 36.67 0.51
2 7 0 36.29 0.51
-2 7 0 37.18 0.45
-2 7 0 39.31 0.6
-3 -7 0 71.97 0.76
3 -7 0 73.95 0.88
-3 7 0 73.62 0.76
-3 7 0 73.49 0.86
3 7 0 72.44 0.86
-3 7 0 74.86 0.84
3 7 0 74.1 0.8
4 -7 0 7.52 0.23
-4 -7 0 7.56 0.14
-4 7 0 7.92 0.23
4 7 0 7.62 0.23
4 7 0 7.77 0.2
-4 7 0 7.62 0.17
-4 7 0 7.84 0.22
-4 7 0 7.6 0.22
5 -7 0 8.25 0.26
-5 7 0 8.28 0.25
-5 7 0 8.16 0.26
5 7 0 8.35 0.25
-5 7 0 8.25 0.24
5 7 0 8.71 0.22
-5 7 0 8.09 0.17
6 -7 0 18.71 0.41
-6 7 0 18.31 0.41
-6 7 0 17.86 0.4
6 7 0 18.81 0.36
-6 7 0 18.12 0.25
6 7 0 18.11 0.4
-6 7 0 18.74 0.4
7 -7 0 2.78 0.18
-7 7 0 2.86 0.18
-7 7 0 2.9 0.18
7 7 0 2.68 0.15
-7 7 0 2.85 0.18
7 7 0 2.73 0.17
8 -7 0 2.78 0.19
-8 7 0 2.61 0.19
8 7 0 2.57 0.16
-8 7 0 2.48 0.19
9 -7 0 0.66 0.13
-9 7 0 0.7 0.12
9 7 0 0.73 0.11
-9 7 0 0.8 0.14
10 -7 0 0.41 0.12
-10 7 0 0.37 0.12
-10 7 0 0.16 0.1
10 7 0 0.37 0.1
11 -7 0 0.36 0.12
11 7 0 0.46 0.11
-11 7 0 0.71 0.15
12 -7 0 0.22 0.12
12 7 0 0.18 0.11
-12 7 0 0.24 0.13
13 -7 0 1.23 0.18
13 7 0 1.06 0.22
-13 7 0 1.53 0.21
0 -8 0 13.13 0.28
0 8 0 13.44 0.28
-1 -8 0 20.37 0.35
1 -8 0 21.44 0.38
1 -8 0 20.7 0.37
-1 8 0 20.38 0.36
1 8 0 20.61 0.37
-1 8 0 20.68 0.33
2 -8 0 6.95 0.21
-2 -8 0 7.04 0.19
2 -8 0 7.21 0.22
-2 8 0 6.82 0.21
-2 8 0 6.85 0.18
2 8 0 7.1 0.21
-3 -8 0 15.8 0.27
3 -8 0 15.82 0.35
3 8 0 16.45 0.34
-3 8 0 15.13 0.34
-3 8 0 15.91 0.34
-3 8 0 15.88 0.27
4 -8 0 12.96 0.33
-4 -8 0 12.74 0.21
-4 8 0 12.92 0.24
4 8 0 13.17 0.31
-4 8 0 12.9 0.32
-4 8 0 12.49 0.3
5 -8 0 5.56 0.23
-5 8 0 5.22 0.15
-5 8 0 4.94 0.21
-5 8 0 5.64 0.22
5 8 0 5.16 0.21
6 -8 0 2.44 0.17
-6 8 0 2.36 0.16
6 8 0 2.15 0.16
-6 8 0 2.36 0.17
-6 8 0 2.13 0.09
-6 8 0 2.37 0.16
7 -8 0 7.78 0.29
-7 8 0 7.62 0.28
-7 8 0 7.78 0.29
8 -8 0 4 0.24
-8 8 0 3.62 0.23
-8 8 0 3.55 0.22
9 -8 0 1.09 0.15
-9 8 0 0.92 0.15
-9 8 0 0.96 0.15
10 -8 0 1.42 0.18
-10 8 0 1.14 0.18
-10 8 0 1.57 0.18
11 -8 0 1.3 0.18
-11 8 0 1.38 0.2
12 -8 0 0.13 0.11
-12 8 0 0.04 0.11
0 -9 0 -0.02 0.04
0 9 0 0.02 0.04
0 9 0 0.01 0.04
-1 -9 0 0.53 0.08
1 -9 0 0.41 0.08
1 9 0 0.44 0.07
-1 9 0 0.48 0.07
-1 9 0 0.53 0.08
2 -9 0 2.49 0.14
-2 -9 0 2.22 0.12
2 -9 0 2.3 0.15
-2 9 0 2.22 0.14
-2 9 0 2.1 0.12
2 9 0 2.34 0.14
3 -9 0 2 0.14
-3 -9 0 2.18 0.11
3 -9 0 2.17 0.16
-3 9 0 1.98 0.11
3 9 0 2.26 0.14
-3 9 0 2.16 0.14
-4 -9 0 2.37 0.09
4 -9 0 2.58 0.17
4 9 0 2.53 0.16
-4 9 0 2.64 0.16
-4 9 0 2.32 0.12
5 -9 0 1.49 0.15
-5 9 0 1.66 0.15
5 9 0 1.35 0.15
-5 9 0 1.5 0.1
6 -9 0 1.08 0.15
-6 9 0 1.12 0.08
7 -9 0 6.79 0.3
8 -9 0 1.69 0.18
9 -9 0 0.42 0.12
-9 9 0 0.38 0.11
10 -9 0 0.69 0.15
11 -9 0 4.79 0.31
12 -9 0 3.45 0.28
0 -10 0 13.74 0.32
0 10 0 12.35 0.31
0 10 0 13 0.29
1 -10 0 6.55 0.24
-1 -10 0 6.5 0.22
-1 10 0 6.47 0.22
1 10 0 6.62 0.23
-1 10 0 6.48 0.2
2 -10 0 6.92 0.25
-2 -10 0 6.95 0.21
-2 10 0 6.94 0.24
-2 10 0 7.11 0.2
2 10 0 6.49 0.23
3 -10 0 0.64 0.11
3 -10 0 0.28 0.08
-3 -10 0 0.54 0.07
-3 10 0 0.37 0.07
4 -10 0 6.1 0.25
-4 -10 0 6.17 0.14
-4 10 0 6.35 0.19
5 -10 0 10.51 0.34
-5 10 0 10.37 0.23
6 -10 0 22.38 0.53
-6 10 0 22.65 0.33
7 -10 0 2.07 0.2
8 -10 0 0.64 0.14
9 -10 0 2.45 0.24
10 -10 0 9.92 0.41
11 -10 0 0.23 0.13
0 -11 0 -0.1 0.06
0 11 0 -0.05 0.05
-1 -11 0 7.73 0.25
1 -11 0 8.31 0.28
-1 11 0 8.39 0.24
-2 -11 0 5.18 0.19
2 -11 0 5.4 0.24
-2 11 0 5.36 0.19
-3 -11 0 0.75 0.08
3 -11 0 0.86 0.13
-3 11 0 0.83 0.1
4 -11 0 0.29 0.1
-4 11 0 0.47 0.08
5 -11 0 14.99 0.43
-5 11 0 14.79 0.29
6 -11 0 1.61 0.18
-6 11 0 1.88 0.1
7 -11 0 0.96 0.15
8 -11 0 0.25 0.11
9 -11 0 7.05 0.35
10 -11 0 2.04 0.23
0 -12 0 9.3 0.3
0 12 0 9.72 0.27
-1 -12 0 0.22 0.08
1 -12 0 0.13 0.08
-1 12 0 0.3 0.08
2 -12 0 0.21 0.09
-2 -12 0 0.1 0.06
-2 12 0 0.07 0.07
-3 -12 0 0.11 0.04
3 -12 0 0.06 0.08
-3 12 0 0 0.06
4 -12 0 1.55 0.17
4 -12 0 1.56 0.21
-4 12 0 1.58 0.12
5 -12 0 4.08 0.25
-5 12 0 4.02 0.16
6 -12 0 0.5 0.12
-6 12 0 0.71 0.07
7 -12 0 5.8 0.31
8 -12 0 0.78 0.15
0 -13 0 0.02 0.07
0 13 0 0.11 0.07
1 -13 0 0.31 0.1
-1 -13 0 0.29 0.08
-1 13 0 0.33 0.08
2 -13 0 2.34 0.2
-2 -13 0 2.38 0.14
-2 13 0 2.18 0.16
3 -13 0 5.06 0.26
-3 13 0 6.01 0.22
4 -13 0 0.89 0.14
-4 13 0 0.81 0.1
-5 13 0 -0.08 0.05
6 -13 0 9.44 0.37
7 -13 0 0.67 0.14
0 -14 0 1.42 0.14
0 14 0 1.37 0.13
-1 -14 0 3.94 0.18
1 -14 0 4.62 0.24
-1 14 0 4.2 0.2
1 14 0 4.18 0.22
2 -14 0 3.41 0.23
-2 14 0 2.95 0.18
3 -14 0 1.57 0.22
-15 0 1 0.16 0.11
-14 0 1 0.41 0.13
-13 0 1 2.07 0.21
-12 0 1 0.08 0.09
-11 0 1 -0.07 0.07
-10 0 1 2.25 0.16
10 0 -1 2.29 0.18
-10 0 1 2.37 0.15
-9 0 1 3.07 0.17
9 0 -1 3.34 0.19
-9 0 1 3.2 0.16
-9 0 1 3.17 0.18
-8 0 1 2.74 0.15
-8 0 1 3.09 0.17
-8 0 1 2.98 0.15
8 0 -1 2.8 0.17
-7 0 1 9 0.23
-7 0 1 9.18 0.24
-7 0 1 9.4 0.26
-6 0 1 3.4 0.13
-6 0 1 3.52 0.15
-5 0 1 1.48 0.09
-4 0 1 0.42 0.05
-3 0 1 116.69 1.1
-2 0 1 88.2 0.82
-1 0 1 82.42 0.72
1 0 1 82.7 0.78
-1 0 -1 81.03 0.73
-2 0 -1 145.42 1.3
-3 0 -1 3.37 0.1
-4 0 -1 316.17 2.81
-5 0 -1 125.5 1.28
5 0 1 126.99 1.29
-6 0 -1 -0.01 0.03
6 0 1 -0.01 0.03
-7 0 -1 1.88 0.13
-7 0 -1 1.86 0.12
7 0 1 1.87 0.13
8 0 1 6.26 0.23
-8 0 -1 5.65 0.21
9 0 1 22.71 0.48
-9 0 -1 22.16 0.46
-10 0 -1 1.41 0.15
10 0 1 1.31 0.15
-11 0 -1 9.17 0.33
-12 0 -1 1.53 0.18
-13 0 -1 10.63 0.4
-14 0 -1 7.68 0.36
-15 0 -1 0.11 0.12
-15 -1 1 1.38 0.18
-15 1 1 1.47 0.21
-14 -1 1 5.09 0.29
-14 1 1 4.3 0.29
-13 -1 1 0.74 0.14
-13 1 1 0.95 0.17
-12 -1 1 9.6 0.36
-12 1 1 9.21 0.35
-11 -1 1 1.46 0.16
-11 1 1 1.34 0.14
-11 1 1 1.66 0.17
-10 -1 1 0.86 0.11
10 -1 -1 0.86 0.13
-10 1 1 0.69 0.11
-10 1 1 0.93 0.12
10 1 -1 0.98 0.13
-10 1 1 0.82 0.12
-9 -1 1 11.14 0.28
-9 -1 1 10.91 0.3
9 1 -1 10.63 0.32
-9 1 1 10.93 0.3
-9 1 1 10.7 0.33
-9 1 1 10.8 0.32
-8 -1 1 43.19 0.64
-8 -1 1 43.01 0.6
-8 1 1 44.53 0.56
-8 1 1 43.19 0.63
8 1 -1 43.11 0.67
-8 1 1 44.3 0.66
-8 1 1 44.09 0.68
-7 -1 1 9.97 0.23
-7 -1 1 9.85 0.25
-7 1 1 10.47 0.26
7 1 -1 9.69 0.27
-7 1 1 9.83 0.27
-7 1 1 10.11 0.26
-6 -1 1 17.36 0.29
-6 1 1 17.32 0.32
6 1 -1 17.69 0.34
-6 1 1 17.21 0.34
-5 -1 1 0.61 0.07
-5 1 1 0.62 0.08
-5 1 1 0.55 0.07
5 1 -1 0.71 0.07
-4 -1 1 92.21 0.94
-4 1 1 91.32 0.94
4 1 -1 92.28 0.94
3 1 -1 109.63 1.05
-3 1 1 110.49 1.05
-2 1 1 42.38 0.44
2 1 -1 43.1 0.44
1 1 -1 145.39 1.28
-1 1 1 144.54 1.36
0 1 -1 199.13 1.73
0 1 1 193.81 1.81
-2 1 -1 317.92 2.98
2 1 1 315.59 3.03
-3 1 -1 85.99 0.86
3 1 1 87.25 0.87
4 1 1 5.01 0.14
-4 1 -1 4.93 0.14
5 1 1 110.2 1.16
-5 1 -1 109.74 1.12
-5 1 -1 114.33 1.16
-6 1 -1 3.66 0.15
-6 1 -1 3.48 0.14
6 1 1 3.47 0.15
-7 -1 -1 10.45 0.26
-7 1 -1 10.12 0.28
7 1 1 10.03 0.27
-7 1 -1 10.02 0.25
-7 1 -1 10.53 0.27
8 -1 1 5.81 0.23
-8 1 -1 5.69 0.21
8 1 1 5.93 0.22
-8 1 -1 5.82 0.23
-9 -1 -1 19.25 0.42
9 -1 1 19.4 0.45
9 1 1 19.63 0.45
-9 1 -1 20.24 0.46
-9 1 -1 19.25 0.43
10 -1 1 20.11 0.48
-10 -1 -1 19.82 0.45
-10 1 -1 20.42 0.49
10 1 1 19.45 0.47
-10 1 -1 20.72 0.47
-11 -1 -1 5.84 0.27
-11 1 -1 5.83 0.28
-12 -1 -1 1.59 0.18
-12 1 -1 1.72 0.19
-13 -1 -1 2.9 0.23
-13 1 -1 2.44 0.24
-14 -1 -1 5.81 0.32
-14 1 -1 6.28 0.35
-15 -1 -1 3.82 0.28
-15 1 -1 3.98 0.3
-15 -2 1 0.74 0.15
-15 2 1 0.71 0.17
-14 -2 1 0.43 0.13
-14 2 1 0.1 0.13
-13 -2 1 8.52 0.35
-13 2 1 7.62 0.37
-12 -2 1 10.61 0.36
-12 2 1 11.63 0.41
-11 -2 1 3.14 0.2
-11 2 1 3.27 0.21
-11 2 1 2.93 0.22
-10 -2 1 4.13 0.21
10 2 -1 3.9 0.21
-10 2 1 3.82 0.21
-10 2 1 3.85 0.22
-10 2 1 3.44 0.21
-9 -2 1 25.86 0.49
-9 2 1 25.99 0.54
-9 2 1 25.61 0.51
9 2 -1 25.93 0.52
-9 2 1 25.67 0.5
-8 -2 1 4.3 0.18
8 2 -1 4.47 0.2
-8 2 1 3.97 0.18
-8 2 1 4.53 0.2
-8 2 1 4.29 0.16
-8 2 1 4.24 0.2
-7 -2 1 1.57 0.1
-7 -2 1 1.51 0.09
-7 2 1 1.48 0.11
-7 2 1 1.46 0.11
-7 2 1 1.43 0.09
7 2 -1 1.54 0.12
-7 2 1 1.47 0.12
6 2 -1 28.7 0.46
-6 2 1 29.1 0.47
-6 2 1 29.26 0.45
5 2 -1 16.55 0.3
-5 2 1 15.79 0.3
-5 2 1 16.37 0.29
-4 2 1 181.24 1.69
4 2 -1 180.17 1.68
3 2 -1 65.79 0.68
-3 2 1 65.12 0.68
2 2 -1 5.29 0.11
-2 2 1 5.69 0.11
1 2 -1 94.5 0.86
-1 2 1 95.9 0.86
0 2 1 97.67 0.87
0 2 -1 96.57 0.85
2 2 1 85.17 0.89
-2 2 -1 79.94 0.78
2 2 1 82.75 0.8
3 2 1 23.3 0.38
-3 2 -1 22.88 0.31
-4 2 -1 4.5 0.14
4 2 1 3.49 0.12
-5 2 -1 18.93 0.24
5 2 1 17.86 0.32
-5 2 -1 18.31 0.32
-5 2 -1 17.99 0.33
-6 -2 -1 21.48 0.37
6 2 1 20.95 0.38
-6 2 -1 21 0.37
-6 2 -1 20.97 0.39
-7 -2 -1 3.16 0.15
7 -2 1 2.84 0.13
-7 2 -1 2.91 0.15
-7 2 -1 3.15 0.16
7 2 1 2.98 0.15
-8 -2 -1 7.32 0.23
8 -2 1 7.08 0.21
8 2 1 7.07 0.25
-8 2 -1 7.22 0.24
-8 2 -1 7.02 0.24
-8 2 -1 7.76 0.27
-9 -2 -1 12.25 0.33
-9 2 -1 12.29 0.36
-9 2 -1 12.16 0.34
9 2 1 11.98 0.34
10 -2 1 5.82 0.26
-10 -2 -1 5.95 0.25
10 2 1 5.54 0.26
-10 2 -1 5.58 0.25
-10 2 -1 5.93 0.27
-11 -2 -1 2.81 0.2
-11 2 -1 2.7 0.21
-12 -2 -1 8.7 0.34
-12 2 -1 9.4 0.37
-13 -2 -1 22.81 0.57
-13 2 -1 23.93 0.61
-14 -2 -1 0.85 0.15
-14 2 -1 1.01 0.19
-15 -2 -1 3.41 0.27
-15 2 -1 3.94 0.3
-15 -3 1 0.09 0.1
-15 3 1 0.54 0.15
-14 -3 1 0.28 0.1
-14 3 1 0.28 0.14
-13 -3 1 12.4 0.4
-13 3 1 11.9 0.44
-12 -3 1 9.01 0.33
-12 3 1 8.85 0.34
-12 3 1 9.54 0.38
-11 -3 1 0.82 0.12
-11 3 1 0.87 0.14
-11 3 1 1.03 0.15
-10 -3 1 5.31 0.23
10 -3 -1 5.1 0.22
-10 3 1 5.21 0.25
10 3 -1 5.17 0.25
-10 3 1 5.32 0.31
-10 3 1 6.11 0.26
-9 -3 1 25.25 0.48
-9 3 1 26.1 0.51
-9 3 1 25.06 0.54
9 3 -1 25.57 0.52
-9 3 1 25.95 0.52
-8 -3 1 43.45 0.63
8 3 -1 43.91 0.68
-8 3 1 44.84 0.71
-8 3 1 43.11 0.6
-8 3 1 43.1 0.67
-8 3 1 43.88 0.67
-7 -3 1 7.76 0.22
-7 3 1 7.85 0.21
-7 3 1 7.91 0.24
7 3 -1 7.64 0.24
-7 3 1 7.34 0.23
-7 3 1 7.58 0.25
-6 3 1 16.22 0.33
-6 3 1 15.95 0.34
6 3 -1 16.45 0.33
-6 3 1 16.1 0.33
-6 3 1 15.89 0.3
-5 3 1 9 0.22
5 3 -1 9.57 0.22
-5 3 1 9.06 0.22
4 3 -1 3.82 0.13
-4 3 1 4.01 0.14
-4 3 1 3.78 0.13
-3 3 1 4.07 0.12
3 3 -1 4.31 0.12
3 3 -1 4.14 0.12
2 3 -1 5.53 0.12
-2 3 1 5.81 0.12
-1 3 1 12.65 0.18
1 3 -1 12.61 0.18
0 3 1 11.2 0.17
0 3 -1 11.22 0.16
-1 3 -1 15.51 0.2
2 3 1 13.42 0.22
-2 3 -1 13.57 0.2
-3 3 -1 22.49 0.32
3 3 1 22.26 0.33
3 3 1 23.05 0.41
4 3 1 0.63 0.06
-4 3 -1 0.78 0.04
-4 3 -1 0.93 0.07
-4 3 -1 0.69 0.07
5 3 1 7.9 0.25
-5 3 -1 7.98 0.21
5 3 1 7.6 0.21
-5 3 -1 8.08 0.21
-5 3 -1 8.04 0.13
6 -3 1 12.24 0.26
-6 -3 -1 12.5 0.26
-6 3 -1 12.08 0.28
-6 3 -1 12.15 0.29
6 3 1 12.09 0.29
-6 3 -1 11.77 0.28
7 -3 1 10.01 0.25
-7 -3 -1 9.76 0.25
-7 3 -1 10.03 0.27
7 3 1 10.21 0.28
-7 3 -1 9.92 0.27
-7 3 -1 9.55 0.28
8 -3 1 7.16 0.22
-8 -3 -1 7.28 0.23
-8 3 -1 7.51 0.27
-8 3 -1 6.8 0.24
-8 3 -1 7.43 0.25
8 3 1 7.51 0.26
-9 -3 -1 7.53 0.26
9 -3 1 7.43 0.24
-9 3 -1 7.33 0.27
-9 3 -1 7.48 0.29
-9 3 -1 8.07 0.27
9 3 1 7.66 0.27
-10 -3 -1 3.26 0.19
-10 3 -1 3.53 0.22
-11 -3 -1 5.06 0.25
-11 3 -1 5.13 0.27
-12 -3 -1 7.29 0.31
-12 3 -1 7.47 0.35
-13 -3 -1 4.75 0.27
-13 3 -1 4.57 0.3
-14 -3 -1 0.89 0.15
-14 3 -1 0.64 0.16
-14 -4 1 1.68 0.19
-14 4 1 1.83 0.23
-13 -4 1 3.11 0.23
-13 4 1 2.8 0.26
-12 -4 1 14.2 0.41
-12 4 1 14.24 0.44
-12 4 1 13.49 0.45
11 -4 -1 15.15 0.4
-11 -4 1 14.68 0.39
-11 4 1 15.28 0.44
-11 4 1 15.54 0.46
10 -4 -1 4.84 0.22
-10 -4 1 4.9 0.22
-10 4 1 4.82 0.25
-10 4 1 4.68 0.24
-9 -4 1 37 0.59
9 -4 -1 36.4 0.6
-9 4 1 36.64 0.68
-9 4 1 36.55 0.64
-9 4 1 37.02 0.65
9 4 -1 37 0.64
-8 -4 1 16.9 0.35
-8 4 1 16.61 0.39
8 4 -1 16.97 0.39
-8 4 1 16.39 0.41
-8 4 1 16.69 0.4
-7 -4 1 46.75 0.62
-7 4 1 46.68 0.63
7 4 -1 46.9 0.67
-7 4 1 46.24 0.7
-7 4 1 46.09 0.68
-7 4 1 46.22 0.68
-6 -4 1 2.36 0.11
6 4 -1 2.53 0.14
-6 4 1 2.3 0.14
-6 4 1 2.4 0.13
-6 4 1 2.3 0.12
-6 4 1 2.56 0.14
6 4 -1 2.41 0.14
-5 4 1 27.24 0.44
5 4 -1 26.93 0.45
-5 4 1 27.11 0.41
-5 4 1 26.92 0.43
5 4 -1 26.71 0.42
4 4 -1 38.67 0.5
-4 4 1 38.36 0.51
-4 4 1 39.22 0.38
4 4 -1 39.07 0.56
-4 4 1 38.3 0.51
-3 4 1 73.35 0.78
-3 4 1 74.35 0.68
3 4 -1 73.05 0.78
2 4 -1 1.7 0.08
-2 4 1 1.76 0.07
1 4 -1 13.99 0.21
-1 4 1 13.97 0.22
0 4 1 7.71 0.15
0 4 -1 7.33 0.14
-1 4 -1 66.74 0.66
1 4 1 66.78 0.69
-2 4 -1 23.4 0.31
-3 -4 -1 29.43 0.34
-3 4 -1 30.27 0.34
3 4 1 29.71 0.41
-3 4 -1 29.23 0.39
-4 -4 -1 23.67 0.27
-4 -4 -1 23.39 0.27
4 4 1 22.54 0.37
-4 4 -1 23.68 0.29
-4 4 -1 23.12 0.37
4 4 1 23.66 0.47
-4 4 -1 23.78 0.37
5 -4 1 20.95 0.36
5 4 1 20.3 0.37
-5 4 -1 20.29 0.26
-5 4 -1 20.79 0.37
-5 4 -1 20.4 0.36
5 4 1 20.2 0.45
6 -4 1 29.17 0.46
-6 4 -1 29.11 0.31
6 4 1 28.66 0.58
6 4 1 28.79 0.48
-6 4 -1 28.93 0.48
-6 4 -1 28.66 0.49
-6 4 -1 29.17 0.47
7 -4 1 6.71 0.22
-7 -4 -1 6.89 0.21
-7 4 -1 7.44 0.24
-7 4 -1 7.04 0.25
7 4 1 6.97 0.24
-7 4 -1 7.13 0.24
8 -4 1 0.03 0.05
-8 -4 -1 0.06 0.05
-8 4 -1 0.05 0.06
-8 4 -1 0.09 0.06
8 4 1 0.14 0.06
-8 4 -1 -0.02 0.05
-9 -4 -1 1.69 0.14
9 -4 1 1.29 0.13
-9 4 -1 1.71 0.16
-9 4 -1 1.19 0.14
-9 4 -1 1.7 0.16
9 4 1 1.67 0.15
10 -4 1 14.64 0.37
-10 -4 -1 14.31 0.37
-10 4 -1 14.67 0.42
-11 -4 -1 5.01 0.24
-11 4 -1 4.84 0.27
-12 -4 -1 3.72 0.24
-12 4 -1 3.87 0.27
-13 4 -1 0.22 0.13
14 4 1 1.1 0.17
-14 4 -1 1.75 0.22
14 5 -1 4.23 0.26
-14 5 1 4.37 0.3
13 5 -1 4.16 0.25
-13 5 1 4.12 0.3
12 -5 -1 13.46 0.41
-12 5 1 14.2 0.45
-12 5 1 13.71 0.47
11 -5 -1 6.47 0.29
-11 5 1 7.04 0.33
-11 5 1 7.41 0.32
-10 -5 1 39.04 0.65
10 -5 -1 40.12 0.69
-10 5 1 39.65 0.72
-10 5 1 38.52 0.73
-9 -5 1 10.21 0.29
9 -5 -1 10.01 0.31
-9 5 1 10.38 0.34
-9 5 1 10.78 0.34
-9 5 1 9.42 0.34
9 5 -1 10.35 0.32
8 -5 -1 4.14 0.19
8 5 -1 4.05 0.2
-8 5 1 4.18 0.21
-8 5 1 3.76 0.2
-8 5 1 3.93 0.21
-7 5 1 2.65 0.14
-7 5 1 3.03 0.17
-7 5 1 2.66 0.16
-7 5 1 2.5 0.15
7 5 -1 2.5 0.15
6 5 -1 3.86 0.17
-6 5 1 3.96 0.16
-6 5 1 4.15 0.18
6 5 -1 4.18 0.15
-6 5 1 3.95 0.18
-6 5 1 3.91 0.17
-5 5 1 10.94 0.15
-5 5 1 10.58 0.26
5 5 -1 10.71 0.25
-5 5 1 11.65 0.26
-5 5 1 10.76 0.26
-5 5 1 10.78 0.27
5 5 -1 10.68 0.31
4 5 -1 12.8 0.26
-4 5 1 12.92 0.18
-4 5 1 12.93 0.27
-4 5 1 12.44 0.27
-4 5 1 13.39 0.26
-3 -5 1 2.31 0.06
3 5 -1 2.25 0.1
-3 5 1 2.18 0.07
-3 5 1 2.31 0.11
-3 5 1 2.21 0.1
-2 -5 1 16.19 0.23
2 5 -1 16.58 0.27
-2 5 1 16.48 0.22
-2 5 1 16.69 0.27
-1 -5 1 70.2 0.72
-1 5 1 73.2 0.75
1 5 -1 71.3 0.74
-1 5 1 70.31 0.73
0 -5 1 83.41 0.85
0 5 1 84.8 0.86
0 5 -1 85.27 0.84
-1 -5 -1 7.05 0.15
-1 5 -1 7.36 0.15
1 5 1 7.27 0.17
-2 -5 -1 12.37 0.21
-2 5 -1 12.57 0.19
2 5 1 12.6 0.24
-2 5 -1 12.58 0.22
-3 -5 -1 36.24 0.42
-3 -5 -1 36.13 0.42
3 5 1 36.23 0.49
-3 5 -1 35.78 0.48
-3 5 -1 36.05 0.41
-3 5 -1 36.76 0.48
4 -5 1 73.18 0.84
-4 -5 -1 70.93 0.69
-4 5 -1 71.82 0.82
4 5 1 70.45 0.83
-4 5 -1 71.7 0.82
-4 5 -1 70.76 0.71
5 -5 1 33.39 0.51
-5 5 -1 33.2 0.39
-5 5 -1 33.47 0.5
-5 5 -1 33.56 0.5
5 5 1 32.76 0.51
-5 5 -1 33.31 0.51
5 5 1 32.2 0.47
6 -5 1 2.93 0.15
-6 5 -1 2.76 0.15
6 5 1 2.86 0.14
-6 5 -1 2.74 0.15
-6 5 -1 2.83 0.15
-6 5 -1 2.88 0.08
6 5 1 3.25 0.16
7 -5 1 0.49 0.09
-7 5 -1 0.59 0.1
-7 5 -1 0.44 0.09
-7 5 -1 0.42 0.08
7 5 1 0.37 0.07
7 5 1 0.44 0.08
8 -5 1 9.71 0.29
-8 5 -1 9.88 0.31
-8 5 -1 10.07 0.32
8 5 1 10.13 0.31
-8 5 -1 9.66 0.3
8 5 1 10.13 0.28
9 -5 1 15.22 0.39
-9 5 -1 14.86 0.41
-9 5 -1 14.5 0.42
9 5 1 14.97 0.37
-9 5 -1 14.75 0.4
10 -5 1 27.02 0.55
10 5 1 27.2 0.54
-10 5 -1 27.23 0.59
11 -5 1 8.89 0.33
11 5 1 8.91 0.32
-11 5 -1 8.86 0.36
12 5 1 2.58 0.22
-12 5 -1 2.74 0.25
-13 5 -1 3.19 0.27
13 5 1 3.16 0.24
14 5 1 3.11 0.24
-14 5 -1 3.01 0.28
-14 6 1 2.24 0.24
13 6 -1 0.69 0.14
-13 6 1 1.15 0.2
12 -6 -1 3.06 0.23
-12 6 1 3.43 0.27
-12 6 1 2.99 0.24
12 6 -1 3.49 0.23
11 -6 -1 10.21 0.37
-11 6 1 10.44 0.39
11 6 -1 10.92 0.34
-11 6 1 11.01 0.41
10 -6 -1 0.32 0.1
10 6 -1 0.31 0.09
-10 6 1 0.12 0.11
-10 6 1 0.17 0.1
9 -6 -1 0.91 0.13
-9 6 1 1.18 0.16
-9 6 1 0.84 0.14
9 6 -1 0.88 0.11
8 -6 -1 2.56 0.17
-8 6 1 2.45 0.18
8 6 -1 2.51 0.16
-8 6 1 2.43 0.18
-8 6 1 2.56 0.18
8 6 -1 2.52 0.15
7 -6 -1 7.98 0.26
-7 6 1 8.1 0.27
-7 6 1 8.45 0.29
7 6 -1 8.36 0.26
-7 6 1 8.46 0.28
7 6 -1 8.04 0.23
6 6 -1 0.53 0.08
-6 6 1 0.73 0.1
-6 6 1 0.66 0.09
6 6 -1 0.58 0.07
-6 6 1 0.7 0.1
-5 6 1 59.11 0.76
-5 6 1 59.16 0.58
-5 6 1 59.57 0.77
-5 6 1 58.37 0.77
-5 6 1 58.87 0.74
5 6 -1 57.71 0.68
5 6 -1 58.95 0.75
-4 6 1 25.92 0.42
4 6 -1 26.33 0.42
-4 6 1 26.11 0.32
-4 6 1 26.19 0.43
-4 6 1 26.92 0.42
-4 6 1 25.83 0.43
-3 -6 1 17.9 0.24
-3 6 1 18.15 0.32
3 6 -1 17.81 0.32
-3 6 1 18.34 0.4
-3 6 1 17.73 0.25
-3 6 1 17.94 0.32
-3 6 1 18.2 0.32
-2 -6 1 32.29 0.4
-2 6 1 32.92 0.39
2 6 -1 33.13 0.45
-2 6 1 32.19 0.44
-1 -6 1 10.15 0.2
1 6 -1 10.04 0.21
-1 6 1 10.14 0.21
0 -6 -1 34.91 0.45
0 -6 1 34.91 0.45
0 6 -1 36.07 0.45
0 6 1 36.03 0.46
0 6 1 35.83 0.43
1 -6 1 2.32 0.11
-1 -6 -1 2.34 0.1
-1 6 -1 2.33 0.1
-1 6 -1 2.31 0.09
1 6 1 2.53 0.11
-2 -6 -1 1.16 0.08
2 -6 1 1.28 0.09
-2 -6 -1 0.98 0.07
2 6 1 1.26 0.09
-2 6 -1 1.12 0.08
-2 6 -1 1.13 0.07
3 -6 1 20.58 0.36
-3 -6 -1 20.43 0.3
3 -6 1 19.94 0.34
-3 -6 -1 20.22 0.3
-3 6 -1 21.04 0.29
3 6 1 20.63 0.36
-3 6 -1 20.09 0.34
-3 6 -1 20.78 0.34
4 -6 1 95.93 1.08
-4 -6 -1 96.59 0.93
4 6 1 99.56 1.02
-4 6 -1 97.08 1.05
-4 6 -1 95.49 0.94
4 6 1 96.79 1.07
-4 6 -1 96.66 1.06
5 -6 1 30.43 0.51
-5 6 -1 31.17 0.5
5 6 1 31.42 0.51
5 6 1 31.34 0.46
-5 6 -1 31.31 0.39
-5 6 -1 31.39 0.49
-5 6 -1 32.19 0.52
6 -6 1 0.55 0.09
-6 6 -1 0.49 0.09
-6 6 -1 0.52 0.09
-6 6 -1 0.59 0.09
-6 6 -1 0.58 0.05
6 6 1 0.41 0.07
6 6 1 0.5 0.08
7 -6 1 6.79 0.25
7 6 1 6.74 0.25
7 6 1 6.73 0.22
-7 6 -1 6.27 0.25
-7 6 -1 6.85 0.25
-7 6 -1 7.13 0.25
8 -6 1 8.01 0.28
-8 6 -1 7.74 0.29
8 6 1 8 0.28
-8 6 -1 8.45 0.29
-8 6 -1 7.7 0.28
8 6 1 8.07 0.26
9 -6 1 17.01 0.43
9 6 1 16.89 0.4
-9 6 -1 16.36 0.43
-9 6 -1 16.11 0.43
10 -6 1 0.11 0.09
10 6 1 0.12 0.08
-10 6 -1 0.2 0.11
11 -6 1 7.18 0.32
11 6 1 7.41 0.31
-11 6 -1 7.99 0.35
12 -6 1 0.38 0.12
12 6 1 0.28 0.12
-12 6 -1 0.26 0.13
-13 6 -1 2.11 0.24
13 6 1 2.07 0.21
13 -7 -1 0.08 0.11
-13 7 1 0.05 0.12
12 -7 -1 0.13 0.11
-12 7 1 0.33 0.12
-12 7 1 0.03 0.11
11 -7 -1 2.33 0.23
-11 7 1 1.78 0.2
-11 7 1 2.06 0.22
10 -7 -1 3.64 0.24
-10 7 1 3.73 0.26
-10 7 1 3.45 0.24
9 -7 -1 1.55 0.17
-9 7 1 1.33 0.17
-9 7 1 1.59 0.18
8 -7 -1 3.99 0.22
-8 7 1 4.2 0.23
-8 7 1 4.06 0.23
7 -7 -1 3.38 0.19
7 7 -1 3.84 0.19
-7 7 1 3.5 0.19
-7 7 1 3.49 0.2
-7 7 1 3.63 0.2
6 -7 -1 11.01 0.31
-6 7 1 11.52 0.31
6 7 -1 11.13 0.3
-6 7 1 10.96 0.32
-6 7 1 11.3 0.31
5 -7 -1 1.49 0.12
-5 7 1 1.3 0.12
-5 7 1 1.44 0.12
-5 7 1 1.53 0.13
5 7 -1 1.63 0.13
-5 7 1 1.51 0.07
4 -7 -1 7.1 0.22
-4 7 1 6.93 0.15
4 7 -1 7.39 0.22
-4 7 1 7.26 0.22
-4 7 1 7.24 0.22
-4 7 1 6.81 0.22
3 -7 -1 38.06 0.55
-3 -7 1 38.08 0.44
-3 7 1 38.48 0.53
-3 7 1 38.38 0.45
-3 7 1 39.21 0.55
3 7 -1 39.07 0.54
-2 -7 1 25.48 0.36
2 -7 -1 25.95 0.41
2 -7 -1 25.38 0.4
2 -7 -1 25.84 0.41
-2 7 1 25.17 0.34
-2 7 1 25.97 0.4
2 7 -1 25.87 0.4
-2 7 1 25.85 0.39
1 -7 -1 0.15 0.05
-1 -7 1 0.15 0.04
1 -7 -1 0.07 0.04
-1 7 1 0.07 0.04
1 7 -1 0.15 0.05
-1 7 1 0.19 0.05
-1 7 1 0.09 0.03
0 -7 -1 3.41 0.14
0 -7 1 3.33 0.13
0 -7 -1 3.21 0.13
0 7 1 3.5 0.12
0 7 -1 3.38 0.13
0 7 1 3.47 0.14
-1 -7 -1 62.55 0.71
-1 -7 -1 61.86 0.71
1 -7 1 60.64 0.74
1 -7 1 62.4 0.73
1 7 1 61.58 0.73
-1 7 -1 61.24 0.67
-1 7 -1 62.09 0.71
1 7 1 62.59 0.69
2 -7 1 51.62 0.67
2 -7 1 52.04 0.66
-2 -7 -1 51.07 0.61
-2 -7 -1 51.53 0.62
-2 7 -1 52.76 0.64
2 7 1 52.83 0.62
-2 7 -1 52.42 0.59
2 7 1 52.26 0.66
3 -7 1 16.57 0.33
3 -7 1 16.95 0.34
-3 -7 -1 16.99 0.28
3 7 1 17.23 0.34
3 7 1 17.05 0.3
-3 7 -1 17.08 0.27
-3 7 -1 16.95 0.32
-4 -7 -1 2.38 0.1
4 -7 1 2.32 0.14
-4 7 -1 2.48 0.14
4 7 1 2.44 0.14
4 7 1 2.45 0.12
-4 7 -1 2.34 0.1
-5 -7 -1 27.25 0.3
5 -7 1 27.91 0.5
-5 7 -1 27.55 0.49
-5 7 -1 27.53 0.37
5 7 1 27.89 0.49
-5 7 -1 27.5 0.47
5 7 1 27.43 0.44
-5 7 -1 26.84 0.47
6 -7 1 24.89 0.49
6 7 1 25.56 0.48
-6 7 -1 25.01 0.47
-6 7 -1 25.15 0.49
-6 7 -1 25.64 0.48
-6 7 -1 25.55 0.34
6 7 1 25.23 0.44
7 -7 1 10.21 0.32
-7 7 -1 9.79 0.31
7 7 1 10.21 0.31
-7 7 -1 10.28 0.31
-7 7 -1 10.31 0.33
-7 7 -1 10.13 0.17
7 7 1 10.17 0.28
8 -7 1 0.73 0.12
8 7 1 0.79 0.11
-8 7 -1 0.85 0.13
-8 7 -1 0.83 0.13
9 -7 1 1.58 0.17
-9 7 -1 1.55 0.18
-9 7 -1 1.66 0.18
9 7 1 1.5 0.15
10 -7 1 14.33 0.44
10 7 1 14.39 0.39
-10 7 -1 14.69 0.45
11 -7 1 11.68 0.41
11 7 1 11.83 0.38
-11 7 -1 11 0.41
12 -7 1 1.32 0.19
-12 7 -1 1.28 0.2
12 7 1 1.51 0.18
13 -7 1 2.3 0.22
-13 7 -1 2.03 0.23
13 7 1 2.17 0.21
13 -8 -1 0.38 0.13
-13 8 1 0.19 0.13
12 -8 -1 0.71 0.15
-12 8 1 0.51 0.15
11 -8 -1 2.2 0.23
-11 8 1 2.42 0.25
-11 8 1 2.2 0.22
10 -8 -1 0.43 0.12
-10 8 1 0.56 0.13
-10 8 1 0.67 0.14
9 -8 -1 17.54 0.48
-9 8 1 18.52 0.5
-9 8 1 17.92 0.47
8 -8 -1 0.14 0.09
-8 8 1 0.46 0.11
-8 8 1 0.18 0.1
7 -8 -1 8.9 0.31
-7 8 1 8.97 0.31
-7 8 1 9.1 0.32
6 -8 -1 4.06 0.21
-6 8 1 4.03 0.2
-6 8 1 4 0.2
-6 8 1 3.87 0.1
-6 8 1 4.12 0.21
6 8 -1 4.14 0.2
5 -8 -1 9.64 0.29
-5 8 1 9.36 0.28
-5 8 1 9.69 0.29
5 8 -1 9.44 0.27
-5 8 1 9.65 0.19
4 -8 -1 44.5 0.66
4 8 -1 44.02 0.63
-4 8 1 44.29 0.65
-4 8 1 43.14 0.51
-4 8 1 43.75 0.64
-3 -8 1 43.85 0.51
3 -8 -1 44.45 0.65
-3 8 1 44.91 0.62
-3 8 1 44.94 0.63
-3 8 1 46.27 0.54
3 8 -1 44.65 0.62
-2 -8 1 2.67 0.12
2 -8 -1 2.59 0.14
-2 8 1 2.69 0.13
-2 8 1 2.98 0.14
-2 8 1 2.84 0.12
2 8 -1 2.83 0.14
1 -8 -1 11.75 0.27
1 -8 -1 11.95 0.28
-1 -8 1 12.11 0.26
1 -8 -1 11.81 0.27
1 8 -1 12.17 0.26
-1 8 1 12.4 0.28
-1 8 1 11.92 0.25
-1 8 1 12.08 0.24
0 -8 -1 10.37 0.25
0 -8 1 10.3 0.25
0 8 1 10.32 0.22
0 8 1 10.44 0.23
0 8 -1 10.3 0.24
0 8 1 10.26 0.25
1 -8 1 14.57 0.31
1 -8 1 15.34 0.31
-1 -8 -1 15.23 0.3
1 8 1 14.81 0.28
1 8 1 15.1 0.31
1 8 1 14.82 0.28
-1 8 -1 14.91 0.3
2 -8 1 19.41 0.37
2 -8 1 18.91 0.37
-2 -8 -1 19.57 0.34
2 8 1 20.31 0.34
-2 8 -1 19.34 0.31
-2 8 -1 19.43 0.36
2 8 1 18.83 0.36
3 -8 1 14.84 0.32
3 -8 1 14.12 0.33
-3 -8 -1 14.79 0.28
3 8 1 14.48 0.32
-3 8 -1 14.66 0.32
-3 8 -1 15.15 0.27
3 8 1 14.48 0.29
-4 -8 -1 4.62 0.14
4 -8 1 4.58 0.2
4 8 1 4.55 0.19
-4 8 -1 4.6 0.19
-4 8 -1 4.34 0.14
4 8 1 4.7 0.17
-5 -8 -1 4.81 0.1
5 -8 1 4.5 0.21
-5 8 -1 4.41 0.14
5 8 1 4.85 0.18
-5 8 -1 4.85 0.21
5 8 1 4.87 0.21
6 -8 1 1.81 0.17
-6 8 -1 1.72 0.15
-6 8 -1 1.78 0.1
6 8 1 1.68 0.15
6 8 1 1.53 0.13
7 -8 1 1.48 0.15
7 8 1 1.7 0.14
-7 8 -1 1.69 0.08
-7 8 -1 1.68 0.16
8 -8 1 6.25 0.28
-8 8 -1 5.38 0.26
8 8 1 5.6 0.24
9 -8 1 0.38 0.11
9 8 1 0.26 0.1
10 -8 1 7.8 0.35
10 8 1 7.91 0.31
11 -8 1 9.15 0.38
11 8 1 9.1 0.34
12 -8 1 1.88 0.21
12 8 1 2.24 0.21
12 -9 -1 2.45 0.25
-12 9 1 2.73 0.27
11 -9 -1 1.67 0.21
-11 9 1 1.67 0.21
-11 9 1 1.66 0.2
10 -9 -1 1.61 0.19
-10 9 1 1.62 0.2
-10 9 1 1.41 0.18
9 -9 -1 12.32 0.42
-9 9 1 11.61 0.39
-9 9 1 12.13 0.42
8 -9 -1 9.66 0.36
-8 9 1 9.44 0.36
-8 9 1 8.62 0.33
7 -9 -1 0.12 0.09
-7 9 1 0.05 0.08
6 -9 -1 5.71 0.26
-6 9 1 5.08 0.24
-6 9 1 5.33 0.13
5 -9 -1 6.33 0.26
-5 9 1 6.27 0.16
-5 9 1 6.25 0.25
5 9 -1 6.26 0.23
4 -9 -1 18.97 0.42
-4 9 1 19.51 0.42
4 9 -1 19.04 0.39
-4 9 1 18.82 0.4
-4 9 1 18.87 0.3
-3 -9 1 6.33 0.16
3 -9 -1 6.56 0.24
3 9 -1 6.76 0.22
-3 9 1 6.43 0.18
-3 9 1 6.25 0.23
-3 9 1 6.3 0.22
-2 -9 1 25.55 0.4
2 -9 -1 25.74 0.46
2 -9 -1 25.79 0.46
-2 9 1 26.18 0.39
-2 9 1 24.66 0.43
-2 9 1 26.02 0.46
2 9 -1 24.93 0.43
-1 -9 1 7.42 0.21
1 -9 -1 7.21 0.23
-1 9 1 7.02 0.22
1 9 -1 6.93 0.21
-1 9 1 6.6 0.2
-1 9 1 7.22 0.19
0 -9 1 1.33 0.12
0 -9 -1 1.44 0.13
0 9 1 1.38 0.1
0 9 1 1.21 0.11
0 9 -1 1.28 0.11
0 9 1 1.27 0.1
1 -9 1 0.82 0.1
-1 -9 -1 0.9 0.1
1 9 1 0.81 0.1
1 9 1 0.74 0.1
1 9 1 0.89 0.12
-1 9 -1 0.68 0.08
-1 9 -1 1.05 0.11
2 -9 1 5.19 0.2
2 -9 1 5.4 0.21
-2 -9 -1 5.25 0.18
-2 9 -1 5.48 0.17
-2 9 -1 5.34 0.2
2 9 1 5.13 0.2
3 -9 1 8.17 0.26
3 -9 1 7.93 0.26
-3 -9 -1 8.24 0.21
-3 9 -1 8.11 0.21
-3 9 -1 8.18 0.25
3 9 1 8.09 0.25
4 -9 1 6.84 0.25
-4 -9 -1 6.56 0.17
-4 9 -1 6.91 0.19
4 9 1 6.58 0.24
-4 9 -1 6.57 0.24
5 -9 1 18.1 0.43
-5 9 -1 18.21 0.31
-5 9 -1 18.18 0.42
6 -9 1 0.47 0.11
-6 9 -1 0.58 0.07
7 -9 1 9.89 0.35
-7 9 -1 9.71 0.18
8 -9 1 1.16 0.16
9 -9 1 0.71 0.14
10 -9 1 4.15 0.28
11 -9 1 6.3 0.34
12 -9 1 0.76 0.16
11 -10 -1 0.68 0.15
10 -10 -1 5.43 0.32
9 -10 -1 1.06 0.17
8 -10 -1 0.54 0.13
7 -10 -1 3.59 0.24
6 -10 -1 3.76 0.23
-6 10 1 3.52 0.11
5 -10 -1 1.75 0.17
-5 10 1 1.87 0.1
4 -10 -1 8.78 0.3
-4 10 1 8.89 0.21
3 -10 -1 3.29 0.19
-3 -10 1 3.31 0.12
3 10 -1 3.02 0.17
-3 10 1 3.1 0.14
-2 -10 1 8.91 0.23
2 -10 -1 8.72 0.28
2 10 -1 8.63 0.26
-2 10 1 8.39 0.22
1 -10 -1 8.83 0.27
-1 -10 1 8.72 0.25
-1 10 1 8.46 0.26
1 10 -1 8.57 0.25
-1 10 1 8.95 0.23
0 -10 -1 10.32 0.29
0 -10 1 10.3 0.28
0 10 -1 9.92 0.27
0 10 1 10.15 0.25
0 10 1 9.29 0.28
-1 -10 -1 12 0.3
1 -10 1 12.11 0.32
1 10 1 11.27 0.31
-1 10 -1 11.71 0.3
-1 10 -1 11.71 0.27
-2 -10 -1 1.8 0.13
2 -10 1 1.4 0.14
2 -10 1 1.67 0.14
-2 10 -1 1.54 0.12
-2 10 -1 1.56 0.13
3 -10 1 1.21 0.13
-3 -10 -1 1.13 0.11
3 -10 1 0.86 0.12
-3 10 -1 1.21 0.13
-3 10 -1 1.05 0.1
4 -10 1 0.85 0.12
4 -10 1 0.6 0.15
-4 -10 -1 0.69 0.07
-4 10 -1 0.51 0.08
5 -10 1 0 0.08
-5 10 -1 0 0.05
6 -10 1 3.1 0.22
-6 10 -1 3.22 0.14
7 -10 1 0.97 0.15
-7 10 -1 1.03 0.08
8 -10 1 2.37 0.22
9 -10 1 2.9 0.24
10 -10 1 5.94 0.33
11 -10 1 2.62 0.25
10 -11 -1 3.48 0.27
9 -11 -1 1.23 0.18
8 -11 -1 8.1 0.36
7 -11 -1 2.58 0.22
6 -11 -1 11.37 0.39
-6 11 1 10.81 0.23
5 -11 -1 9.04 0.34
-5 11 1 9.18 0.21
4 -11 -1 11.62 0.36
-4 11 1 11.58 0.25
3 -11 -1 4.23 0.22
-3 -11 1 4.08 0.13
-3 11 1 4.01 0.17
2 -11 -1 3.16 0.2
-2 -11 1 3.17 0.15
-2 11 1 3.22 0.16
1 -11 -1 7.55 0.27
-1 -11 1 7.64 0.24
-1 11 1 7.77 0.23
0 -11 1 2.18 0.16
0 -11 -1 2.17 0.17
0 11 1 1.74 0.14
1 -11 1 0.75 0.11
-1 -11 -1 0.57 0.1
1 11 1 0.57 0.1
-1 11 -1 0.9 0.1
-2 -11 -1 0.12 0.06
2 -11 1 0.08 0.07
-2 11 -1 0.08 0.06
-3 -11 -1 6.41 0.2
3 -11 1 6.72 0.27
3 -11 1 6.18 0.26
-3 11 -1 6.25 0.21
4 -11 1 5.03 0.25
-4 -11 -1 5.33 0.15
4 -11 1 5.34 0.25
-4 11 -1 5.28 0.19
5 -11 1 15.06 0.43
-5 11 -1 14.86 0.31
6 -11 1 4.56 0.27
-6 11 -1 4.62 0.16
7 -11 1 0.9 0.16
8 -11 1 2.46 0.24
9 -11 1 4.41 0.29
10 -11 1 3.35 0.27
9 -12 -1 2.62 0.25
8 -12 -1 0.85 0.16
7 -12 -1 5.77 0.31
6 -12 -1 0 0.09
5 -12 -1 1.06 0.16
-5 12 1 0.93 0.08
-4 12 1 0.76 0.09
3 -12 -1 6.77 0.29
-3 12 1 7.4 0.22
2 -12 -1 0.15 0.09
-2 -12 1 0.17 0.06
-2 12 1 0.14 0.07
1 -12 -1 0.75 0.12
-1 -12 1 0.89 0.11
-1 12 1 0.74 0.1
0 -12 -1 0.73 0.12
0 -12 1 0.68 0.11
0 12 1 0.63 0.1
0 12 -1 0.73 0.12
1 -12 1 0.01 0.07
-1 -12 -1 0.03 0.07
-1 12 -1 -0.05 0.06
1 12 1 0.27 0.08
2 -12 1 4.46 0.23
-2 -12 -1 4.46 0.19
-2 12 -1 4.54 0.2
3 -12 1 5.46 0.26
-3 -12 -1 4.9 0.18
-3 12 -1 5.37 0.21
4 -12 1 0.43 0.11
4 -12 1 0.2 0.09
-4 12 -1 0.55 0.09
5 -12 1 1.23 0.17
-5 12 -1 1.1 0.11
6 -12 1 8.94 0.36
-6 12 -1 9.16 0.22
7 -12 1 3.62 0.27
8 -12 1 3.67 0.27
7 -13 -1 0.2 0.11
6 -13 -1 0.61 0.13
-5 13 1 0.8 0.08
4 -13 -1 0.25 0.1
-4 13 1 0.32 0.07
3 -13 -1 0.04 0.09
-3 13 1 0.11 0.06
-2 -13 1 3.39 0.14
2 -13 -1 3.51 0.23
-2 13 1 3.48 0.18
1 -13 -1 0.84 0.13
-1 -13 1 0.94 0.11
-1 13 1 0.69 0.1
0 -13 -1 4.72 0.24
0 -13 1 4.62 0.21
0 13 1 4.46 0.21
0 13 -1 4.7 0.21
1 -13 1 0.8 0.13
-1 -13 -1 0.81 0.11
-1 13 -1 0.54 0.1
1 13 1 0.71 0.11
2 -13 1 1.42 0.16
-2 -13 -1 1.73 0.14
-2 13 -1 1.36 0.13
3 -13 1 4.33 0.25
-3 -13 -1 4.02 0.16
-3 13 -1 4.15 0.2
4 -13 1 0.44 0.11
-4 13 -1 0.32 0.08
5 -13 1 2.55 0.21
5 -13 1 2.48 0.23
-5 13 -1 2.31 0.14
6 -13 1 1.8 0.2
-6 13 -1 1.82 0.1
7 -13 1 9.11 0.38
3 -14 -1 0.09 0.11
2 -14 -1 0.52 0.12
-2 14 1 0.55 0.09
1 -14 -1 0.89 0.14
-1 -14 1 0.94 0.09
-1 14 1 0.76 0.11
0 -14 -1 0.09 0.07
0 -14 1 -0.01 0.06
0 14 1 0.13 0.07
0 14 -1 0.14 0.07
-1 -14 -1 2.64 0.17
1 -14 1 2.66 0.19
1 14 1 2.77 0.18
-1 14 -1 3.01 0.18
-2 -14 -1 0.78 0.09
2 -14 1 0.86 0.13
-2 14 -1 0.82 0.11
-15 0 2 1.94 0.22
-14 0 2 0.42 0.13
-13 0 2 3.02 0.23
-12 0 2 2.6 0.23
-11 0 2 6.58 0.28
-11 0 2 6.56 0.26
10 0 -2 15.14 0.41
-10 0 2 15.23 0.37
-10 0 2 15 0.41
-10 0 2 14.37 0.38
9 0 -2 5.62 0.24
-9 0 2 5.58 0.23
-9 0 2 5.96 0.21
-9 0 2 5.82 0.22
8 0 -2 0.18 0.07
-8 0 2 0.21 0.07
-8 0 2 0.24 0.06
-8 0 2 0.31 0.06
-7 0 2 10.82 0.28
-7 0 2 11.45 0.26
-7 0 2 10.83 0.27
-6 0 2 1.59 0.1
-6 0 2 1.83 0.1
-5 0 2 67.37 0.77
-4 0 2 26.28 0.37
-3 0 2 2.37 0.09
-2 0 2 13.19 0.18
-1 0 2 282.8 2.55
0 0 -2 131.63 1.37
0 0 2 133.71 1.15
1 0 2 375.89 4.01
1 0 2 380.98 3.4
2 0 2 1.5 0.06
3 0 2 -0.07 0.02
-3 0 -2 -0.04 0.02
4 0 2 33.78 0.45
-4 0 -2 33.06 0.44
-5 0 -2 1.65 0.05
5 0 2 1.48 0.09
-5 0 -2 1.64 0.1
6 0 2 8.66 0.24
-7 0 -2 24.76 0.43
7 0 2 24.28 0.45
-8 0 -2 3.36 0.17
8 0 2 3.2 0.17
-9 0 -2 9.17 0.29
9 0 2 9.54 0.3
-10 0 -2 -0.04 0.06
10 0 2 0.02 0.04
-11 0 -2 6.49 0.28
-12 0 -2 1.15 0.16
-13 0 -2 4.6 0.29
-14 0 -2 21.89 0.6
-15 0 -2 0.61 0.16
-15 -1 2 0.35 0.13
-15 1 2 0.57 0.15
-14 -1 2 0.98 0.16
-14 1 2 1.07 0.17
-13 -1 2 9.89 0.38
-13 1 2 9.57 0.39
-12 -1 2 7.52 0.31
-12 1 2 7.2 0.32
-12 1 2 6.74 0.28
-11 -1 2 10.71 0.34
-11 1 2 10.69 0.34
-11 1 2 9.53 0.34
-10 -1 2 1.27 0.14
10 -1 -2 1.05 0.14
-10 -1 2 1.36 0.13
-10 1 2 1 0.13
-10 1 2 1.21 0.13
-10 1 2 1.16 0.14
10 1 -2 1.2 0.15
-9 -1 2 8.99 0.28
-9 -1 2 9.58 0.26
-9 1 2 9.22 0.29
9 1 -2 9.63 0.31
-9 1 2 8.95 0.27
-9 1 2 9.73 0.31
-8 -1 2 46.93 0.66
-8 -1 2 45.44 0.62
-8 1 2 45.04 0.67
-8 1 2 46.61 0.58
-8 1 2 45.96 0.66
8 1 -2 46.05 0.7
-8 1 2 44.79 0.7
-7 -1 2 84.55 1.01
-7 -1 2 85.92 0.97
-7 -1 2 86.51 0.94
-7 1 2 83.74 1.02
-7 1 2 85.95 0.99
7 1 -2 84.1 1.01
-7 1 2 86.19 0.98
-6 -1 2 6.22 0.17
-6 -1 2 6.41 0.2
-6 1 2 6.35 0.2
6 1 -2 6.53 0.2
-6 1 2 6.25 0.18
-5 -1 2 14.77 0.28
-5 1 2 14.68 0.27
5 1 -2 15.12 0.29
-5 1 2 14.5 0.28
-4 -1 2 2.37 0.09
-4 1 2 2.34 0.1
4 1 -2 2.26 0.1
-3 -1 2 2.26 0.08
-3 1 2 2.24 0.08
3 1 -2 2.16 0.08
-2 1 2 27.34 0.31
2 1 -2 26.41 0.3
1 1 -2 206.4 1.83
-1 1 2 206.12 1.93
0 -1 2 27.32 0.32
0 1 -2 27.72 0.24
0 1 2 27.03 0.27
-1 -1 -2 987.58 9.47
-1 1 -2 1000 8.57
-2 1 -2 395.54 3.67
2 1 2 396.46 4.34
2 1 2 384 3.59
3 1 2 3.79 0.11
-3 1 -2 3.87 0.11
4 1 2 81.03 0.86
-4 1 -2 80.75 0.86
-5 -1 -2 70.26 0.64
5 1 2 69.18 0.81
-5 1 -2 70 0.81
-5 1 -2 70.35 0.65
-6 -1 -2 118.64 1.22
-6 1 -2 117.11 1.26
6 1 2 115.41 1.25
7 -1 2 20.08 0.4
-7 -1 -2 19.39 0.37
7 1 2 19.86 0.4
-7 1 -2 19.93 0.38
-7 1 -2 19.92 0.41
-8 -1 -2 4.73 0.19
8 -1 2 4.34 0.2
8 1 2 4.36 0.2
-8 1 -2 4.57 0.21
-8 1 -2 4.42 0.19
9 -1 2 4.84 0.22
-9 -1 -2 4.64 0.21
-9 1 -2 4.67 0.22
9 1 2 4.94 0.22
-9 1 -2 4.99 0.22
-10 -1 -2 5.2 0.24
10 -1 2 5.08 0.24
10 1 2 4.81 0.24
-10 1 -2 5.29 0.25
-11 -1 -2 3 0.21
-11 1 -2 3.03 0.22
-12 -1 -2 6.37 0.31
-12 1 -2 6.42 0.31
-13 -1 -2 3.03 0.26
-13 1 -2 3.22 0.26
-14 -1 -2 18.58 0.54
-14 1 -2 18.99 0.56
-15 -1 -2 6.78 0.34
-15 1 -2 6.85 0.36
-15 -2 2 2.8 0.23
-15 2 2 1.88 0.23
-14 -2 2 0.93 0.16
-14 2 2 0.94 0.17
-13 -2 2 3.46 0.24
-13 2 2 4.04 0.27
-12 -2 2 9.42 0.34
-12 2 2 10.13 0.38
-12 2 2 10.42 0.36
-11 -2 2 12.07 0.36
-11 2 2 12.37 0.39
-11 2 2 12.56 0.37
-10 -2 2 5.78 0.24
-10 2 2 5.99 0.26
-10 2 2 6.05 0.25
-10 2 2 6.13 0.26
10 2 -2 5.91 0.26
-9 -2 2 2.58 0.15
-9 2 2 2.16 0.16
9 2 -2 2.23 0.16
-9 2 2 2.33 0.16
-9 2 2 2.21 0.16
-9 2 2 2.33 0.13
-8 -2 2 99.14 1.12
-8 2 2 99.97 1.21
-8 2 2 98.45 1.15
-8 2 2 100.1 1.07
8 2 -2 98.93 1.18
-8 2 2 98.61 1.17
-7 -2 2 100.26 1.03
-7 -2 2 101.19 1.09
-7 2 2 98.93 1.15
-7 2 2 96.79 1.11
-7 2 2 99.8 1.13
7 2 -2 98.08 1.13
-7 2 2 100.3 1.05
-6 2 2 6.81 0.24
-6 2 2 7 0.21
-6 2 2 6.72 0.2
6 2 -2 6.91 0.2
-5 2 2 6.56 0.18
5 2 -2 6.45 0.18
-5 2 2 6.64 0.19
4 2 -2 131.83 1.26
-4 2 2 128.89 1.27
3 2 -2 72.29 0.73
-3 2 2 71.57 0.74
2 2 -2 76.82 0.73
-2 2 2 76.42 0.74
-1 2 2 6.94 0.11
1 2 -2 6.64 0.1
0 2 2 454.17 4.22
0 2 -2 471.05 4.04
-1 -2 -2 671.71 6.87
1 2 2 678.97 6.17
-1 2 -2 681.2 5.98
2 2 2 31.74 0.38
-2 2 -2 32.7 0.37
2 2 2 33.31 0.49
-3 2 -2 17.42 0.26
3 2 2 16.79 0.27
3 2 2 17.66 0.36
-4 2 -2 6.6 0.17
4 2 2 6.67 0.23
-4 2 -2 6.61 0.13
4 2 2 6.56 0.17
-5 -2 -2 58.32 0.54
5 2 2 58.96 0.71
-5 2 -2 58.72 0.57
-5 2 -2 57.3 0.71
-6 -2 -2 68.47 0.8
-6 2 -2 67.55 0.84
6 2 2 67.86 0.84
-6 2 -2 68.89 0.63
-6 2 -2 68.36 0.91
7 -2 2 13.15 0.27
-7 -2 -2 12.77 0.29
7 2 2 12.81 0.32
-7 2 -2 13.23 0.33
-7 2 -2 13.01 0.31
8 -2 2 2.58 0.13
-8 -2 -2 2.66 0.15
8 2 2 2.85 0.16
-8 2 -2 2.62 0.16
-8 2 -2 2.39 0.15
9 -2 2 5.01 0.23
-9 -2 -2 4.76 0.21
9 2 2 4.79 0.22
-9 2 -2 4.93 0.22
-9 2 -2 4.61 0.23
-10 -2 -2 22.63 0.49
10 -2 2 23.32 0.58
-10 2 -2 22.95 0.55
-10 2 -2 23.77 0.52
-11 -2 -2 1.27 0.15
-11 2 -2 1.53 0.17
-12 -2 -2 10.11 0.36
-12 2 -2 10.42 0.38
-13 -2 -2 5.36 0.3
-13 2 -2 5.58 0.31
-14 -2 -2 0.46 0.13
-14 2 -2 0.37 0.14
-15 -3 2 0.52 0.13
-15 3 2 0.63 0.17
-14 -3 2 3.77 0.24
-14 3 2 3.92 0.3
-13 -3 2 9.07 0.35
-13 3 2 8.92 0.35
-13 3 2 8.63 0.38
-12 -3 2 11.14 0.36
-12 3 2 10.89 0.38
-12 3 2 10.97 0.4
-11 -3 2 0.95 0.13
-11 3 2 0.49 0.12
-11 3 2 0.6 0.12
-10 -3 2 2.1 0.16
-10 3 2 2.38 0.18
-10 3 2 2.48 0.28
10 3 -2 2.23 0.17
-10 3 2 2.34 0.15
-10 3 2 2.14 0.17
-9 -3 2 39.76 0.62
-9 3 2 40.32 0.67
-9 3 2 40.49 0.59
9 3 -2 40.57 0.67
-9 3 2 39.03 0.69
-9 3 2 39.89 0.67
-8 -3 2 8.11 0.24
-8 3 2 7.8 0.26
8 3 -2 7.82 0.26
-8 3 2 8.06 0.23
-8 3 2 8.19 0.28
-8 3 2 7.89 0.26
-7 -3 2 17.85 0.33
-7 3 2 17.51 0.38
-7 3 2 17.56 0.37
7 3 -2 16.66 0.36
-7 3 2 17.78 0.33
-6 3 2 0.33 0.06
-6 3 2 0.22 0.05
-6 3 2 0.28 0.06
-6 3 2 0.39 0.06
6 3 -2 0.29 0.06
-5 3 2 63.18 0.76
-5 3 2 65.17 0.76
5 3 -2 64.81 0.75
4 3 -2 60.5 0.68
-4 3 2 60.42 0.69
3 3 -2 19.68 0.28
-3 3 2 19.69 0.29
-2 3 2 14.14 0.21
2 3 -2 14.22 0.21
-1 3 2 18.02 0.24
1 3 -2 17.53 0.22
0 3 2 371 3.56
0 3 -2 371.1 3.38
1 3 2 117.37 1.1
-1 3 -2 119.24 1.06
2 3 2 206.59 1.86
-2 3 -2 205.98 1.82
3 3 2 44.07 0.53
3 3 2 44.87 0.66
-3 3 -2 43.46 0.51
-4 -3 -2 88.93 0.83
-4 3 -2 88.76 0.93
4 3 2 87.87 0.95
-4 3 -2 89.33 0.84
4 3 2 89.94 1.11
-4 3 -2 88.86 0.94
-5 -3 -2 14.52 0.19
-5 3 -2 15.3 0.29
5 3 2 14.86 0.39
-5 3 -2 14.76 0.3
5 3 2 14.98 0.3
-5 3 -2 14.69 0.21
-6 -3 -2 17.73 0.33
6 -3 2 18.15 0.33
6 -3 2 17.91 0.27
6 3 2 18.1 0.46
-6 3 -2 17.47 0.36
-6 3 -2 17.16 0.34
-6 3 -2 17.98 0.35
6 3 2 17.71 0.36
-6 3 -2 17.41 0.23
-7 -3 -2 12.94 0.3
7 -3 2 12.76 0.29
-7 3 -2 12.78 0.33
-7 3 -2 12.67 0.31
7 3 2 12.92 0.32
-8 -3 -2 6.7 0.23
8 -3 2 6.33 0.21
-8 3 -2 6.41 0.25
8 3 2 5.99 0.23
-8 3 -2 6.04 0.23
9 -3 2 0.72 0.1
-9 -3 -2 0.54 0.1
9 3 2 0.84 0.12
-9 3 -2 0.51 0.1
-9 3 -2 0.62 0.11
-10 -3 -2 1.36 0.14
-10 3 -2 1.38 0.15
-11 -3 -2 0.26 0.09
-11 3 -2 0.2 0.1
-12 -3 -2 0.55 0.12
-12 3 -2 0.46 0.13
-13 -3 -2 5.16 0.29
-13 3 -2 5.18 0.32
-14 3 -2 1.87 0.22
-14 -4 2 0.1 0.1
-14 4 2 0.22 0.13
-13 -4 2 0.65 0.13
-13 4 2 0.92 0.18
-13 4 2 0.9 0.16
-12 -4 2 17.28 0.45
-12 4 2 17.44 0.49
-12 4 2 17.54 0.51
11 -4 -2 7.03 0.28
-11 -4 2 6.69 0.27
-11 4 2 6.7 0.31
-11 4 2 7.22 0.31
-10 -4 2 2.08 0.16
-10 4 2 1.78 0.18
-10 4 2 2.01 0.19
-9 -4 2 17.69 0.38
-9 4 2 17.43 0.44
-9 4 2 17.75 0.45
9 4 -2 17.9 0.42
-9 4 2 17.03 0.42
-9 4 2 17.69 0.38
-8 -4 2 34.86 0.53
-8 4 2 33.3 0.58
-8 4 2 34.86 0.54
-8 4 2 33.7 0.59
-8 4 2 33.62 0.61
8 4 -2 34.23 0.58
-7 -4 2 14.78 0.3
-7 4 2 14.38 0.35
-7 4 2 14.67 0.34
-7 4 2 14.73 0.31
-7 4 2 14.85 0.36
7 4 -2 13.9 0.33
-6 4 2 9.14 0.25
-6 4 2 9.37 0.23
6 4 -2 9.3 0.25
-6 4 2 9.31 0.26
-6 4 2 9.32 0.25
-5 4 2 17.69 0.34
-5 4 2 17.63 0.31
-5 4 2 18.27 0.33
-5 4 2 18.51 0.34
5 4 -2 17.93 0.33
4 4 -2 52.31 0.63
4 4 -2 51.46 0.62
-4 4 2 53.32 0.64
-3 4 2 56.45 0.52
3 4 -2 54.91 0.62
-2 4 2 38.65 0.45
2 4 -2 38.76 0.45
-1 4 2 2.32 0.08
1 4 -2 2.42 0.08
0 4 -2 49.56 0.5
0 4 2 48.78 0.54
-1 4 -2 132.85 1.2
1 4 2 130.32 1.24
-2 4 -2 31.32 0.38
2 4 2 32.05 0.42
-3 -4 -2 40.65 0.45
-3 4 -2 40.12 0.49
-3 4 -2 39.28 0.44
3 4 2 39.37 0.51
-4 -4 -2 1.9 0.07
-4 4 -2 2.05 0.08
-4 4 -2 2.14 0.1
4 4 2 1.97 0.14
-4 4 -2 2 0.1
5 -4 2 108.86 1.16
-5 -4 -2 109.2 1
5 4 2 111.04 1.39
5 4 2 112.68 1.14
-5 4 -2 110.45 1.19
-5 4 -2 107.89 1.16
-5 4 -2 108.83 1.04
5 4 2 110.92 1.18
6 -4 2 21.84 0.31
6 -4 2 21.93 0.4
6 4 2 21.73 0.38
-6 4 -2 22.01 0.4
6 4 2 21.96 0.41
-6 4 -2 22.15 0.4
-6 4 -2 21.75 0.28
-6 4 -2 21.64 0.42
7 -4 2 1.29 0.08
7 -4 2 1.06 0.11
-7 4 -2 1.02 0.11
-7 4 -2 1.09 0.11
-7 4 -2 1.18 0.05
-7 4 -2 1.23 0.12
7 4 2 1.2 0.11
8 -4 2 2.42 0.15
8 4 2 2.41 0.15
-8 4 -2 2.66 0.17
-8 4 -2 2.36 0.17
9 -4 2 3.36 0.18
9 4 2 2.96 0.18
-9 4 -2 2.97 0.19
-9 4 -2 3.47 0.21
10 -4 2 3.4 0.2
-10 4 -2 3.25 0.21
-11 4 -2 4 0.26
-12 4 -2 1.67 0.2
-13 4 -2 1.58 0.21
13 4 2 1.54 0.19
14 4 2 0.68 0.14
-14 4 -2 0.86 0.16
-14 5 2 0.48 0.15
-13 5 2 4.79 0.31
-13 5 2 4.24 0.27
-12 -5 2 8.02 0.3
12 -5 -2 8.34 0.33
-12 5 2 8.24 0.38
-12 5 2 8.07 0.35
-11 -5 2 13.24 0.37
11 -5 -2 13.62 0.4
-11 5 2 13.99 0.45
-11 5 2 14.23 0.44
10 -5 -2 9.73 0.32
-10 -5 2 9.98 0.3
-10 5 2 9.94 0.36
-10 5 2 10.21 0.36
-9 -5 2 3.15 0.16
-9 5 2 3.16 0.22
-9 5 2 3.48 0.18
-9 5 2 3.47 0.21
-9 5 2 3.04 0.2
9 5 -2 3.43 0.19
-8 -5 2 13.05 0.3
-8 5 2 12.79 0.32
-8 5 2 12.64 0.35
8 5 -2 12.86 0.34
-8 5 2 12.68 0.35
-8 5 2 13.24 0.37
-7 5 2 4.9 0.19
-7 5 2 4.98 0.21
-7 5 2 4.9 0.21
7 5 -2 5.12 0.2
-7 5 2 5 0.21
-6 5 2 11.03 0.29
6 5 -2 10.72 0.3
6 5 -2 11.2 0.27
-6 5 2 10.49 0.28
6 5 -2 10.29 0.29
-6 5 2 10.7 0.28
-6 5 2 10.85 0.26
-5 5 2 4.89 0.17
-5 5 2 5.09 0.18
-5 5 2 4.98 0.18
5 5 -2 5.04 0.17
-5 5 2 5 0.18
-4 5 2 30.5 0.46
-4 5 2 31.47 0.32
4 5 -2 31.17 0.44
-4 5 2 31 0.45
-4 5 2 30.91 0.45
3 5 -2 0.88 0.07
-3 5 2 0.94 0.07
-3 5 2 0.99 0.05
-2 -5 2 29.34 0.33
-2 5 2 29.52 0.4
2 5 -2 28.93 0.38
-2 5 2 29.98 0.34
-1 -5 2 42.11 0.47
-1 5 2 42.35 0.5
-1 5 2 41.76 0.46
1 5 -2 42.66 0.48
0 -5 2 19.85 0.29
0 5 2 19.88 0.3
0 5 -2 19.36 0.27
1 -5 2 45.17 0.53
1 5 2 44.96 0.54
-1 5 -2 44.37 0.5
-2 -5 -2 1.78 0.08
2 -5 2 1.78 0.09
-2 5 -2 1.84 0.08
-2 5 -2 1.9 0.07
2 5 2 1.88 0.1
-3 -5 -2 10.38 0.19
3 -5 2 9.95 0.27
3 5 2 10.53 0.23
-3 5 -2 10.36 0.22
-3 5 -2 10.43 0.18
-3 5 -2 10.57 0.22
4 -5 2 17.37 0.33
-4 -5 -2 16.5 0.25
-4 5 -2 17.06 0.31
-4 5 -2 16.83 0.32
-4 5 -2 17.32 0.26
4 5 2 16.99 0.3
4 5 2 16.38 0.32
-5 -5 -2 2.2 0.08
5 -5 2 2.16 0.13
-5 -5 -2 2.15 0.08
5 -5 2 2.19 0.12
-5 5 -2 2.16 0.17
-5 5 -2 2.29 0.13
-5 5 -2 2.29 0.09
5 5 2 2.41 0.12
-5 5 -2 2.28 0.13
5 5 2 2.56 0.14
6 -5 2 27.3 0.47
-6 5 -2 27.77 0.49
-6 5 -2 28.44 0.48
6 5 2 27.64 0.45
-6 5 -2 27.76 0.35
6 5 2 27.82 0.48
-6 5 -2 27.8 0.48
7 -5 2 6.68 0.23
7 5 2 6.25 0.21
7 5 2 6.69 0.24
-7 5 -2 6.48 0.13
-7 5 -2 6.66 0.23
-7 5 -2 6.82 0.24
-7 5 -2 6.62 0.25
8 -5 2 2.37 0.16
8 5 2 2.12 0.14
8 5 2 2.41 0.16
-8 5 -2 2.53 0.17
-8 5 -2 2.16 0.16
9 -5 2 4.68 0.22
-9 5 -2 4.48 0.24
9 5 2 4.38 0.21
-9 5 -2 4.46 0.24
10 -5 2 6.34 0.27
-10 5 -2 6.26 0.29
10 5 2 6.26 0.27
11 -5 2 3.17 0.22
-11 5 -2 3.59 0.25
11 5 2 3.25 0.22
-12 5 -2 0.26 0.12
12 5 2 0.4 0.12
-13 5 -2 4.6 0.31
13 5 2 3.93 0.27
-14 5 -2 1.08 0.18
14 5 2 1.1 0.17
-14 6 2 8.38 0.4
13 -6 -2 3.98 0.26
-13 6 2 3.34 0.26
-13 6 2 3.43 0.29
12 -6 -2 3.05 0.24
-12 6 2 2.89 0.27
-12 6 2 2.97 0.24
11 -6 -2 14.12 0.42
-11 6 2 14.35 0.47
-11 6 2 13.92 0.44
10 -6 -2 2.76 0.2
-10 6 2 2.71 0.22
-10 6 2 2.41 0.22
-9 6 2 9.56 0.34
-9 6 2 10.04 0.35
-8 6 2 7.17 0.25
-8 6 2 7.36 0.29
-8 6 2 7.24 0.28
-8 6 2 7.22 0.28
8 6 -2 7 0.25
-7 6 2 1.86 0.14
-7 6 2 1.67 0.15
-7 6 2 1.69 0.14
-7 6 2 1.93 0.15
7 6 -2 1.98 0.14
-6 6 2 12.02 0.31
-6 6 2 11.54 0.31
-6 6 2 11.56 0.3
-6 6 2 11.53 0.29
6 6 -2 11.6 0.29
-5 6 2 8.09 0.12
-5 6 2 8.26 0.24
-5 6 2 7.83 0.24
-5 6 2 8.23 0.24
-5 6 2 7.9 0.23
5 6 -2 7.97 0.23
-4 6 2 11.22 0.17
-4 6 2 11.3 0.26
-4 6 2 11.01 0.25
-4 6 2 11.17 0.26
4 6 -2 11.27 0.25
-3 6 2 2.23 0.11
3 6 -2 2.36 0.11
-3 6 2 2.26 0.11
-3 6 2 2.21 0.08
-3 6 2 2.12 0.11
-2 -6 2 14.48 0.22
2 6 -2 14.75 0.26
-2 6 2 14.44 0.27
-2 6 2 14.35 0.3
-2 6 2 14.48 0.22
-1 -6 2 2.7 0.1
1 -6 -2 2.77 0.11
-1 6 2 2.79 0.11
-1 6 2 2.73 0.09
1 6 -2 2.81 0.1
0 -6 -2 15.12 0.27
0 -6 2 15.75 0.27
0 6 -2 15.88 0.26
0 6 2 15.27 0.28
0 6 2 15.93 0.25
-1 -6 -2 1.3 0.08
1 -6 2 1.21 0.09
1 6 2 1.12 0.08
-1 6 -2 1.24 0.07
1 6 2 1.31 0.08
-1 6 -2 1.29 0.08
2 -6 2 14.34 0.28
-2 -6 -2 13.57 0.25
2 -6 2 14.65 0.28
2 6 2 13.87 0.26
2 6 2 14.01 0.26
-2 6 -2 14.2 0.26
2 6 2 13.89 0.28
-2 6 -2 14.1 0.23
3 -6 2 0.72 0.08
-3 -6 -2 0.59 0.06
3 -6 2 0.54 0.07
-3 6 -2 0.55 0.06
-3 6 -2 0.51 0.06
3 6 2 0.42 0.06
-3 6 -2 0.47 0.07
3 6 2 0.6 0.08
-4 -6 -2 52.72 0.58
4 -6 2 52 0.7
-4 6 -2 53.08 0.68
4 6 2 53.17 0.7
-4 6 -2 51.89 0.66
4 6 2 53.4 0.65
-4 6 -2 52.68 0.59
-5 -6 -2 9.19 0.17
5 -6 2 9.33 0.26
5 6 2 9.04 0.23
5 6 2 9.03 0.26
-5 6 -2 8.9 0.26
-5 6 -2 8.86 0.19
-5 6 -2 8.92 0.24
6 -6 2 0.95 0.11
-6 6 -2 1.14 0.08
-6 6 -2 1.18 0.13
-6 6 -2 1.01 0.11
6 6 2 1.24 0.13
-6 6 -2 1.11 0.12
6 6 2 1.12 0.11
7 -6 2 3.7 0.19
-7 6 -2 3.55 0.18
-7 6 -2 3.76 0.11
-7 6 -2 3.49 0.19
7 6 2 3.91 0.19
-7 6 -2 3.91 0.19
7 6 2 3.89 0.18
8 -6 2 4.91 0.23
-8 6 -2 4.94 0.23
8 6 2 4.94 0.21
-8 6 -2 4.91 0.24
9 -6 2 5.65 0.26
-9 6 -2 5.68 0.26
9 6 2 5.67 0.24
10 -6 2 0.6 0.12
-10 6 -2 0.56 0.13
10 6 2 0.72 0.12
11 -6 2 19.08 0.5
11 6 2 19.24 0.48
-11 6 -2 19 0.52
12 -6 2 1.48 0.18
12 6 2 1.58 0.19
-12 6 -2 1.93 0.21
13 6 2 0.91 0.15
-13 6 -2 0.92 0.18
13 -7 -2 2.34 0.23
-13 7 2 2.09 0.25
-13 7 2 2.05 0.25
12 -7 -2 0.18 0.11
-12 7 2 0.06 0.12
-12 7 2 0.08 0.1
11 -7 -2 0.89 0.15
-11 7 2 0.93 0.16
-11 7 2 1.01 0.17
10 -7 -2 1.45 0.19
-10 7 2 1.72 0.19
-10 7 2 1.84 0.2
9 -7 -2 5.88 0.27
-9 7 2 5.9 0.28
-9 7 2 5.92 0.29
8 -7 -2 13.22 0.38
-8 7 2 12.93 0.39
8 7 -2 12.94 0.41
-8 7 2 13.45 0.39
7 7 -2 6.2 0.23
-7 7 2 6.26 0.26
-7 7 2 6.42 0.26
-7 7 2 6.35 0.26
-6 7 2 4.68 0.2
-6 7 2 5.03 0.21
-6 7 2 4.72 0.21
-6 7 2 5.19 0.22
6 7 -2 4.51 0.19
5 7 -2 1.97 0.13
-5 7 2 2.3 0.14
-5 7 2 2.35 0.14
-5 7 2 2.23 0.14
-5 7 2 2.11 0.07
-5 7 2 2.14 0.14
-4 7 2 4.49 0.18
-4 7 2 4.18 0.11
-4 7 2 4.75 0.18
4 7 -2 4.17 0.17
-4 7 2 4.16 0.17
-4 7 2 4.27 0.18
-3 -7 2 39.33 0.41
3 7 -2 39.92 0.54
-3 7 2 38.72 0.55
-3 7 2 39.14 0.56
-3 7 2 38.83 0.45
-3 7 2 39.22 0.54
-2 -7 2 9.49 0.19
-2 7 2 9.22 0.23
-2 7 2 9.34 0.18
-2 7 2 9.72 0.22
-2 7 2 9.57 0.22
2 7 -2 9.8 0.22
1 -7 -2 5.21 0.16
-1 -7 2 5.22 0.15
-1 7 2 5.35 0.16
-1 7 2 5.19 0.17
-1 7 2 4.85 0.13
1 7 -2 5.29 0.16
0 -7 -2 9.98 0.23
0 -7 2 9.79 0.22
0 7 -2 9.86 0.21
0 7 2 9.91 0.23
0 7 2 9.89 0.2
0 7 2 9.98 0.21
1 -7 2 29.16 0.44
1 -7 2 28.95 0.44
-1 -7 -2 28.24 0.42
1 7 2 29.1 0.4
1 7 2 29.58 0.42
1 7 2 29.41 0.44
-1 7 -2 29.3 0.41
2 -7 2 5.45 0.18
-2 -7 -2 5.85 0.17
2 -7 2 5.36 0.18
2 7 2 5.46 0.17
2 7 2 5.62 0.19
-2 7 -2 5.57 0.15
-2 7 -2 5.39 0.17
3 -7 2 8.36 0.23
3 -7 2 7.97 0.24
-3 -7 -2 8.09 0.2
-3 -7 -2 7.91 0.2
-3 7 -2 8.13 0.19
-3 7 -2 8.4 0.22
3 7 2 8.26 0.23
3 7 2 8.39 0.21
-4 -7 -2 5.51 0.15
-4 -7 -2 5.53 0.15
4 -7 2 5.36 0.2
-4 7 -2 5.39 0.19
4 7 2 5.41 0.18
4 7 2 5.38 0.2
-4 7 -2 5.46 0.15
5 -7 2 1.88 0.14
-5 -7 -2 1.73 0.08
-5 7 -2 1.85 0.13
-5 7 -2 2.06 0.14
5 7 2 1.79 0.13
-5 7 -2 1.84 0.1
5 7 2 1.79 0.12
6 -7 2 16.88 0.4
-6 7 -2 16.44 0.28
6 7 2 16.93 0.39
-6 7 -2 16.62 0.37
-6 7 -2 16.1 0.39
6 7 2 16.71 0.36
7 -7 2 0.14 0.07
7 7 2 0.02 0.07
7 7 2 0 0.06
-7 7 -2 0.01 0.03
-7 7 -2 -0.04 0.05
8 -7 2 0.06 0.08
8 7 2 0.1 0.07
9 -7 2 0.19 0.09
9 7 2 0.1 0.08
10 -7 2 13.21 0.42
10 7 2 13.21 0.39
11 -7 2 12.58 0.42
11 7 2 12.97 0.41
12 -7 2 5.59 0.3
12 7 2 6.58 0.31
13 7 2 1.65 0.19
13 -8 -2 1.1 0.18
-13 8 2 1.31 0.2
12 -8 -2 0.15 0.1
-12 8 2 0.24 0.13
-12 8 2 0.11 0.1
11 -8 -2 1.2 0.18
-11 8 2 1.1 0.17
-11 8 2 1.54 0.2
10 -8 -2 1.42 0.18
-10 8 2 1.53 0.2
-10 8 2 1.56 0.19
9 -8 -2 1.8 0.19
-9 8 2 1.8 0.2
-9 8 2 1.89 0.2
8 -8 -2 0.09 0.09
-8 8 2 0.14 0.1
-8 8 2 0.31 0.11
7 -8 -2 2.11 0.19
7 8 -2 1.82 0.16
-7 8 2 1.96 0.18
-7 8 2 1.98 0.18
6 -8 -2 1.29 0.14
-6 8 2 1.61 0.15
6 8 -2 1.35 0.13
-6 8 2 1.53 0.16
-6 8 2 1.44 0.15
-5 8 2 12.77 0.34
5 8 -2 12.75 0.31
-5 8 2 12.8 0.33
-5 8 2 13.02 0.2
-5 8 2 12.68 0.33
-4 8 2 1.06 0.07
4 8 -2 1.31 0.11
-4 8 2 1.27 0.11
-4 8 2 1.36 0.12
-3 -8 2 1.78 0.07
-3 8 2 2.13 0.14
-3 8 2 2.32 0.13
3 8 -2 2.2 0.13
-3 8 2 2.03 0.1
-2 -8 2 6.27 0.16
-2 8 2 6.12 0.19
2 8 -2 6.39 0.19
-2 8 2 6.38 0.16
-2 8 2 6.26 0.2
-1 -8 2 50.96 0.62
1 -8 -2 50.14 0.66
-1 8 2 49.96 0.63
-1 8 2 50.97 0.66
-1 8 2 49.66 0.59
1 8 -2 50.31 0.63
0 -8 2 3.99 0.16
0 -8 -2 3.97 0.16
0 -8 -2 4 0.16
0 8 2 3.95 0.16
0 8 2 3.89 0.15
0 8 2 3.8 0.14
0 8 -2 4 0.15
1 -8 2 0.54 0.08
-1 -8 -2 0.57 0.08
-1 -8 -2 0.47 0.07
1 -8 2 0.52 0.08
1 8 2 0.51 0.07
1 8 2 0.66 0.07
-1 8 -2 0.41 0.07
-1 8 -2 0.53 0.06
1 8 2 0.52 0.08
-2 -8 -2 16.26 0.31
2 -8 2 15.09 0.33
2 -8 2 15.85 0.33
-2 -8 -2 15.7 0.31
-2 8 -2 15.37 0.28
2 8 2 15.59 0.31
-2 8 -2 15.93 0.32
2 8 2 15.59 0.33
-3 -8 -2 7.42 0.2
3 -8 2 7.24 0.24
3 -8 2 7.15 0.23
-3 -8 -2 7.44 0.2
3 8 2 7.58 0.21
-3 8 -2 7.1 0.22
-3 8 -2 6.98 0.18
3 8 2 7.32 0.23
-4 -8 -2 1.96 0.11
4 -8 2 1.88 0.15
4 -8 2 2.17 0.15
-4 8 -2 2.16 0.14
4 8 2 2.09 0.14
4 8 2 2.29 0.13
-4 8 -2 1.96 0.11
-5 -8 -2 3.47 0.11
5 -8 2 3.24 0.19
-5 8 -2 3.11 0.13
-5 8 -2 3.44 0.18
5 8 2 3.34 0.18
5 8 2 3.38 0.17
6 -8 2 0.19 0.08
-6 8 -2 0.24 0.08
-6 8 -2 0.14 0.05
6 8 2 0.23 0.07
7 -8 2 0.47 0.11
7 8 2 0.34 0.09
-7 8 -2 0.27 0.05
8 -8 2 8.98 0.34
8 8 2 8.64 0.29
9 -8 2 1.52 0.18
9 8 2 1.3 0.15
10 -8 2 3.23 0.24
10 8 2 3.06 0.22
11 -8 2 2.41 0.23
11 8 2 2.08 0.2
12 -8 2 13.2 0.46
12 8 2 13.85 0.44
12 -9 -2 1.75 0.22
-12 9 2 2.11 0.24
11 -9 -2 0.68 0.15
-11 9 2 0.43 0.13
-11 9 2 0.72 0.16
10 -9 -2 0.17 0.11
-10 9 2 0.38 0.12
-10 9 2 0.16 0.12
9 -9 -2 8.17 0.35
-9 9 2 8.09 0.36
-9 9 2 8.33 0.34
8 -9 -2 6.44 0.3
-8 9 2 7.08 0.31
-8 9 2 6.44 0.31
7 -9 -2 9.35 0.34
-7 9 2 9.99 0.35
-7 9 2 9.24 0.34
6 -9 -2 17.79 0.44
-6 9 2 17.38 0.44
5 -9 -2 24.31 0.5
-5 9 2 24.36 0.32
5 9 -2 23.87 0.46
-5 9 2 23.88 0.49
4 -9 -2 34.8 0.6
-4 9 2 35.04 0.58
-4 9 2 33.75 0.58
4 9 -2 33.8 0.54
-4 9 2 34.59 0.44
-3 -9 2 30.47 0.36
3 -9 -2 30.49 0.53
-3 9 2 30.36 0.41
-3 9 2 29.2 0.52
-3 9 2 30.34 0.51
3 9 -2 30.35 0.49
-2 -9 2 49.5 0.59
2 -9 -2 50.01 0.69
-2 9 2 48.52 0.69
-2 9 2 48.5 0.59
2 9 -2 48.1 0.65
-2 9 2 48.25 0.67
-1 -9 2 5.32 0.18
1 -9 -2 5.44 0.2
1 -9 -2 5.23 0.2
-1 9 2 5.24 0.2
1 9 -2 5.32 0.18
-1 9 2 5.15 0.18
-1 9 2 5.06 0.16
0 -9 2 6.98 0.21
0 -9 -2 7.04 0.22
0 -9 -2 6.98 0.23
0 9 -2 6.74 0.2
0 9 2 7.22 0.21
0 9 2 7.23 0.2
0 9 2 6.83 0.22
-1 -9 -2 3.21 0.16
-1 -9 -2 3.24 0.16
1 -9 2 3.09 0.16
1 -9 2 3.04 0.15
1 9 2 3.11 0.16
-1 9 -2 3.04 0.15
1 9 2 2.94 0.14
-1 9 -2 2.9 0.13
1 9 2 2.94 0.14
2 -9 2 2.66 0.15
-2 -9 -2 2.45 0.14
2 -9 2 2.36 0.15
2 9 2 2.56 0.15
2 9 2 2.65 0.14
-2 9 -2 2.58 0.13
-2 9 -2 2.64 0.14
-3 -9 -2 2.8 0.14
3 -9 2 2.86 0.17
3 -9 2 2.74 0.16
-3 9 -2 2.76 0.15
-3 9 -2 2.73 0.13
3 9 2 2.79 0.15
3 9 2 2.87 0.16
4 -9 2 2.51 0.17
4 -9 2 2.68 0.17
-4 -9 -2 2.59 0.13
4 9 2 2.51 0.15
4 9 2 2.72 0.19
-4 9 -2 2.77 0.13
-4 9 -2 2.58 0.2
5 -9 2 2.13 0.17
-5 -9 -2 1.95 0.1
-5 9 -2 1.87 0.12
5 9 2 1.89 0.14
6 -9 2 12.43 0.38
-6 9 -2 13.68 0.27
6 9 2 13.58 0.34
7 -9 2 14.95 0.43
7 9 2 15.08 0.38
-7 9 -2 15.56 0.27
8 -9 2 1.75 0.19
8 9 2 1.79 0.17
9 -9 2 3.21 0.25
9 9 2 3.03 0.22
10 -9 2 1.56 0.2
10 9 2 1.44 0.17
11 -9 2 3.44 0.26
11 9 2 3.5 0.25
11 -10 -2 0.31 0.13
-11 10 2 0.62 0.15
10 -10 -2 0.38 0.13
-10 10 2 0.51 0.14
9 -10 -2 2.5 0.24
-9 10 2 2.55 0.25
8 -10 -2 0.13 0.09
-8 10 2 0.26 0.12
7 -10 -2 0.32 0.11
-7 10 2 0.06 0.1
6 -10 -2 9.72 0.34
-6 10 2 8.96 0.33
5 -10 -2 2.82 0.2
-5 10 2 3.17 0.2
-5 10 2 3.23 0.11
4 -10 -2 4.81 0.23
-4 10 2 4.52 0.22
-4 10 2 4.52 0.15
3 -10 -2 1.27 0.13
-3 -10 2 1.45 0.07
-3 10 2 1.63 0.11
-3 10 2 1.33 0.13
2 -10 -2 3.54 0.19
-2 -10 2 3.41 0.14
-2 10 2 3.48 0.18
-2 10 2 3.9 0.15
-1 -10 2 1.21 0.11
1 -10 -2 1.29 0.13
-1 10 2 1.33 0.11
-1 10 2 1.43 0.13
0 -10 -2 7.78 0.26
0 -10 2 7.68 0.24
0 10 2 7.33 0.21
0 10 2 7.39 0.23
1 -10 2 5.61 0.22
-1 -10 -2 5.86 0.22
1 10 2 5.48 0.2
-1 10 -2 5.72 0.19
1 10 2 5.79 0.2
2 -10 2 5.16 0.22
2 -10 2 4.79 0.21
-2 -10 -2 4.77 0.2
2 10 2 4.82 0.19
-2 10 -2 4.81 0.18
3 -10 2 0.08 0.07
-3 -10 -2 0.14 0.06
3 -10 2 0.16 0.07
3 10 2 0.17 0.07
-3 10 -2 0.13 0.06
4 -10 2 2.31 0.18
-4 -10 -2 2.11 0.12
4 -10 2 2.07 0.17
-4 10 -2 2.34 0.14
4 10 2 2.28 0.15
-5 -10 -2 0.46 0.06
5 -10 2 0.28 0.09
5 10 2 0.45 0.1
-5 10 -2 0.41 0.08
6 -10 2 -0.01 0.07
6 10 2 0.09 0.1
-6 10 -2 -0.02 0.05
7 -10 2 0.61 0.13
-7 10 -2 1.15 0.09
8 -10 2 0.58 0.13
9 -10 2 0.14 0.11
10 -10 2 5.62 0.32
10 -11 -2 1.78 0.21
9 -11 -2 0.08 0.11
8 -11 -2 1.54 0.2
7 -11 -2 0.4 0.12
6 -11 -2 4.03 0.25
5 -11 -2 4.89 0.26
-5 11 2 4.65 0.14
4 -11 -2 0.87 0.13
-4 11 2 0.88 0.08
-3 11 2 0.98 0.1
2 -11 -2 5.6 0.25
-2 -11 2 6.01 0.18
-2 11 2 5.67 0.19
1 -11 -2 2.41 0.18
-1 -11 2 2.82 0.15
-1 11 2 2.65 0.15
0 -11 2 5.45 0.21
0 -11 -2 5.41 0.23
0 11 2 5.69 0.21
1 -11 2 0.86 0.12
-1 -11 -2 0.97 0.12
-1 11 -2 0.91 0.1
1 11 2 0.86 0.1
-2 -11 -2 0.35 0.08
2 -11 2 0.42 0.09
-2 11 -2 0.31 0.08
3 -11 2 0.76 0.12
-3 -11 -2 0.94 0.1
3 -11 2 0.78 0.12
-3 11 -2 0.78 0.1
-4 -11 -2 12.06 0.26
4 -11 2 12.07 0.36
4 -11 2 11.58 0.37
-4 11 -2 11.99 0.29
5 -11 2 0.24 0.1
5 -11 2 0.1 0.09
-5 11 -2 0.16 0.07
6 -11 2 1.8 0.19
-6 11 -2 1.76 0.12
7 -11 2 8.66 0.36
-7 11 -2 8.61 0.2
8 -11 2 3.04 0.25
9 -11 2 0.38 0.13
8 -12 -2 3.59 0.27
7 -12 -2 2.09 0.21
6 -12 -2 0.25 0.1
5 -12 -2 2.87 0.22
-5 12 2 2.54 0.11
-4 12 2 0.07 0.05
3 -12 -2 -0.02 0.08
-3 12 2 0.1 0.05
2 -12 -2 0.19 0.09
-2 -12 2 0.26 0.05
-2 12 2 0.27 0.07
1 -12 -2 4.42 0.24
-1 -12 2 4.53 0.18
-1 12 2 4.07 0.18
0 -12 -2 1.09 0.14
0 -12 2 0.9 0.11
0 12 2 0.8 0.1
1 -12 2 2.48 0.18
-1 -12 -2 3.06 0.19
-1 12 -2 2.69 0.16
1 12 2 2.49 0.17
-2 -12 -2 2.76 0.17
2 -12 2 2.69 0.2
-2 12 -2 3.1 0.17
3 -12 2 5.53 0.26
-3 -12 -2 5.62 0.2
-3 12 -2 5.76 0.22
4 -12 2 2.02 0.2
4 -12 2 2.17 0.2
-4 -12 -2 2.35 0.11
-4 12 -2 2.05 0.15
5 -12 2 4.65 0.26
5 -12 2 4.14 0.26
-5 12 -2 4.41 0.18
6 -12 2 16.82 0.49
-6 12 -2 16.76 0.33
7 -12 2 5.45 0.31
8 -12 2 3.86 0.28
7 -13 -2 3.85 0.27
6 -13 -2 4.22 0.26
-4 13 2 0.27 0.06
3 -13 -2 4.06 0.25
-3 13 2 4.08 0.17
2 -13 -2 3.2 0.23
-2 13 2 3.33 0.17
-1 -13 2 0.72 0.08
1 -13 -2 0.72 0.13
-1 13 2 0.8 0.1
0 -13 -2 4.02 0.23
0 -13 2 3.57 0.18
0 13 2 3.7 0.19
1 -13 2 6.88 0.26
-1 -13 -2 6.27 0.26
-1 13 -2 6.61 0.25
1 13 2 6.26 0.24
-2 -13 -2 1.75 0.15
2 -13 2 1.58 0.16
-2 13 -2 1.88 0.16
3 -13 2 0.97 0.14
-3 -13 -2 1.04 0.1
-3 13 -2 0.87 0.11
4 -13 2 1.89 0.19
-4 13 -2 1.99 0.15
5 -13 2 0.99 0.15
5 -13 2 1.11 0.16
-5 13 -2 0.74 0.09
6 -13 2 3.55 0.26
6 -13 2 3.38 0.26
3 -14 -2 0.05 0.11
2 -14 -2 1.19 0.16
-2 14 2 1.58 0.14
1 -14 -2 6.42 0.29
-1 14 2 6.48 0.23
0 -14 -2 2.32 0.19
0 -14 2 2.16 0.14
0 14 -2 2.57 0.22
0 14 2 2.42 0.17
1 -14 2 0.93 0.12
-1 -14 -2 1.05 0.12
1 14 2 0.95 0.12
-1 14 -2 0.96 0.11
2 -14 2 1.44 0.2
-2 -14 -2 1.38 0.13
-2 14 -2 1.33 0.14
2 14 2 1.2 0.13
-15 0 3 1.73 0.21
-14 0 3 0.53 0.13
-13 0 3 0.58 0.13
-12 0 3 9.26 0.31
-12 0 3 8.6 0.33
-11 0 3 3.37 0.19
-11 0 3 3.1 0.2
-10 0 3 20.29 0.43
10 0 -3 20.3 0.48
-10 0 3 19.65 0.45
-10 0 3 20.57 0.48
9 0 -3 2.81 0.17
-9 0 3 2.77 0.17
-9 0 3 2.7 0.16
-9 0 3 2.71 0.15
-8 0 3 35.41 0.54
-8 0 3 35.38 0.57
-8 0 3 34.95 0.59
-7 0 3 71.45 0.84
-7 0 3 69.68 0.88
-7 0 3 72.65 0.86
-6 0 3 167.89 1.62
-6 0 3 167.93 1.67
-5 0 3 1 0.08
-4 0 3 52.78 0.6
-3 0 3 54.91 0.58
-2 0 3 181.68 1.66
-1 0 3 1.36 0.04
0 0 3 0.88 0.02
0 0 -3 0.68 0.05
1 0 3 144.65 1.25
1 0 3 144.39 1.48
2 0 3 6.89 0.21
2 0 3 6.71 0.13
3 0 3 0.22 0.04
4 0 3 2.07 0.09
-4 0 -3 2.18 0.07
5 0 3 16.85 0.31
-5 0 -3 16.99 0.23
6 0 3 10.23 0.26
-6 0 -3 10.31 0.25
-6 0 -3 10.36 0.16
7 0 3 0.98 0.11
-7 0 -3 0.59 0.08
-8 0 -3 2.14 0.14
8 0 3 2.39 0.15
9 0 3 19.2 0.45
-9 0 -3 19.95 0.44
-10 0 -3 0.13 0.08
10 0 3 0.16 0.09
-11 0 -3 4.11 0.24
-12 0 -3 1.24 0.17
-13 0 -3 0.83 0.16
-14 0 -3 9.96 0.41
-15 -1 3 1.23 0.17
-15 1 3 1.22 0.18
-14 -1 3 3.2 0.24
-14 1 3 3.67 0.27
-13 -1 3 1.18 0.17
-13 1 3 0.84 0.16
-13 1 3 1.13 0.15
-12 -1 3 1.81 0.19
-12 1 3 1.77 0.19
-12 1 3 1.89 0.18
-11 -1 3 8.78 0.31
-11 1 3 8.7 0.3
-11 1 3 8.56 0.32
-10 -1 3 0.45 0.08
-10 -1 3 0.48 0.09
-10 1 3 0.47 0.09
-10 1 3 0.39 0.09
10 1 -3 0.45 0.09
-10 1 3 0.38 0.09
-9 -1 3 3.13 0.16
-9 -1 3 3.3 0.17
9 1 -3 3.27 0.19
-9 1 3 3.3 0.18
-9 1 3 3.31 0.18
-9 1 3 3.06 0.17
-8 -1 3 29.48 0.5
-8 -1 3 30.11 0.48
8 1 -3 29.85 0.53
-8 1 3 30.82 0.52
-8 1 3 30.37 0.51
-8 1 3 30.69 0.45
-8 1 3 30.23 0.54
-7 -1 3 16.58 0.31
-7 -1 3 16.19 0.35
-7 -1 3 16.73 0.33
-7 1 3 16.86 0.35
-7 1 3 16.04 0.33
7 1 -3 16.54 0.35
-7 1 3 16.67 0.36
-6 -1 3 6.03 0.19
-6 -1 3 6.28 0.17
-6 1 3 6.05 0.19
6 1 -3 5.87 0.19
-6 1 3 6.24 0.19
-5 -1 3 8.89 0.21
5 1 -3 8.94 0.21
-5 1 3 8.53 0.21
-4 -1 3 105.32 1.05
-4 1 3 105.14 1.05
4 1 -3 105.92 1.05
-3 -1 3 100.11 0.96
3 1 -3 102.25 0.97
-3 1 3 100.77 0.97
-2 -1 3 65.81 0.63
2 1 -3 67.27 0.64
-2 1 3 67.97 0.65
1 1 -3 4.05 0.06
-1 1 3 4.22 0.08
0 -1 3 54.4 0.55
0 1 3 56.11 0.51
1 -1 3 90.09 0.97
-1 -1 -3 88.83 0.98
-1 1 -3 90.31 0.8
1 1 3 89.6 0.82
2 1 3 0.13 0.03
-2 1 -3 0.19 0.03
2 1 3 0.19 0.05
3 1 3 18.35 0.28
-3 1 -3 18.76 0.27
3 1 3 18.24 0.39
-4 -1 -3 20.96 0.27
4 1 3 20.47 0.33
-4 1 -3 20.88 0.27
-4 1 -3 20.75 0.33
-5 -1 -3 3.9 0.1
5 -1 3 3.81 0.14
5 1 3 3.93 0.15
-5 1 -3 3.94 0.15
-5 1 -3 3.78 0.1
-6 -1 -3 28.2 0.43
6 -1 3 27.48 0.46
-6 -1 -3 27.24 0.3
-6 1 -3 27.63 0.46
-6 1 -3 27.32 0.32
-6 1 -3 26.18 0.43
6 1 3 26.8 0.45
-7 -1 -3 15.27 0.33
7 -1 3 15.25 0.35
7 1 3 15.43 0.35
-7 1 -3 15.07 0.18
-7 1 -3 15.38 0.33
-7 1 -3 15.07 0.35
-8 -1 -3 10.39 0.29
8 -1 3 10.67 0.31
-8 1 -3 10.58 0.29
8 1 3 10.75 0.3
-9 -1 -3 0.14 0.07
9 -1 3 0.21 0.07
-9 1 -3 0.22 0.08
9 1 3 0.19 0.06
10 -1 3 5.99 0.31
-10 -1 -3 5.85 0.25
-10 1 -3 6.45 0.27
-11 -1 -3 1.14 0.15
-11 1 -3 1.3 0.16
-12 -1 -3 1.19 0.16
-12 1 -3 1.25 0.17
-13 -1 -3 3.4 0.26
-13 1 -3 3.29 0.25
-14 -1 -3 2.37 0.23
-14 1 -3 2.36 0.25
-15 -2 3 6.66 0.32
-15 2 3 5.51 0.33
-14 -2 3 1.27 0.17
-14 2 3 1.49 0.2
-13 -2 3 1.1 0.15
-13 2 3 1.04 0.17
-13 2 3 0.94 0.15
-12 -2 3 5.44 0.26
-12 2 3 5.49 0.27
-12 2 3 5.94 0.3
-11 -2 3 0.05 0.06
-11 2 3 0.16 0.09
-11 2 3 0.06 0.08
-10 -2 3 0.42 0.09
-10 2 3 0.51 0.08
10 2 -3 0.7 0.11
-10 2 3 0.59 0.11
-10 2 3 0.53 0.11
-10 2 3 0.81 0.12
-9 -2 3 3 0.16
-9 2 3 3.39 0.19
-9 2 3 3.07 0.15
-9 2 3 3.36 0.18
-9 2 3 3.18 0.18
9 2 -3 3.09 0.18
-8 -2 3 52.1 0.7
8 2 -3 50.67 0.74
-8 2 3 51.69 0.73
-8 2 3 51.64 0.66
-8 2 3 51.6 0.75
-8 2 3 51.24 0.77
-7 -2 3 103.78 1.11
-7 2 3 103.73 1.09
7 2 -3 103.53 1.16
-7 2 3 101.74 1.15
-7 2 3 103.3 1.16
-7 2 3 101.82 1.19
6 2 -3 6.3 0.19
-6 2 3 5.9 0.19
-6 2 3 6.18 0.19
5 2 -3 6.39 0.18
-5 2 3 6.17 0.18
4 2 -3 6.78 0.16
-4 2 3 6.76 0.17
-3 2 3 133.27 1.25
3 2 -3 134.38 1.24
-2 2 3 44.5 0.46
2 2 -3 42.64 0.44
-1 2 3 55.22 0.54
1 2 -3 54.45 0.5
0 -2 3 6.17 0.14
0 2 3 5.89 0.11
0 2 -3 6.21 0.08
-1 -2 -3 215.65 2.11
-1 2 -3 226.98 2.01
1 2 3 223.58 1.98
-2 2 -3 240.27 2.1
2 2 3 239.66 2.42
2 2 3 243.69 2.13
3 2 3 60.16 0.67
3 2 3 61.23 0.83
-3 2 -3 62.1 0.66
-4 -2 -3 1.16 0.06
4 2 3 1.11 0.08
-4 2 -3 1.05 0.07
4 2 3 1.05 0.11
-4 2 -3 1.05 0.06
-5 -2 -3 10.88 0.17
-5 2 -3 9.82 0.24
5 2 3 10.51 0.25
5 2 3 10.3 0.33
-5 2 -3 10.65 0.18
-6 -2 -3 18.77 0.34
-6 -2 -3 18.59 0.23
-6 2 -3 18.44 0.25
6 2 3 18.31 0.36
-6 2 -3 18.78 0.37
6 2 3 17.75 0.47
-6 2 -3 19.29 0.35
-7 -2 -3 5.81 0.2
7 -2 3 5.59 0.18
-7 2 -3 5.58 0.11
7 2 3 5.59 0.21
-7 2 -3 5.42 0.2
-7 2 -3 5.65 0.22
8 -2 3 0.01 0.05
-8 -2 -3 0.08 0.06
-8 2 -3 0.03 0.06
-8 2 -3 -0.03 0.05
8 2 3 -0.03 0.04
-9 -2 -3 3.83 0.2
9 -2 3 3.85 0.2
-9 2 -3 3.51 0.2
9 2 3 3.71 0.19
-9 2 -3 3.61 0.2
-10 -2 -3 1.28 0.14
-10 2 -3 1.7 0.17
-11 -2 -3 0.08 0.09
-11 2 -3 -0.06 0.08
-12 -2 -3 4.07 0.26
-12 2 -3 4.37 0.27
13 -2 3 1.02 0.15
-13 -2 -3 0.87 0.16
-13 2 -3 1.04 0.18
-14 -2 -3 1.73 0.21
-14 2 -3 1.87 0.22
-15 -3 3 0.16 0.11
-15 3 3 0.45 0.14
-14 -3 3 2.12 0.21
-14 3 3 2.13 0.22
-14 3 3 2.04 0.22
-13 -3 3 1.22 0.16
-13 3 3 1.27 0.18
-13 3 3 1.38 0.18
-12 -3 3 7.81 0.3
-12 3 3 8.57 0.36
-12 3 3 8.28 0.34
-11 -3 3 9.2 0.31
-11 3 3 9.51 0.35
-11 3 3 10.13 0.35
-11 3 3 10.27 0.3
-10 -3 3 0.1 0.06
-10 3 3 0.2 0.07
10 3 -3 0.25 0.08
-10 3 3 0.2 0.08
-10 3 3 0.09 0.07
-9 -3 3 2.43 0.15
-9 3 3 2.53 0.17
9 3 -3 2.43 0.16
-9 3 3 2.63 0.18
-9 3 3 2.28 0.17
-9 3 3 2.27 0.14
-8 -3 3 17.14 0.35
-8 3 3 17.53 0.4
8 3 -3 17.58 0.39
-8 3 3 17.68 0.4
-8 3 3 17.96 0.42
-8 3 3 17.34 0.35
-7 -3 3 22.43 0.38
-7 3 3 21.43 0.43
-7 3 3 22.18 0.38
-7 3 3 21.51 0.42
-7 3 3 21.66 0.42
7 3 -3 22.1 0.41
-6 3 3 5.87 0.19
-6 3 3 5.69 0.17
6 3 -3 6.01 0.19
-5 3 3 5.89 0.18
5 3 -3 6.25 0.18
4 3 -3 0.82 0.06
-4 3 3 0.82 0.07
-3 3 3 188.05 1.71
3 3 -3 184.81 1.68
2 3 -3 69.25 0.68
-2 3 3 70.61 0.71
-1 3 3 66.95 0.66
1 3 -3 66.23 0.62
0 3 3 219 1.92
0 3 -3 215.39 1.89
-1 3 -3 17.34 0.22
1 3 3 17.75 0.26
2 3 3 608.33 5.71
-2 3 -3 595.72 5.31
-3 -3 -3 86.18 0.83
3 3 3 83.45 0.88
3 3 3 86.36 1.08
-3 3 -3 83.61 0.87
-4 -3 -3 39.53 0.44
4 3 3 39.6 0.52
-4 3 -3 39.07 0.51
-4 3 -3 39.3 0.45
4 3 3 39.4 0.68
5 -3 3 0.86 0.1
5 -3 3 0.89 0.07
-5 -3 -3 0.9 0.06
5 3 3 0.79 0.08
5 3 3 0.86 0.09
-5 3 -3 0.88 0.09
-5 3 -3 0.87 0.06
5 3 3 0.79 0.11
-6 -3 -3 4.91 0.17
-6 -3 -3 4.97 0.1
6 -3 3 5.31 0.18
6 -3 3 5.07 0.14
-6 3 -3 5.26 0.2
-6 3 -3 5.04 0.18
-6 3 -3 4.88 0.13
6 3 3 5.04 0.19
-7 -3 -3 62.02 0.79
7 -3 3 62.63 0.78
7 -3 3 62.51 0.7
-7 3 -3 60.42 0.61
-7 3 -3 62.71 0.85
-7 3 -3 61.43 0.8
7 3 3 62.05 0.83
-8 -3 -3 0.17 0.06
8 -3 3 0.01 0.04
8 -3 3 -0.01 0.04
-8 3 -3 0.14 0.06
-8 3 -3 -0.01 0.05
8 3 3 0.11 0.06
9 -3 3 0.39 0.07
-9 -3 -3 0.51 0.09
9 -3 3 0.45 0.08
-9 3 -3 0.49 0.1
-9 3 -3 0.42 0.1
9 3 3 0.53 0.1
-10 -3 -3 2.95 0.19
10 -3 3 3 0.15
-10 3 -3 3.06 0.21
11 -3 3 20.51 0.4
-11 -3 -3 20.33 0.49
-11 3 -3 20.94 0.51
-12 -3 -3 5 0.27
-12 3 -3 5.21 0.3
-13 3 -3 0.11 0.12
-14 3 -3 0.33 0.13
14 3 3 -0.01 0.1
-14 -4 3 -0.09 0.08
-14 4 3 0.11 0.1
-14 4 3 -0.08 0.1
-13 -4 3 3.2 0.22
-13 4 3 2.97 0.24
-13 4 3 2.78 0.26
-12 -4 3 9.79 0.33
-12 4 3 9.93 0.38
-12 4 3 9.31 0.38
-11 -4 3 1.97 0.17
-11 4 3 2.1 0.2
-11 4 3 2.06 0.21
-10 -4 3 0.91 0.11
-10 4 3 1.04 0.14
-10 4 3 0.68 0.1
-10 4 3 1 0.15
-9 -4 3 2.16 0.14
-9 4 3 2.37 0.15
-9 4 3 2.05 0.16
9 4 -3 2.12 0.15
-9 4 3 2.17 0.17
-9 4 3 2 0.17
-8 -4 3 19.63 0.37
-8 4 3 19.81 0.44
-8 4 3 19.24 0.44
-8 4 3 19.68 0.43
8 4 -3 19.74 0.42
-8 4 3 19.39 0.39
-7 -4 3 11.35 0.25
-7 4 3 11.56 0.31
7 4 -3 11.37 0.29
-7 4 3 11.27 0.27
-7 4 3 11.26 0.3
-7 4 3 11.02 0.3
6 4 -3 26.36 0.43
-6 4 3 25.69 0.46
-6 4 3 25.9 0.42
-6 4 3 25.67 0.44
-6 4 3 25.94 0.46
5 4 -3 7.82 0.2
-5 4 3 7.49 0.21
-5 4 3 7.58 0.2
-5 4 3 7.52 0.21
-4 4 3 20.99 0.35
4 4 -3 21.17 0.33
3 4 -3 81.54 0.84
-3 4 3 86.14 0.74
-3 4 3 84.63 0.88
2 4 -3 37.17 0.42
-2 4 3 36.36 0.44
-2 4 3 37.23 0.37
1 4 -3 9.66 0.16
-1 4 3 9.83 0.17
-1 4 3 9.58 0.18
0 4 -3 17.34 0.22
0 4 3 16.61 0.26
1 4 3 257.42 2.3
-1 4 -3 257.63 2.23
-2 -4 -3 209.04 1.87
2 4 3 208.94 1.91
-2 4 -3 206.01 1.86
-3 -4 -3 16.66 0.25
-3 4 -3 16.65 0.24
3 4 3 16.43 0.29
-3 4 -3 16.29 0.28
-4 -4 -3 37.74 0.44
4 -4 3 37.02 0.52
4 4 3 37.14 0.49
-4 4 -3 37.36 0.51
-4 4 -3 36.73 0.44
4 4 3 36.17 0.51
-5 -4 -3 174.51 1.57
5 -4 3 175.67 1.72
5 -4 3 175.64 1.6
5 4 3 174.97 2
5 4 3 171.81 1.73
-5 4 -3 175.58 1.73
5 4 3 173.81 1.69
-5 4 -3 170.69 1.59
6 -4 3 13.51 0.24
-6 -4 -3 13.38 0.19
6 -4 3 13.46 0.31
-6 4 -3 13.53 0.3
-6 4 -3 13.55 0.23
6 4 3 13.01 0.29
-6 4 -3 13.71 0.33
6 4 3 13.7 0.32
7 -4 3 4.44 0.14
7 -4 3 4.28 0.19
7 4 3 4.6 0.18
-7 4 -3 4.6 0.19
-7 4 -3 4.6 0.12
-7 4 -3 4.92 0.21
7 4 3 4.73 0.2
8 -4 3 1.66 0.13
8 -4 3 1.75 0.11
-8 4 -3 1.69 0.15
8 4 3 1.78 0.14
-8 4 -3 1.95 0.14
8 4 3 1.93 0.15
9 -4 3 14.45 0.29
9 -4 3 14.49 0.36
9 4 3 14.18 0.37
-9 4 -3 14.24 0.4
-9 4 -3 15.28 0.4
10 -4 3 1.49 0.15
10 4 3 1.91 0.18
-10 4 -3 1.48 0.17
11 4 3 4.09 0.24
-11 4 -3 4.56 0.27
12 4 3 3.11 0.23
-12 4 -3 3.15 0.25
-13 4 -3 1 0.17
13 4 3 0.92 0.16
-14 4 -3 2.68 0.26
14 4 3 2.5 0.24
-14 5 3 6.65 0.39
-14 5 3 6.05 0.35
-13 5 3 0.41 0.13
-13 5 3 0.53 0.16
12 -5 -3 0.35 0.11
-12 5 3 0.28 0.11
-12 5 3 0.29 0.13
-11 5 3 11.78 0.42
-11 5 3 11.69 0.4
-10 5 3 5.34 0.27
-10 5 3 5.44 0.23
-10 5 3 4.77 0.26
-9 5 3 1.34 0.13
-9 5 3 1.24 0.15
9 5 -3 1.37 0.14
-9 5 3 1.22 0.14
-8 5 3 3.16 0.19
-8 5 3 3.57 0.19
-8 5 3 2.99 0.19
8 5 -3 3.42 0.18
-8 5 3 3.24 0.17
-7 5 3 2.5 0.16
-7 5 3 2.61 0.15
7 5 -3 2.49 0.14
-7 5 3 2.7 0.16
-7 5 3 2.12 0.15
-6 5 3 20.13 0.4
6 5 -3 19.72 0.37
6 5 -3 20.05 0.39
-6 5 3 19.66 0.4
-6 5 3 19.16 0.4
-6 5 3 20.69 0.38
5 5 -3 8.42 0.22
-5 5 3 8.57 0.24
-5 5 3 8.43 0.23
-5 5 3 8.44 0.22
-4 5 3 1.94 0.11
4 5 -3 1.88 0.1
-4 5 3 1.68 0.1
-4 5 3 1.74 0.1
-3 5 3 18.59 0.31
-3 5 3 18.28 0.22
-3 5 3 20.4 0.45
3 5 -3 18.48 0.29
-2 -5 3 60.1 0.56
2 5 -3 59.46 0.64
-2 5 3 60.28 0.67
-2 5 3 61.27 0.59
-1 -5 3 8.51 0.16
-1 5 3 8.87 0.16
-1 5 3 8.65 0.19
1 5 -3 8.58 0.16
0 -5 3 27.63 0.36
0 5 -3 27.86 0.34
0 5 3 27.98 0.38
0 5 3 28.23 0.35
1 -5 3 1.39 0.08
-1 -5 -3 1.73 0.08
1 5 3 1.26 0.08
1 5 3 1.39 0.07
-1 5 -3 1.44 0.07
-2 -5 -3 1.53 0.08
2 -5 3 1.51 0.09
2 5 3 1.59 0.13
-2 5 -3 1.49 0.08
2 5 3 1.65 0.09
3 -5 3 34.58 0.48
3 -5 3 34.28 0.49
-3 -5 -3 35.11 0.44
-3 5 -3 34.84 0.42
-3 5 -3 34.02 0.46
3 5 3 35.3 0.47
3 5 3 34.7 0.49
4 -5 3 14 0.3
4 -5 3 13.72 0.23
-4 -5 -3 13.42 0.23
4 -5 3 12.95 0.27
-4 5 -3 13.41 0.23
4 5 3 13.58 0.27
4 5 3 13.56 0.29
-4 5 -3 13.51 0.28
5 -5 3 3.4 0.16
-5 -5 -3 3.42 0.11
5 -5 3 3.27 0.12
-5 5 -3 3.32 0.12
5 5 3 3.24 0.15
-5 5 -3 3.74 0.17
5 5 3 3.19 0.14
6 -5 3 15.37 0.27
6 -5 3 15.34 0.35
-6 -5 -3 15.06 0.22
6 5 3 15.4 0.33
-6 5 -3 15.08 0.35
-6 5 -3 14.93 0.25
6 5 3 15.35 0.35
7 -5 3 5.29 0.21
7 -5 3 5.35 0.22
-7 5 -3 5.52 0.23
7 5 3 5.11 0.2
-7 5 -3 5.06 0.21
-7 5 -3 5.26 0.14
7 5 3 5.48 0.22
8 -5 3 11.35 0.33
-8 5 -3 10.82 0.34
8 5 3 10.79 0.31
-8 5 -3 11.5 0.33
-8 5 -3 11.27 0.16
8 5 3 11.32 0.33
9 -5 3 1.02 0.12
9 5 3 0.9 0.12
-9 5 -3 0.76 0.14
-9 5 -3 1.07 0.14
10 -5 3 3.61 0.21
10 5 3 3.64 0.22
-10 5 -3 3.75 0.23
11 -5 3 1.08 0.15
11 5 3 0.95 0.14
-11 5 -3 1.16 0.16
-12 5 -3 1.45 0.19
12 5 3 1.83 0.19
13 5 3 3.8 0.27
-13 5 -3 4.13 0.28
-14 6 3 0.51 0.16
13 -6 -3 0.42 0.13
-13 6 3 0.25 0.13
-13 6 3 0.19 0.14
12 -6 -3 0.7 0.14
-12 6 3 0.4 0.14
-12 6 3 0.58 0.14
11 -6 -3 22.06 0.53
-11 6 3 22.26 0.57
-11 6 3 23.33 0.59
-10 6 3 1.68 0.19
-10 6 3 2.33 0.22
-9 6 3 11.95 0.37
-9 6 3 11.65 0.34
-9 6 3 11.42 0.37
-8 6 3 8.93 0.31
-8 6 3 9.65 0.32
-8 6 3 9.3 0.29
-8 6 3 9.37 0.32
8 6 -3 9.15 0.28
-7 6 3 11.82 0.34
-7 6 3 11.81 0.33
-7 6 3 11.61 0.33
7 6 -3 11.65 0.3
-7 6 3 11.24 0.3
-6 6 3 33.09 0.56
-6 6 3 32.73 0.55
-6 6 3 33.22 0.53
-6 6 3 33.37 0.56
6 6 -3 34.13 0.53
-5 6 3 8.63 0.24
-5 6 3 8.54 0.25
5 6 -3 8.68 0.23
-5 6 3 8.54 0.25
-4 6 3 3.15 0.14
-4 6 3 3.15 0.08
4 6 -3 3.2 0.13
-4 6 3 3.15 0.14
-4 6 3 3 0.14
3 6 -3 -0.01 0.03
-3 6 3 0 0.02
-3 6 3 0.03 0.03
-3 6 3 0.09 0.04
-3 6 3 0.06 0.04
-2 -6 3 2.08 0.07
-2 6 3 2.28 0.11
-2 6 3 2.01 0.1
-2 6 3 2.09 0.08
2 6 -3 2.26 0.1
1 -6 -3 22.39 0.37
-1 -6 3 22.7 0.31
1 6 -3 22.79 0.32
-1 6 3 22.07 0.3
-1 6 3 22.45 0.35
0 -6 -3 0.07 0.04
0 -6 3 0.13 0.04
0 6 3 0.1 0.04
0 6 3 0.17 0.04
0 6 -3 0.21 0.04
0 6 3 0.08 0.03
1 -6 3 1.84 0.1
1 6 3 1.69 0.09
-1 6 -3 1.61 0.08
-1 6 -3 1.73 0.08
1 6 3 1.82 0.09
1 6 3 1.92 0.1
-2 -6 -3 1.72 0.1
2 -6 3 2.16 0.12
2 -6 3 2.04 0.11
-2 6 -3 2.1 0.1
2 6 3 1.93 0.1
2 6 3 2.11 0.11
2 6 3 2.25 0.11
-2 6 -3 2.16 0.09
3 -6 3 21.33 0.37
3 -6 3 21.56 0.39
-3 -6 -3 21.71 0.33
3 6 3 21.93 0.38
3 6 3 22.5 0.36
-3 6 -3 21.57 0.36
-3 6 -3 20.8 0.31
4 -6 3 5.2 0.19
-4 -6 -3 5.45 0.15
4 -6 3 5.42 0.19
4 6 3 5.44 0.18
-4 6 -3 5.44 0.15
4 6 3 5.59 0.19
-4 6 -3 5.37 0.19
5 -6 3 2.46 0.15
-5 -6 -3 2.66 0.11
5 6 3 2.78 0.15
5 6 3 2.24 0.13
-5 6 -3 2.48 0.11
-5 6 -3 2.33 0.14
-6 -6 -3 2.85 0.09
6 -6 3 2.56 0.16
-6 6 -3 2.71 0.16
-6 6 -3 2.94 0.12
6 6 3 2.7 0.16
6 6 3 3.05 0.16
7 -6 3 4.29 0.21
-7 6 -3 3.97 0.13
7 6 3 4.5 0.21
7 6 3 4.42 0.19
-7 6 -3 4.25 0.21
8 -6 3 1.78 0.16
-8 6 -3 1.5 0.07
-8 6 -3 1.31 0.15
8 6 3 1.51 0.14
9 -6 3 1.05 0.14
9 6 3 0.83 0.12
10 -6 3 2.63 0.2
10 6 3 2.52 0.2
11 -6 3 6.98 0.31
11 6 3 6.69 0.3
12 -6 3 4.42 0.48
12 6 3 4.15 0.26
13 6 3 1.01 0.16
13 -7 -3 4.15 0.28
-13 7 3 4.03 0.31
-13 7 3 4.14 0.31
12 -7 -3 7.06 0.34
-12 7 3 6.84 0.37
-12 7 3 6.53 0.34
11 -7 -3 7.28 0.33
-11 7 3 8.09 0.36
-11 7 3 7.66 0.36
10 -7 -3 17.64 0.47
-10 7 3 17.16 0.5
-10 7 3 17.4 0.49
-9 7 3 1.48 0.18
-9 7 3 1.81 0.19
8 7 -3 13.93 0.36
-8 7 3 14.74 0.41
-8 7 3 14.04 0.37
-8 7 3 14.49 0.41
-7 7 3 25.41 0.5
-7 7 3 25.65 0.53
-7 7 3 25.4 0.52
-7 7 3 25.86 0.53
7 7 -3 25.65 0.48
-6 7 3 2.09 0.16
-6 7 3 2.13 0.15
-6 7 3 2.11 0.14
6 7 -3 1.9 0.13
-6 7 3 2.02 0.16
5 7 -3 24.09 0.42
-5 7 3 23.27 0.43
-5 7 3 23.41 0.45
-5 7 3 23.44 0.45
-5 7 3 23.42 0.45
4 7 -3 72.06 0.84
-4 7 3 71.79 0.87
-4 7 3 73.58 0.89
-4 7 3 70.94 0.7
-4 7 3 73.19 0.88
-3 7 3 90.72 0.88
-3 7 3 91.09 1.01
-3 7 3 90 1.02
-3 7 3 89.26 1.01
3 7 -3 92.08 0.98
-2 -7 3 7.19 0.15
2 7 -3 7.58 0.19
-2 7 3 6.86 0.16
-2 7 3 7.21 0.2
-2 7 3 7.14 0.2
-2 7 3 7.29 0.21
-1 -7 3 5.68 0.15
1 7 -3 5.61 0.16
-1 7 3 5.9 0.17
-1 7 3 5.99 0.18
-1 7 3 5.72 0.15
0 -7 -3 32.44 0.47
0 -7 3 33.27 0.46
0 -7 3 33.17 0.47
0 7 3 31.38 0.42
0 7 -3 33.37 0.44
0 7 3 32.94 0.46
0 7 3 33.39 0.48
-1 -7 -3 0.42 0.06
1 -7 3 0.37 0.06
1 -7 3 0.35 0.06
1 7 3 0.36 0.07
1 7 3 0.45 0.07
-1 7 -3 0.37 0.06
-1 7 -3 0.38 0.06
1 7 3 0.31 0.05
2 -7 3 20.77 0.37
2 -7 3 21.38 0.39
-2 -7 -3 20.64 0.35
-2 7 -3 20.94 0.35
-2 7 -3 20.72 0.32
2 7 3 21.16 0.34
2 7 3 20.72 0.38
2 7 3 21.32 0.36
-3 -7 -3 18.91 0.33
3 -7 3 19.12 0.36
3 -7 3 19.31 0.38
-3 7 -3 19.01 0.35
-3 7 -3 18.72 0.31
3 7 3 19.5 0.35
3 7 3 19.63 0.38
4 -7 3 9.23 0.26
4 -7 3 9.64 0.27
-4 -7 -3 9.1 0.21
4 7 3 9.35 0.27
4 7 3 9.27 0.24
-4 7 -3 9.29 0.25
-4 7 -3 9.32 0.21
-5 -7 -3 5.28 0.15
5 -7 3 5.61 0.22
-5 -7 -3 5.2 0.15
5 7 3 5.36 0.21
-5 7 -3 5.3 0.24
-5 7 -3 5.15 0.16
5 7 3 5.39 0.2
6 -7 3 3.47 0.19
-6 -7 -3 3.19 0.1
6 7 3 3.05 0.17
6 7 3 3.07 0.17
-6 7 -3 3.26 0.13
7 -7 3 2.37 0.18
7 7 3 2.45 0.16
-7 7 -3 2.67 0.12
8 -7 3 3.96 0.22
8 7 3 3.89 0.21
-8 7 -3 3.81 0.11
9 -7 3 0.84 0.13
9 7 3 0.62 0.12
10 -7 3 6.38 0.31
10 7 3 6.62 0.29
11 -7 3 7 0.33
11 7 3 6.71 0.31
12 -7 3 5.84 0.31
12 7 3 6.25 0.32
12 -8 -3 1.88 0.22
-12 8 3 2.31 0.25
-12 8 3 2.02 0.23
11 -8 -3 4.85 0.29
-11 8 3 4.07 0.27
-11 8 3 4.5 0.31
10 -8 -3 6.65 0.33
-10 8 3 6.74 0.34
-10 8 3 6.91 0.33
9 -8 -3 1.01 0.16
-9 8 3 1.47 0.18
-9 8 3 1.16 0.17
-8 8 3 23.83 0.55
-8 8 3 23.16 0.54
-7 8 3 6.46 0.26
-7 8 3 6.57 0.28
-7 8 3 6.68 0.28
-6 8 3 3.23 0.18
-6 8 3 3.62 0.2
-6 8 3 2.94 0.19
-5 8 3 4.04 0.2
-5 8 3 4.43 0.2
-5 8 3 4.57 0.21
-5 8 3 4.51 0.09
-5 8 3 4.4 0.2
-4 8 3 9.1 0.27
-4 8 3 8.78 0.26
-4 8 3 9.59 0.27
-4 8 3 9.54 0.34
-4 8 3 9.19 0.17
-3 8 3 12.33 0.22
-3 8 3 12.09 0.29
-3 8 3 12.61 0.3
-3 8 3 12.45 0.3
-2 -8 3 41.71 0.48
-2 8 3 40.52 0.57
-2 8 3 42.19 0.5
-2 8 3 42.21 0.6
-2 8 3 42.88 0.59
1 -8 -3 21.53 0.39
-1 -8 3 21.97 0.35
-1 8 3 22.16 0.33
-1 8 3 21.27 0.39
-1 8 3 21.65 0.38
0 -8 3 1.06 0.1
0 -8 -3 1.31 0.11
0 -8 3 1.17 0.09
0 8 3 1.24 0.11
0 8 3 1.2 0.1
0 8 3 1.16 0.09
1 -8 3 11.88 0.27
-1 -8 -3 11.92 0.27
1 -8 3 11.2 0.28
1 8 3 11.64 0.26
1 8 3 11.91 0.28
1 8 3 11.85 0.25
-2 -8 -3 0.22 0.06
2 -8 3 0.28 0.07
2 -8 3 0.2 0.06
-2 8 -3 0.25 0.05
2 8 3 0.27 0.07
2 8 3 0.1 0.05
2 8 3 0.23 0.06
3 -8 3 3.92 0.18
-3 -8 -3 3.76 0.15
3 -8 3 3.97 0.18
3 8 3 3.72 0.17
-3 8 -3 4.08 0.15
3 8 3 3.97 0.16
4 -8 3 0.63 0.1
-4 -8 -3 0.56 0.07
-4 -8 -3 0.57 0.08
4 -8 3 0.56 0.09
-4 8 -3 0.8 0.08
4 8 3 0.51 0.09
4 8 3 0.73 0.09
-5 -8 -3 3.74 0.14
5 -8 3 4.11 0.21
5 8 3 3.77 0.19
5 8 3 3.96 0.18
-5 8 -3 3.94 0.15
-6 -8 -3 7.78 0.15
6 -8 3 7.99 0.29
6 8 3 7.55 0.26
-6 8 -3 7.96 0.21
7 -8 3 5.75 0.27
-7 8 -3 5.83 0.17
7 8 3 5.84 0.24
8 -8 3 2.76 0.21
-8 8 -3 2.45 0.1
8 8 3 2.65 0.19
9 -8 3 2.31 0.22
9 8 3 1.88 0.18
10 -8 3 0.6 0.14
10 8 3 0.38 0.11
11 -8 3 0.63 0.15
11 8 3 0.92 0.16
12 -8 3 7.07 0.35
12 8 3 7.04 0.33
12 -9 -3 0.97 0.18
-12 9 3 1.09 0.19
11 -9 -3 0.38 0.14
-11 9 3 0.21 0.11
-11 9 3 0.46 0.15
10 -9 -3 2.34 0.23
-10 9 3 2.18 0.22
-10 9 3 2.57 0.25
9 -9 -3 1.82 0.21
-9 9 3 1.73 0.19
-9 9 3 2.04 0.22
8 -9 -3 1.12 0.15
-8 9 3 0.93 0.15
-8 9 3 0.96 0.15
7 -9 -3 3.52 0.22
-7 9 3 3.57 0.22
-7 9 3 3.47 0.23
-6 9 3 0.77 0.12
-5 9 3 13.12 0.19
-5 9 3 13.06 0.36
-4 9 3 8.12 0.27
-4 9 3 8.29 0.17
-4 9 3 7.47 0.34
-3 9 3 15.46 0.26
-3 9 3 15.58 0.36
-3 9 3 15.85 0.36
-2 -9 3 26.33 0.36
-2 9 3 26.56 0.38
-2 9 3 26.05 0.46
-2 9 3 26.44 0.47
1 -9 -3 16.4 0.35
-1 -9 3 16.55 0.31
-1 9 3 16.39 0.35
-1 9 3 15.94 0.34
-1 9 3 16.26 0.3
0 -9 3 1.07 0.1
0 -9 -3 1.13 0.11
0 9 3 0.98 0.1
0 9 3 1.14 0.1
0 9 3 0.98 0.11
-1 -9 -3 1.97 0.14
1 -9 3 1.86 0.13
-1 -9 -3 1.82 0.14
1 -9 3 2.11 0.14
1 9 3 2.16 0.13
1 9 3 1.97 0.13
1 9 3 2.01 0.14
-2 -9 -3 25.86 0.44
2 -9 3 25.62 0.48
2 -9 3 24.85 0.45
-2 -9 -3 25.24 0.44
2 9 3 24.95 0.46
2 9 3 24.39 0.41
2 9 3 24.43 0.43
-2 9 -3 23.91 0.4
-3 -9 -3 11.17 0.27
3 -9 3 11.18 0.31
-3 -9 -3 11.07 0.27
3 -9 3 11.15 0.31
3 9 3 10.58 0.3
3 9 3 10.87 0.28
-3 9 -3 10.76 0.25
4 -9 3 3.38 0.19
4 -9 3 3.42 0.19
-4 -9 -3 3.51 0.15
4 9 3 3.26 0.17
-4 9 -3 3.4 0.15
-5 -9 -3 9.5 0.21
5 -9 3 9.14 0.31
-5 9 -3 9.2 0.24
5 9 3 9.3 0.28
6 -9 3 0.98 0.14
6 9 3 0.98 0.12
-6 9 -3 1.12 0.1
7 -9 3 0.88 0.14
-7 9 -3 0.93 0.09
7 9 3 0.91 0.13
8 -9 3 3.16 0.23
8 9 3 3.31 0.22
-8 9 -3 3.04 0.14
9 -9 3 3.72 0.26
9 9 3 3.76 0.24
10 -9 3 1.96 0.22
10 9 3 2.24 0.21
11 -9 3 10.8 0.42
11 9 3 11.64 0.4
11 -10 -3 0.8 0.17
-11 10 3 0.78 0.17
10 -10 -3 0.56 0.14
-10 10 3 0.76 0.16
-10 10 3 0.67 0.14
9 -10 -3 0.33 0.12
-9 10 3 0.37 0.14
8 -10 -3 0.42 0.12
-8 10 3 0.44 0.13
7 -10 -3 2.56 0.22
-7 10 3 2.47 0.21
6 -10 -3 2.56 0.21
-6 10 3 2.51 0.21
5 -10 -3 0.22 0.09
-5 10 3 0.4 0.11
-5 10 3 0.31 0.04
4 -10 -3 5.86 0.25
-4 10 3 5.51 0.15
-4 10 3 5.35 0.24
3 -10 -3 5.82 0.24
-3 10 3 5.5 0.23
-3 10 3 5.57 0.16
-2 -10 3 8.03 0.18
-2 10 3 7.62 0.26
-2 10 3 7.73 0.21
-1 -10 3 3.31 0.15
1 -10 -3 3.46 0.19
1 -10 -3 3.19 0.19
-1 10 3 3.09 0.17
-1 10 3 3.56 0.15
0 -10 3 9.86 0.26
0 -10 -3 10.26 0.3
0 -10 -3 10.35 0.3
0 10 3 10.14 0.25
0 10 3 9.83 0.28
-1 -10 -3 3.3 0.18
-1 -10 -3 3.62 0.19
1 -10 3 3.37 0.18
1 10 3 3.56 0.16
1 10 3 3.06 0.17
2 -10 3 5.27 0.22
2 -10 3 5.34 0.22
-2 -10 -3 5.36 0.21
2 10 3 5.39 0.21
2 10 3 5.05 0.19
-2 10 -3 5.34 0.19
-3 -10 -3 2 0.14
3 -10 3 2.01 0.17
3 -10 3 2.1 0.17
-3 10 -3 2.06 0.13
3 10 3 1.91 0.14
4 -10 3 10.87 0.35
-4 -10 -3 11.06 0.27
4 -10 3 10.81 0.33
4 10 3 10.94 0.31
-4 10 -3 10.92 0.27
5 -10 3 6.02 0.28
5 -10 3 5.78 0.26
-5 -10 -3 5.98 0.17
5 10 3 6.07 0.25
-5 10 -3 6.01 0.21
6 -10 3 3.52 0.23
6 10 3 3.66 0.21
-6 10 -3 3.72 0.17
7 -10 3 6.05 0.3
7 10 3 5.68 0.25
-7 10 -3 6.03 0.18
8 -10 3 5.49 0.3
8 10 3 5.46 0.26
9 -10 3 3.28 0.27
9 10 3 2.8 0.22
10 -10 3 0.94 0.18
10 10 3 0.97 0.15
10 -11 -3 0.41 0.13
-10 11 3 0.52 0.14
9 -11 -3 1.12 0.17
-9 11 3 0.98 0.18
8 -11 -3 0.1 0.1
-8 11 3 0.21 0.12
7 -11 -3 1.2 0.17
-7 11 3 1.3 0.18
6 -11 -3 1.5 0.17
-6 11 3 1.23 0.17
5 -11 -3 5.83 0.28
-5 11 3 6.43 0.29
-5 11 3 6.46 0.16
4 -11 -3 2.13 0.18
-4 11 3 2.17 0.11
-4 11 3 2.07 0.19
-3 11 3 1.44 0.1
-3 11 3 1.6 0.16
-2 -11 3 12.14 0.22
2 -11 -3 11.8 0.37
-2 11 3 11.74 0.34
-2 11 3 11.66 0.26
1 -11 -3 25.89 0.52
-1 -11 3 26.05 0.42
-1 11 3 26 0.5
-1 11 3 25.81 0.43
0 -11 -3 2.76 0.19
0 -11 3 2.8 0.16
0 11 3 2.71 0.17
0 11 3 3.04 0.16
1 -11 3 4.62 0.21
-1 -11 -3 4.88 0.22
1 11 3 4.91 0.2
1 11 3 4.56 0.2
2 -11 3 1.87 0.16
-2 -11 -3 2.09 0.17
-2 11 -3 2.04 0.15
2 11 3 2.14 0.15
2 11 3 2.06 0.16
-3 -11 -3 2.51 0.16
3 -11 3 2.38 0.19
3 -11 3 2.58 0.19
-3 11 -3 3.04 0.17
3 11 3 2.53 0.18
4 -11 3 4.57 0.25
4 -11 3 5.03 0.25
-4 -11 -3 4.55 0.18
-4 11 -3 4.58 0.2
4 11 3 4.79 0.22
5 -11 3 3.54 0.24
-5 -11 -3 3.45 0.15
5 -11 3 3.91 0.24
-5 11 -3 3.78 0.18
5 11 3 3.22 0.2
6 -11 3 6.64 0.32
6 11 3 6.25 0.29
-6 11 -3 6.24 0.21
7 -11 3 9.64 0.39
-7 11 -3 10 0.23
8 -11 3 3.73 0.27
9 -11 3 2.31 0.24
8 -12 -3 3.1 0.25
7 -12 -3 0.23 0.11
6 -12 -3 0.56 0.12
5 -12 -3 0.59 0.12
-4 12 3 3.48 0.13
-3 12 3 0.26 0.06
2 -12 -3 0.21 0.1
-2 12 3 0.21 0.07
1 -12 -3 2.44 0.21
-1 -12 3 2.65 0.13
-1 12 3 2.49 0.16
0 -12 -3 2.31 0.19
0 -12 3 2.64 0.15
0 12 3 2.43 0.16
1 -12 3 6.2 0.24
-1 -12 -3 5.78 0.25
-1 12 -3 5.86 0.28
1 12 3 6.32 0.23
-2 -12 -3 1.4 0.14
2 -12 3 1.51 0.15
2 12 3 1.2 0.13
-2 12 -3 1.4 0.13
-3 -12 -3 0.53 0.09
3 -12 3 0.77 0.13
-3 12 -3 0.43 0.09
4 -12 3 1.68 0.19
-4 -12 -3 1.81 0.13
4 -12 3 1.83 0.18
-4 12 -3 1.97 0.15
5 -12 3 0.33 0.1
5 -12 3 0.22 0.1
5 -12 3 0.35 0.11
-5 12 -3 0.33 0.08
6 -12 3 1.37 0.17
6 -12 3 1.27 0.19
6 -12 3 1.08 0.16
-6 12 -3 1.03 0.11
7 -12 3 1.31 0.18
7 -12 3 1.42 0.19
-7 12 -3 1.45 0.11
8 -12 3 1.59 0.21
8 -12 3 1.4 0.19
7 -13 -3 0.9 0.15
6 -13 -3 1.41 0.25
-4 13 3 4.12 0.14
3 -13 -3 3.16 0.24
-3 13 3 3.15 0.14
2 -13 -3 3.93 0.24
-2 13 3 4.46 0.18
1 -13 -3 0.89 0.14
-1 13 3 0.95 0.11
0 -13 3 2.4 0.14
0 -13 -3 2.71 0.2
0 13 3 2.66 0.17
-1 -13 -3 7.21 0.28
1 -13 3 6.61 0.24
-1 13 -3 6.69 0.25
1 13 3 6.85 0.24
2 -13 3 1.79 0.17
-2 -13 -3 1.58 0.15
-2 13 -3 1.91 0.16
2 13 3 1.61 0.15
3 -13 3 -0.01 0.07
-3 -13 -3 0.14 0.06
-3 13 -3 -0.03 0.06
4 -13 3 0.17 0.08
-4 13 -3 0.07 0.07
5 -13 3 0.1 0.09
5 -13 3 0.2 0.1
-5 13 -3 0.19 0.08
6 -13 3 1.61 0.2
6 -13 3 1.36 0.18
2 -14 -3 0.73 0.18
1 -14 -3 3.74 0.26
-1 14 3 4.14 0.23
0 -14 3 0.48 0.07
0 -14 -3 0.48 0.12
0 14 3 0.39 0.1
-1 -14 -3 0.3 0.13
1 -14 3 0.29 0.08
1 14 3 0.44 0.1
-1 14 -3 0.4 0.09
2 14 3 2.73 0.23
-15 0 4 0.95 0.16
-14 0 4 0.14 0.09
-13 0 4 0.07 0.09
-12 0 4 1.46 0.17
-12 0 4 1.48 0.18
-11 0 4 26.78 0.53
-11 0 4 26.19 0.56
10 0 -4 1.59 0.16
-10 0 4 1.87 0.15
-10 0 4 1.61 0.16
-10 0 4 1.77 0.14
9 0 -4 2.45 0.17
-9 0 4 2.46 0.16
-9 0 4 2.36 0.16
-9 0 4 2.09 0.14
-8 0 4 30.54 0.5
-8 0 4 29.47 0.5
-8 0 4 30.92 0.54
-8 0 4 30.1 0.51
-7 0 4 4.23 0.17
-7 0 4 4.26 0.16
-7 0 4 4.53 0.18
-6 0 4 348.17 3.17
-5 0 4 15.73 0.29
-4 0 4 2.3 0.09
-3 0 4 122.31 1.14
-2 0 4 536.59 4.87
-1 0 4 29.35 0.29
0 0 4 32.2 0.3
0 0 -4 31.74 0.45
1 0 4 15.91 0.19
1 0 4 15.8 0.3
2 0 4 29.26 0.34
2 0 4 29.5 0.5
3 0 4 258.13 2.26
3 0 4 249.94 2.52
-4 0 -4 4.31 0.11
4 0 4 4.26 0.14
5 0 4 36.96 0.52
-5 0 -4 37.25 0.43
6 0 4 36.32 0.54
-6 0 -4 35.82 0.42
-6 0 -4 35.96 0.52
-7 0 -4 2.94 0.15
-7 0 -4 3.06 0.09
7 0 4 2.81 0.15
8 0 4 30.89 0.55
-8 0 -4 30.18 0.53
9 0 4 11.63 0.34
-9 0 -4 12.08 0.34
-10 0 -4 1.08 0.14
-11 0 -4 7.34 0.31
-12 0 -4 2.3 0.22
-13 0 -4 0.65 0.15
-14 0 -4 -0.1 0.1
-15 -1 4 2.45 0.23
-15 1 4 2.44 0.24
-14 -1 4 1.53 0.19
-14 1 4 1.5 0.19
-13 -1 4 1.84 0.19
-13 1 4 2.62 0.24
-13 1 4 2.07 0.2
-12 -1 4 0.7 0.12
-12 1 4 0.96 0.15
-12 1 4 0.92 0.14
-11 -1 4 3.77 0.21
-11 1 4 3.44 0.22
-11 1 4 3.74 0.21
-10 -1 4 3.62 0.19
10 1 -4 3.62 0.2
-10 1 4 3.55 0.2
-10 1 4 3.56 0.2
-10 1 4 3.58 0.19
-9 -1 4 0.69 0.1
-9 -1 4 0.95 0.1
-9 1 4 0.88 0.12
-9 1 4 0.54 0.07
-9 1 4 0.71 0.1
-9 1 4 0.71 0.1
9 1 -4 0.71 0.1
-8 -1 4 31.49 0.49
-8 -1 4 30.83 0.54
-8 -1 4 30.72 0.51
-8 1 4 30.53 0.55
-8 1 4 31.16 0.46
-8 1 4 30.28 0.51
8 1 -4 30.6 0.54
-8 1 4 30.37 0.52
-7 -1 4 129.29 1.32
-7 -1 4 127.46 1.34
-7 -1 4 129.94 1.39
-7 1 4 129.87 1.31
7 1 -4 127.75 1.39
-7 1 4 126.66 1.36
-7 1 4 131.6 1.38
-7 1 4 130.54 1.4
-6 -1 4 13.35 0.29
6 1 -4 13.68 0.29
-6 1 4 13.52 0.3
-5 -1 4 21.91 0.35
-5 1 4 21.42 0.36
5 1 -4 21.75 0.35
-4 -1 4 14.62 0.25
-4 1 4 14.59 0.26
-3 -1 4 77.68 0.76
-3 1 4 78.17 0.78
-2 -1 4 93.55 0.85
2 1 -4 93.55 0.86
-2 1 4 95.18 0.88
-1 1 4 66.34 0.61
0 1 4 28.35 0.29
0 1 -4 27.97 0.43
1 -1 4 15.99 0.18
1 -1 4 16.18 0.31
-1 -1 -4 15.28 0.33
1 1 4 15.82 0.2
2 -1 4 2.86 0.08
2 -1 4 3.28 0.16
2 1 4 2.8 0.09
2 1 4 2.81 0.14
3 -1 4 9.56 0.18
3 1 4 9.33 0.19
4 -1 4 10.35 0.22
-4 -1 -4 10.77 0.19
4 1 4 10.05 0.22
4 1 4 10.49 0.33
-4 1 -4 10.61 0.19
-4 1 -4 10.55 0.22
-5 -1 -4 15.35 0.24
5 -1 4 15.67 0.3
-5 1 -4 15.45 0.24
5 1 4 15.78 0.43
5 1 4 15.73 0.3
-6 -1 -4 2.95 0.14
6 -1 4 2.93 0.14
-6 -1 -4 2.89 0.1
-6 1 -4 2.8 0.13
6 1 4 2.93 0.14
-6 1 -4 2.67 0.1
7 -1 4 2.13 0.12
-7 -1 -4 2.33 0.14
-7 -1 -4 2.22 0.08
7 -1 4 2.29 0.14
-7 1 -4 2.09 0.09
-7 1 -4 2.26 0.14
7 1 4 2.36 0.14
8 -1 4 23.01 0.47
-8 -1 -4 23.21 0.45
-8 1 -4 22.93 0.45
8 1 4 23.79 0.47
-9 -1 -4 3.21 0.19
9 -1 4 3.1 0.18
9 1 4 3.25 0.18
-9 1 -4 2.86 0.18
-10 -1 -4 2.69 0.19
-10 1 -4 3.06 0.2
-11 -1 -4 0.14 0.1
-11 1 -4 0.38 0.11
-12 -1 -4 1.31 0.17
-12 1 -4 1.57 0.19
-13 -1 -4 5.66 0.31
-13 1 -4 5.56 0.31
-14 -1 -4 1.13 0.18
14 -1 4 1.25 0.15
-14 1 -4 1.18 0.18
-15 -2 4 6.94 0.32
-15 2 4 6.56 0.35
-14 -2 4 -0.02 0.08
-14 2 4 -0.02 0.09
-14 2 4 0.02 0.09
-13 -2 4 8.25 0.33
-13 2 4 8.31 0.34
-13 2 4 8.42 0.36
-12 -2 4 8.67 0.32
-12 2 4 9.25 0.36
-12 2 4 8.23 0.33
-11 -2 4 2.28 0.17
-11 2 4 2.57 0.2
-11 2 4 2.73 0.2
-10 -2 4 10.64 0.31
-10 2 4 10.46 0.34
-10 2 4 10.36 0.28
-10 2 4 11.03 0.34
-10 2 4 10.72 0.35
10 2 -4 10.54 0.33
-9 -2 4 2.03 0.14
-9 2 4 2.34 0.16
-9 2 4 2.13 0.16
-9 2 4 1.95 0.15
-9 2 4 1.82 0.12
9 2 -4 2.17 0.15
-8 -2 4 1.04 0.11
-8 2 4 0.98 0.09
-8 2 4 0.84 0.11
8 2 -4 0.92 0.11
-8 2 4 0.99 0.12
-8 2 4 0.9 0.11
-7 -2 4 75.28 0.87
-7 2 4 75.15 0.92
7 2 -4 74.6 0.91
-7 2 4 75.87 0.92
-7 2 4 76.66 0.87
-7 2 4 75.98 0.95
-6 2 4 14.83 0.32
6 2 -4 15.25 0.31
-6 2 4 15.11 0.29
-6 2 4 15.42 0.31
5 2 -4 15.11 0.28
-5 2 4 14.73 0.29
4 2 -4 13.21 0.23
-4 2 4 13.32 0.25
-3 2 4 90.06 0.9
3 2 -4 91.28 0.87
-2 2 4 27.23 0.32
2 2 -4 26.36 0.29
1 2 -4 11.33 0.12
-1 2 4 11.5 0.17
0 2 4 17.59 0.23
1 -2 4 78.41 0.91
-1 2 -4 78.12 0.71
1 2 4 76.06 0.75
2 2 4 22.4 0.3
-2 2 -4 22.25 0.28
-3 -2 -4 21.88 0.3
3 2 4 22.51 0.47
-3 2 -4 21.69 0.31
3 2 4 21.36 0.32
-4 -2 -4 10.74 0.19
-4 2 -4 10.75 0.19
-4 2 -4 10.32 0.22
4 2 4 10.52 0.33
4 2 4 10.79 0.23
5 -2 4 58.1 0.63
-5 -2 -4 57.63 0.61
-5 2 -4 57.33 0.71
-5 2 -4 57.69 0.62
5 2 4 56.58 0.92
5 2 4 57.46 0.71
-6 -2 -4 70.28 0.83
-6 -2 -4 69.27 0.7
6 -2 4 70.45 0.76
6 -2 4 71.07 0.81
-6 2 -4 70.66 0.86
-6 2 -4 68.31 0.82
-6 2 -4 68.66 0.72
6 2 4 68.93 0.85
6 2 4 69.62 1.26
-7 -2 -4 52.89 0.72
7 -2 4 55.05 0.76
-7 -2 -4 53.28 0.54
7 -2 4 55.6 0.7
-7 2 -4 54.78 0.77
-7 2 -4 53.97 0.72
7 2 4 53.81 0.75
-7 2 -4 53.49 0.57
-8 -2 -4 7.2 0.24
8 -2 4 7.51 0.26
-8 2 -4 7.32 0.12
8 2 4 7.3 0.25
-8 2 -4 7.02 0.24
-8 2 -4 7.71 0.27
-9 -2 -4 5.34 0.23
9 -2 4 5.12 0.23
-9 2 -4 4.94 0.23
9 2 4 5.1 0.23
-10 -2 -4 11.13 0.34
-10 2 -4 10.76 0.35
11 -2 4 2.39 0.16
-11 -2 -4 2.53 0.2
-11 2 -4 2.73 0.21
-12 -2 -4 3.5 0.26
12 -2 4 3.45 0.19
-12 2 -4 3.67 0.26
13 -2 4 2.41 0.17
-13 2 -4 2.38 0.23
-14 2 -4 5.23 0.32
-15 3 4 1.6 0.21
-14 -3 4 5.88 0.29
-14 3 4 5.49 0.3
-14 3 4 5.42 0.31
-13 -3 4 2.19 0.19
-13 3 4 2.16 0.23
-13 3 4 1.97 0.21
-12 -3 4 0.6 0.12
-12 3 4 0.62 0.13
-12 3 4 0.46 0.12
-11 -3 4 1.48 0.15
-11 3 4 1.18 0.13
-11 3 4 1.5 0.17
-11 3 4 1.24 0.16
-10 -3 4 0.75 0.1
-10 3 4 0.66 0.11
-10 3 4 0.7 0.12
10 3 -4 0.82 0.12
-10 3 4 0.67 0.1
-9 -3 4 5.3 0.2
-9 3 4 5.26 0.23
-9 3 4 5.46 0.24
9 3 -4 5.58 0.23
-9 3 4 5.06 0.2
-9 3 4 4.99 0.23
-8 -3 4 6.92 0.21
-8 3 4 7.18 0.26
8 3 -4 7.34 0.24
-8 3 4 6.75 0.21
-8 3 4 6.9 0.25
-8 3 4 7.05 0.25
-7 -3 4 0.36 0.06
7 3 -4 0.22 0.06
-7 3 4 0.32 0.07
-7 3 4 0.36 0.07
-7 3 4 0.47 0.08
-6 3 4 9.83 0.26
6 3 -4 10.02 0.24
-6 3 4 10.32 0.24
-6 3 4 9.75 0.25
-5 3 4 1.91 0.1
-5 3 4 1.84 0.11
-5 3 4 2 0.11
5 3 -4 1.85 0.1
-4 3 4 5.2 0.15
4 3 -4 5.15 0.14
3 3 -4 11.02 0.18
-3 3 4 11.3 0.21
2 3 -4 30.16 0.33
-2 3 4 30.2 0.37
1 3 -4 60.35 0.55
-1 3 4 59.85 0.61
0 -3 4 8.92 0.19
0 3 4 9.03 0.16
0 3 -4 9.22 0.12
-1 3 -4 1.88 0.06
1 3 4 1.78 0.08
-2 3 -4 201.46 1.8
2 3 4 203.93 1.85
-3 -3 -4 86.62 0.86
-3 3 -4 87.2 0.88
-3 3 -4 86.36 0.85
3 3 4 85.91 0.91
4 -3 4 46.47 0.53
-4 -3 -4 46.4 0.52
4 3 4 45.52 0.59
-4 3 -4 46.57 0.53
4 3 4 45.78 0.78
4 3 4 46.5 0.64
-4 3 -4 46.94 0.58
-5 -3 -4 1.1 0.08
5 -3 4 1.44 0.1
5 -3 4 1.32 0.08
-5 3 -4 1.18 0.08
5 3 4 1.29 0.14
5 3 4 1.12 0.09
5 3 4 1.14 0.1
-5 3 -4 1.39 0.1
6 -3 4 121.6 1.19
6 -3 4 120.77 1.28
-6 -3 -4 120.2 1.13
-6 3 -4 121.34 1.32
6 3 4 121.47 1.28
-6 3 -4 118.67 1.27
-6 3 -4 120.27 1.16
6 3 4 122.34 1.31
7 -3 4 5.86 0.17
7 -3 4 6.08 0.2
-7 -3 -4 5.74 0.12
-7 3 -4 5.82 0.14
-7 3 -4 5.85 0.21
-7 3 -4 5.9 0.22
7 3 4 6.12 0.22
8 -3 4 1.74 0.13
8 -3 4 1.71 0.11
-8 3 -4 1.54 0.07
-8 3 -4 1.73 0.14
8 3 4 1.64 0.13
-8 3 -4 1.7 0.15
9 -3 4 5.68 0.25
9 -3 4 6.12 0.2
-9 3 -4 6.12 0.26
-9 3 -4 5.92 0.25
9 3 4 6.1 0.26
10 -3 4 5.16 0.2
-10 3 -4 5.06 0.25
11 -3 4 4.91 0.2
-11 3 -4 4.13 0.25
12 -3 4 2.46 0.17
12 3 4 2.55 0.22
-12 3 -4 2.71 0.24
13 3 4 -0.04 0.09
-13 3 -4 0.02 0.11
-14 3 -4 0.35 0.14
14 3 4 0.1 0.1
-14 4 4 0.77 0.16
-14 4 4 0.99 0.17
-13 4 4 2.34 0.24
-13 4 4 2.36 0.23
-12 4 4 4.58 0.27
-12 4 4 4.9 0.29
-11 4 4 22.54 0.55
-11 4 4 23.32 0.57
-11 4 4 23.63 0.49
10 4 -4 3.54 0.31
-10 4 4 3.21 0.21
-10 4 4 3.05 0.18
-10 4 4 3.37 0.22
9 4 -4 4.04 0.2
-9 4 4 4.14 0.22
-9 4 4 3.98 0.19
-9 4 4 4.13 0.22
8 4 -4 2.85 0.16
-8 4 4 2.4 0.14
-8 4 4 2.65 0.16
-8 4 4 2.5 0.16
-8 4 4 2.45 0.17
-7 4 4 10.05 0.29
7 4 -4 10.67 0.27
-7 4 4 9.77 0.26
-7 4 4 10.18 0.29
-7 4 4 9.8 0.29
-6 4 4 30.24 0.47
6 4 -4 31.46 0.48
-6 4 4 29.96 0.5
-6 4 4 30.53 0.51
5 4 -4 3.26 0.13
-5 4 4 3.23 0.14
-5 4 4 3.4 0.14
-5 4 4 3.39 0.15
-4 4 4 14.41 0.28
-4 4 4 14.42 0.28
-4 4 4 14.37 0.28
4 4 -4 14.53 0.25
-3 4 4 18.49 0.3
3 4 -4 18.33 0.27
-2 4 4 4.9 0.13
-2 4 4 4.89 0.09
2 4 -4 4.83 0.11
-1 -4 4 14.2 0.18
1 4 -4 14.1 0.19
-1 4 4 13.93 0.23
-1 4 4 14.39 0.2
0 -4 4 11.45 0.19
0 4 4 11.18 0.2
0 4 -4 11.18 0.16
0 4 4 11.46 0.18
1 -4 4 18.22 0.28
1 4 4 18.04 0.29
1 4 4 18.27 0.26
-1 4 -4 17.61 0.24
-2 -4 -4 79.96 0.81
2 -4 4 77.81 0.82
2 4 4 79.9 0.84
2 4 4 76.25 0.83
-2 4 -4 76.75 0.78
3 -4 4 18.08 0.37
-3 -4 -4 17.76 0.28
3 -4 4 17.88 0.31
-3 4 -4 17.88 0.29
3 4 4 17.92 0.31
-3 4 -4 17.99 0.27
3 4 4 18.6 0.33
4 -4 4 26.99 0.43
4 -4 4 27.97 0.42
-4 -4 -4 26.92 0.37
4 -4 4 27.36 0.37
-4 4 -4 27.23 0.42
4 4 4 27.41 0.43
-4 4 -4 27.55 0.37
4 4 4 27.6 0.42
5 -4 4 45.84 0.55
-5 -4 -4 45.91 0.53
5 -4 4 46.07 0.63
5 4 4 46.31 0.61
-5 4 -4 47.33 0.63
5 4 4 45.46 0.63
-5 4 -4 46.5 0.54
5 4 4 45.73 0.84
6 -4 4 11.37 0.23
-6 -4 -4 11.68 0.21
6 -4 4 11.54 0.29
6 4 4 12.1 0.3
6 4 4 11.95 0.28
-6 4 -4 11.63 0.3
-6 4 -4 11.26 0.22
7 -4 4 8.24 0.25
7 -4 4 9.17 0.21
-7 -4 -4 9.02 0.15
-7 4 -4 8.32 0.29
-7 4 -4 8.79 0.28
-7 4 -4 8.73 0.19
7 4 4 9.39 0.28
7 4 4 8.95 0.26
8 -4 4 0.98 0.1
8 -4 4 0.9 0.11
-8 4 -4 0.75 0.11
-8 4 -4 0.65 0.06
8 4 4 0.75 0.1
-8 4 -4 0.84 0.12
8 4 4 0.55 0.1
9 -4 4 11.04 0.32
9 -4 4 10.83 0.26
9 4 4 11.36 0.33
-9 4 -4 11.14 0.34
10 -4 4 4.37 0.18
-10 4 -4 3.67 0.23
10 4 4 4.08 0.23
11 4 4 0.68 0.13
-11 4 -4 0.57 0.12
12 4 4 0.86 0.15
-12 4 -4 0.59 0.14
-13 4 -4 0.95 0.16
13 4 4 1.01 0.17
14 4 4 1.27 0.18
-14 4 -4 1.66 0.2
-14 5 4 1.19 0.2
-13 5 4 3.47 0.25
-13 5 4 3.64 0.29
-12 5 4 4.16 0.27
-12 5 4 3.72 0.28
-11 5 4 11.5 0.4
-11 5 4 11.94 0.35
-11 5 4 11.39 0.41
-10 5 4 5.03 0.27
-10 5 4 5.29 0.24
-10 5 4 5.24 0.27
-9 5 4 2.04 0.15
-9 5 4 1.78 0.17
-9 5 4 1.7 0.17
9 5 -4 1.91 0.15
-8 5 4 3.53 0.2
-8 5 4 3.39 0.19
8 5 -4 3.62 0.18
-8 5 4 3.62 0.2
-8 5 4 3.69 0.18
-7 5 4 45.32 0.66
-7 5 4 44.05 0.69
-7 5 4 44.84 0.71
7 5 -4 45.66 0.65
-7 5 4 44.9 0.7
6 5 -4 25.5 0.43
-6 5 4 25.61 0.46
-6 5 4 25.49 0.44
-6 5 4 25.65 0.47
-5 5 4 2.67 0.13
-5 5 4 2.73 0.14
-5 5 4 2.73 0.13
5 5 -4 2.78 0.12
-4 5 4 22.4 0.38
-4 5 4 22.67 0.38
-4 5 4 22.21 0.38
4 5 -4 22.08 0.34
-3 5 4 18.45 0.32
3 5 -4 18.55 0.28
-3 5 4 19.13 0.21
-3 5 4 18.79 0.33
-3 5 4 19.12 0.32
2 5 -4 59.63 0.63
-2 5 4 62.09 0.6
-2 5 4 62.04 0.69
-2 5 4 61.37 0.69
-1 -5 4 22.05 0.28
-1 5 4 22.29 0.33
-1 5 4 22.6 0.29
1 5 -4 22.15 0.28
0 -5 4 0.47 0.05
0 5 -4 0.28 0.04
0 5 4 0.27 0.05
0 5 4 0.27 0.04
-1 -5 -4 14.71 0.26
1 -5 4 14.68 0.26
-1 5 -4 14.06 0.22
1 5 4 14.55 0.26
1 5 4 13.58 0.28
1 5 4 14.91 0.24
-2 -5 -4 29.04 0.4
2 -5 4 30.96 0.5
2 -5 4 29.33 0.42
2 5 4 30.02 0.42
-2 5 -4 28.58 0.39
-2 5 -4 29.36 0.38
2 5 4 29.13 0.43
2 5 4 30.15 0.4
3 -5 4 155.2 1.47
-3 -5 -4 155.04 1.48
3 -5 4 158.7 1.57
3 -5 4 153.54 1.53
-3 5 -4 153.52 1.5
-3 5 -4 154.8 1.46
3 5 4 157.19 1.55
3 5 4 159.45 1.5
3 5 4 159.15 1.53
-4 -5 -4 48.16 0.57
4 -5 4 46.85 0.63
4 -5 4 49.05 0.66
4 -5 4 48.93 0.57
-4 5 -4 46.69 0.63
4 5 4 49.86 0.63
-4 5 -4 47.5 0.56
4 5 4 48.72 0.65
5 -5 4 3.92 0.13
-5 -5 -4 4.09 0.13
5 -5 4 4.26 0.18
-5 5 -4 4.2 0.23
5 5 4 3.83 0.17
5 5 4 3.89 0.16
-5 5 -4 3.91 0.14
6 -5 4 6.13 0.22
-6 -5 -4 6.08 0.15
6 -5 4 6.07 0.17
6 5 4 6.62 0.23
-6 5 -4 5.95 0.17
6 5 4 6.03 0.21
7 -5 4 2.44 0.16
7 -5 4 2.48 0.12
-7 -5 -4 2.65 0.08
7 5 4 2.52 0.15
-7 5 -4 2.37 0.11
7 5 4 2.54 0.16
8 -5 4 6.39 0.2
8 -5 4 6.5 0.25
8 5 4 6 0.29
-8 5 -4 6.26 0.15
8 5 4 5.9 0.24
9 -5 4 0.86 0.12
9 5 4 1.01 0.13
10 -5 4 5.17 0.26
10 5 4 5.42 0.26
11 5 4 0.98 0.15
12 5 4 13.13 0.43
13 5 4 5.14 0.29
-14 6 4 1.58 0.21
13 -6 -4 3.36 0.25
-13 6 4 4.21 0.3
-13 6 4 3.49 0.27
12 -6 -4 0.36 0.12
-12 6 4 0.46 0.13
-12 6 4 0.32 0.13
-11 6 4 4.1 0.28
-11 6 4 3.65 0.27
-10 6 4 1.29 0.18
-10 6 4 1.2 0.16
-10 6 4 1.12 0.14
-9 6 4 5.31 0.24
-9 6 4 5.37 0.27
-9 6 4 5.85 0.28
-8 6 4 8.56 0.41
-8 6 4 8.65 0.28
-8 6 4 9.31 0.32
-8 6 4 8.79 0.31
-7 6 4 11.1 0.33
-7 6 4 11.25 0.31
-7 6 4 11.64 0.34
-7 6 4 11.4 0.33
-6 6 4 30.16 0.53
-6 6 4 30.18 0.54
-6 6 4 30.08 0.51
-5 6 4 20.36 0.39
-5 6 4 19.98 0.39
-5 6 4 19.47 0.39
-4 6 4 5.35 0.18
-4 6 4 5.15 0.18
-4 6 4 5.36 0.18
-3 6 4 10.16 0.24
-3 6 4 10.43 0.24
-3 6 4 10.08 0.16
-3 6 4 10.45 0.24
-2 6 4 23.95 0.3
-2 6 4 23.93 0.38
-2 6 4 24.42 0.38
-2 6 4 24.6 0.38
-1 -6 4 10.21 0.18
-1 6 4 10.47 0.19
-1 6 4 10.28 0.23
0 -6 4 16.01 0.3
0 -6 -4 15.88 0.28
0 -6 4 15.97 0.27
0 6 4 15.95 0.26
0 6 4 15.99 0.29
0 6 4 15.94 0.28
1 -6 4 3.57 0.13
-1 -6 -4 3.43 0.13
1 -6 4 3.73 0.14
1 -6 4 3.64 0.14
1 6 4 3.51 0.14
1 6 4 3.47 0.13
1 6 4 3.49 0.12
-2 -6 -4 13.34 0.26
2 -6 4 14.2 0.3
2 -6 4 13.91 0.28
2 -6 4 14.35 0.3
2 6 4 14.17 0.28
-2 6 -4 13.59 0.24
2 6 4 13.51 0.26
2 6 4 13.91 0.29
3 -6 4 23.43 0.4
-3 -6 -4 23.37 0.36
3 -6 4 23.1 0.42
3 6 4 22.87 0.4
3 6 4 23.32 0.39
-3 6 -4 23.15 0.34
3 6 4 22.75 0.38
4 -6 4 4.79 0.19
-4 -6 -4 4.92 0.16
4 -6 4 4.94 0.19
4 6 4 4.62 0.17
4 6 4 4.86 0.19
-4 6 -4 4.85 0.15
-5 -6 -4 28.89 0.4
5 -6 4 28.21 0.41
5 -6 4 28.52 0.51
5 6 4 28.71 0.5
5 6 4 28.07 0.47
-5 6 -4 28.41 0.41
6 -6 4 2.46 0.12
-6 -6 -4 2.67 0.11
6 -6 4 2.65 0.16
-6 6 -4 2.57 0.12
6 6 4 2.33 0.15
6 6 4 2.76 0.16
7 -6 4 6.23 0.25
7 6 4 6.44 0.25
7 6 4 6.12 0.23
-7 6 -4 6.16 0.17
8 -6 4 0.55 0.11
8 6 4 0.64 0.11
-8 6 -4 0.56 0.06
9 -6 4 0.41 0.1
9 6 4 0.46 0.1
10 -6 4 2.02 0.19
10 6 4 2.05 0.19
11 -6 4 1.75 0.19
11 6 4 1.78 0.19
12 -6 4 0.9 0.16
12 6 4 0.74 0.15
13 6 4 4.37 0.29
13 -7 -4 0.23 0.13
-13 7 4 0.41 0.14
12 -7 -4 1.13 0.17
-12 7 4 1.3 0.2
-12 7 4 1.45 0.2
11 -7 -4 0.23 0.11
-11 7 4 0.25 0.12
-11 7 4 0.23 0.13
-10 7 4 13.94 0.46
-10 7 4 13.26 0.4
-10 7 4 13.57 0.44
-9 7 4 7.32 0.32
-9 7 4 7.22 0.28
-9 7 4 7.02 0.31
-8 7 4 5.67 0.27
-8 7 4 5.9 0.27
-8 7 4 5.71 0.25
-7 7 4 2.9 0.19
-7 7 4 2.81 0.19
-7 7 4 3.19 0.29
-7 7 4 3.07 0.18
-6 7 4 4.48 0.2
-6 7 4 4.08 0.2
-6 7 4 4.31 0.21
-6 7 4 4.42 0.2
-5 7 4 3.69 0.18
-5 7 4 3.4 0.17
-5 7 4 3.98 0.19
-4 7 4 22.06 0.41
-4 7 4 22.72 0.26
-4 7 4 22.56 0.42
-4 7 4 22.19 0.42
-3 7 4 22.32 0.4
-3 7 4 22.03 0.39
-3 7 4 22.31 0.4
-3 7 4 22.29 0.29
-2 -7 4 13.98 0.19
-2 7 4 14.52 0.3
-2 7 4 14.29 0.29
-2 7 4 14.61 0.23
-2 7 4 13.92 0.29
-1 -7 4 16.46 0.31
-1 -7 4 16.27 0.26
-1 7 4 16.38 0.31
-1 7 4 16.01 0.26
-1 7 4 15.96 0.31
0 -7 -4 29.32 0.45
0 -7 4 30.51 0.46
0 -7 4 31.1 0.43
0 -7 4 31.05 0.45
0 7 4 30.45 0.46
0 7 4 30.24 0.41
0 7 4 30.82 0.45
1 -7 4 8.37 0.23
1 -7 4 8.19 0.21
-1 -7 -4 8.07 0.21
1 -7 4 8.42 0.22
1 7 4 8.11 0.22
1 7 4 8.64 0.2
1 7 4 8.53 0.22
-2 -7 -4 1.43 0.11
2 -7 4 1.33 0.11
2 -7 4 1.3 0.11
2 -7 4 1.13 0.11
-2 7 -4 1.17 0.08
2 7 4 1.25 0.1
2 7 4 1.33 0.1
2 7 4 1.27 0.1
3 -7 4 8.14 0.24
-3 -7 -4 8.3 0.22
3 -7 4 7.79 0.25
3 7 4 8.13 0.23
3 7 4 8 0.24
-3 7 -4 8.25 0.2
-4 -7 -4 11.42 0.25
4 -7 4 11.53 0.31
4 -7 4 11.7 0.3
4 7 4 11.68 0.29
4 7 4 11.78 0.3
-4 7 -4 11.76 0.25
-5 -7 -4 3.7 0.14
5 -7 4 3.48 0.22
5 -7 4 3.92 0.2
5 7 4 3.75 0.17
5 7 4 3.95 0.19
-5 7 -4 3.64 0.15
6 -7 4 1.22 0.14
-6 -7 -4 1.34 0.09
-6 -7 -4 1.4 0.09
6 7 4 1.35 0.13
6 7 4 1.62 0.14
-6 7 -4 1.52 0.11
7 -7 4 0.71 0.12
-7 7 -4 0.55 0.07
7 7 4 0.57 0.11
8 -7 4 2.86 0.2
8 7 4 2.61 0.19
-8 7 -4 2.69 0.12
9 -7 4 0 0.08
9 7 4 0.18 0.09
10 -7 4 0.23 0.1
10 7 4 0.26 0.11
11 -7 4 1.99 0.22
11 7 4 2.33 0.22
12 -7 4 0.58 0.14
12 -7 4 0.39 0.13
12 7 4 0.44 0.13
12 -8 -4 3.79 0.28
-12 8 4 3.74 0.27
-12 8 4 4.21 0.3
11 -8 -4 0.97 0.16
-11 8 4 0.51 0.14
-11 8 4 0.76 0.17
10 -8 -4 11.84 0.41
-10 8 4 11.99 0.44
-10 8 4 11.6 0.42
-9 8 4 0.63 0.14
-9 8 4 0.75 0.14
-8 8 4 2.88 0.22
-8 8 4 2.94 0.2
-8 8 4 2.47 0.21
-7 8 4 0.44 0.11
-7 8 4 0.29 0.1
-7 8 4 0.38 0.1
-6 8 4 7.13 0.28
-6 8 4 6.89 0.26
-6 8 4 7.26 0.28
-5 8 4 6.53 0.24
-5 8 4 6.52 0.25
-5 8 4 6.42 0.24
-4 8 4 12.99 0.19
-4 8 4 12.48 0.32
-4 8 4 13.09 0.33
-4 8 4 13.26 0.32
-3 8 4 48.54 0.69
-3 8 4 49.45 0.54
-3 8 4 49.05 0.67
-3 8 4 48.85 0.68
-2 -8 4 8.1 0.15
-2 8 4 8.51 0.24
-2 8 4 8.47 0.18
-2 8 4 7.98 0.23
-2 8 4 8.39 0.24
-1 -8 4 2.05 0.1
-1 8 4 1.85 0.12
-1 8 4 1.99 0.12
-1 8 4 2.12 0.1
0 -8 -4 3.74 0.16
0 -8 4 3.31 0.14
0 -8 4 3.49 0.15
0 8 4 3.71 0.14
0 8 4 3.52 0.16
0 8 4 3.46 0.15
1 -8 4 15.31 0.33
1 -8 4 15.53 0.31
-1 -8 -4 15.02 0.32
1 -8 4 15.43 0.34
1 8 4 15.2 0.33
1 8 4 15.1 0.29
1 8 4 14.91 0.31
2 -8 4 4.08 0.17
-2 -8 -4 3.76 0.16
2 -8 4 3.92 0.17
2 -8 4 4.1 0.18
2 8 4 3.66 0.17
-2 8 -4 3.95 0.15
2 8 4 4.15 0.16
2 8 4 3.96 0.17
-3 -8 -4 14.18 0.3
3 -8 4 14.34 0.35
3 -8 4 14.47 0.33
-3 8 -4 13.95 0.28
3 8 4 14.5 0.32
3 8 4 14.1 0.33
4 -8 4 0.17 0.07
-4 -8 -4 0.28 0.07
4 -8 4 0.34 0.08
4 8 4 0.23 0.07
4 8 4 0.31 0.08
-4 8 -4 0.18 0.06
5 -8 4 2.59 0.18
-5 -8 -4 3.32 0.14
-5 -8 -4 3.13 0.14
5 -8 4 2.98 0.18
5 8 4 2.92 0.17
-5 8 -4 3.53 0.15
-6 -8 -4 8.17 0.19
6 -8 4 7.93 0.3
6 8 4 7.58 0.26
-6 8 -4 8.09 0.22
7 -8 4 2.84 0.21
7 8 4 3.05 0.2
-7 8 -4 3.15 0.15
8 -8 4 1.36 0.17
8 8 4 1.49 0.16
-8 8 -4 1.39 0.1
9 -8 4 0.59 0.14
9 8 4 0.77 0.13
10 -8 4 4.32 0.28
10 8 4 4.22 0.26
11 -8 4 8.94 0.38
11 -8 4 9.09 0.39
11 8 4 9.48 0.37
12 -8 4 8.54 0.38
12 -8 4 7.77 0.36
12 8 4 8.19 0.35
12 -9 -4 1.56 0.2
-12 9 4 1.52 0.22
11 -9 -4 0.05 0.1
-11 9 4 0.23 0.11
-11 9 4 0.16 0.13
10 -9 -4 0.17 0.12
-10 9 4 0.38 0.12
-10 9 4 0.33 0.14
9 -9 -4 13.66 0.44
-9 9 4 14.46 0.45
-9 9 4 14.52 0.48
-8 9 4 4 0.26
-8 9 4 3.88 0.25
-7 9 4 4.07 0.23
-7 9 4 4.29 0.25
-7 9 4 4.53 0.26
-6 9 4 0.98 0.14
-6 9 4 1.09 0.14
-6 9 4 1.06 0.14
-5 9 4 2.41 0.18
-5 9 4 2.19 0.16
-4 9 4 0.73 0.11
-4 9 4 0.76 0.06
-4 9 4 0.62 0.09
-3 9 4 1.18 0.13
-3 9 4 1.02 0.08
-3 9 4 0.95 0.11
-3 9 4 1.06 0.12
-2 -9 4 2.42 0.08
-2 9 4 2.64 0.15
-2 9 4 2.65 0.16
-2 9 4 2.55 0.12
-1 -9 4 0.68 0.07
-1 9 4 0.65 0.09
-1 9 4 0.79 0.08
-1 9 4 0.75 0.1
0 -9 4 0.06 0.05
0 -9 -4 0.17 0.06
0 9 4 0.01 0.04
0 9 4 0.2 0.06
0 9 4 0.03 0.05
1 -9 4 1.16 0.12
-1 -9 -4 0.9 0.1
1 -9 4 0.69 0.09
1 9 4 0.92 0.11
1 9 4 0.84 0.1
1 9 4 0.94 0.1
2 -9 4 1.94 0.14
2 -9 4 2.5 0.16
-2 -9 -4 2.24 0.15
2 -9 4 2.41 0.15
2 9 4 2.25 0.14
-2 9 -4 2.13 0.13
2 9 4 2.42 0.15
2 9 4 2.4 0.14
3 -9 4 0.67 0.11
3 -9 4 0.59 0.1
-3 -9 -4 0.71 0.1
3 -9 4 0.5 0.09
-3 9 -4 0.45 0.08
3 9 4 0.73 0.1
-4 -9 -4 2.7 0.15
-4 -9 -4 2.72 0.15
4 -9 4 2.32 0.17
4 -9 4 2.79 0.18
-4 9 -4 2.79 0.15
4 9 4 2.72 0.17
5 -9 4 7.84 0.3
5 -9 4 7.96 0.29
-5 -9 -4 8.17 0.22
-5 9 -4 7.94 0.23
5 9 4 7.79 0.27
6 -9 4 3.75 0.23
-6 -9 -4 3.46 0.12
6 9 4 3.29 0.2
-6 9 -4 3.42 0.16
7 -9 4 5.86 0.29
-7 9 -4 6.12 0.19
7 9 4 6 0.27
8 -9 4 6.22 0.31
-8 9 -4 6.41 0.17
8 9 4 6.08 0.27
9 -9 4 2.57 0.24
9 9 4 2.74 0.22
10 -9 4 1.41 0.2
10 9 4 1.05 0.16
11 -9 4 1.41 0.2
11 -9 4 1.33 0.2
11 9 4 1.4 0.18
11 -10 -4 -0.03 0.09
-11 10 4 0.06 0.13
10 -10 -4 2.51 0.24
-10 10 4 2.49 0.26
-10 10 4 2.72 0.23
9 -10 -4 0.47 0.13
-9 10 4 0.66 0.15
-9 10 4 0.58 0.13
8 -10 -4 2.81 0.22
-8 10 4 2.91 0.26
7 -10 -4 1.81 0.19
-7 10 4 1.68 0.19
6 -10 -4 0.96 0.14
-6 10 4 1.34 0.17
-5 10 4 6.16 0.27
-4 10 4 0.74 0.12
-4 10 4 0.62 0.06
-3 10 4 0.73 0.11
-3 10 4 0.71 0.07
-2 10 4 5.32 0.17
-2 10 4 5.89 0.23
-1 -10 4 18.31 0.32
1 -10 -4 19.47 0.42
-1 10 4 19.33 0.34
-1 10 4 18.48 0.4
0 -10 4 25.78 0.43
0 -10 -4 26.1 0.49
0 10 4 26.12 0.42
0 10 4 25.61 0.47
-1 -10 -4 2.51 0.17
-1 -10 -4 2.6 0.17
1 -10 4 2.48 0.16
1 10 4 2.53 0.15
1 10 4 2.23 0.15
2 -10 4 2.26 0.16
-2 -10 -4 2.51 0.17
-2 -10 -4 2.56 0.17
2 -10 4 2.55 0.17
2 10 4 2.5 0.16
-2 10 -4 2.74 0.15
2 10 4 2.52 0.15
3 -10 4 2.12 0.18
3 -10 4 2.4 0.17
-3 -10 -4 2.58 0.16
-3 -10 -4 2.4 0.16
3 -10 4 2.67 0.18
-3 10 -4 2.33 0.15
3 10 4 2.61 0.17
-4 -10 -4 5.44 0.2
4 -10 4 5.53 0.25
4 -10 4 5.23 0.26
4 -10 4 5.24 0.25
-4 10 -4 5.43 0.21
4 10 4 5.56 0.24
5 -10 4 8.2 0.33
5 -10 4 7.87 0.31
-5 -10 -4 8.15 0.22
5 -10 4 8.18 0.3
-5 10 -4 7.97 0.24
5 10 4 8.23 0.29
6 -10 4 1.86 0.19
-6 10 -4 1.33 0.12
6 10 4 1.74 0.17
7 -10 4 2.47 0.23
7 10 4 2.81 0.2
-7 10 -4 2.68 0.14
8 -10 4 3.98 0.27
-8 10 -4 4.28 0.14
8 10 4 4.38 0.25
9 -10 4 16.52 0.51
9 -10 4 16.52 0.52
9 10 4 16.37 0.46
10 -10 4 0.55 0.15
10 -10 4 0.66 0.16
10 10 4 0.53 0.13
10 -11 -4 0.29 0.12
-10 11 4 0.19 0.13
9 -11 -4 0.09 0.1
-9 11 4 0.24 0.13
8 -11 -4 -0.03 0.09
-8 11 4 0.24 0.12
7 -11 -4 5.74 0.3
-7 11 4 6.11 0.32
6 -11 -4 1.03 0.15
-6 11 4 1.22 0.17
5 -11 -4 2.43 0.2
-5 11 4 1.94 0.2
-4 11 4 0.97 0.08
-4 11 4 0.87 0.14
-3 11 4 0.56 0.12
-3 11 4 0.41 0.06
-2 11 4 6.95 0.2
-2 11 4 7.04 0.28
1 -11 -4 22.59 0.48
1 -11 -4 22.87 0.49
-1 -11 4 22.92 0.36
-1 11 4 22.67 0.48
-1 11 4 22.01 0.39
0 -11 -4 2.32 0.19
0 -11 -4 2.17 0.18
0 -11 4 2.14 0.14
0 11 4 1.95 0.16
0 11 4 1.92 0.14
-1 -11 -4 1.68 0.16
-1 -11 -4 1.5 0.15
1 -11 4 1.88 0.14
1 11 4 1.63 0.15
1 11 4 2.01 0.15
2 -11 4 3.63 0.2
-2 -11 -4 3.62 0.2
2 -11 4 3.87 0.25
-2 11 -4 3.75 0.18
2 11 4 3.27 0.18
2 11 4 3.51 0.2
3 -11 4 17.32 0.42
-3 -11 -4 17.19 0.38
3 -11 4 16.81 0.44
-3 11 -4 17.47 0.37
3 11 4 16.88 0.41
4 -11 4 2.49 0.19
-4 -11 -4 2.69 0.16
4 -11 4 2.5 0.2
4 -11 4 2.83 0.2
-4 11 -4 2.87 0.17
4 11 4 3.06 0.2
5 -11 4 0.37 0.11
5 -11 4 0.25 0.1
-5 -11 -4 0.28 0.06
5 -11 4 0.25 0.1
5 11 4 0.42 0.11
-5 11 -4 0.3 0.08
6 -11 4 1.46 0.18
6 -11 4 1.31 0.18
6 -11 4 1.23 0.16
-6 11 -4 1.25 0.12
6 11 4 1.18 0.15
7 -11 4 6.12 0.31
7 -11 4 6.15 0.32
-7 11 -4 6.1 0.2
7 11 4 5.71 0.27
8 -11 4 8.93 0.39
8 -11 4 9.04 0.38
8 11 4 9.36 0.35
9 -11 4 0.5 0.13
9 -11 4 0.52 0.13
9 11 4 0.33 0.11
8 -12 -4 0.78 0.15
-8 12 4 0.7 0.16
7 -12 -4 0.69 0.15
-7 12 4 0.8 0.16
6 -12 -4 4.72 0.27
-6 12 4 3.99 0.28
-5 12 4 1.51 0.19
-4 12 4 6.11 0.29
-4 12 4 6.2 0.15
-3 12 4 2 0.11
-3 12 4 2.12 0.2
2 -12 -4 1.11 0.18
-2 12 4 1.01 0.14
-2 12 4 1 0.1
1 -12 -4 1.11 0.15
-1 12 4 1.23 0.15
-1 12 4 1.49 0.13
0 -12 -4 6.48 0.28
0 -12 4 6.65 0.21
0 12 4 6.8 0.23
0 12 4 6.85 0.28
1 -12 4 0.27 0.07
-1 -12 -4 0.1 0.09
1 12 4 0.11 0.07
1 12 4 0.24 0.09
2 -12 4 5.15 0.23
-2 -12 -4 5.09 0.23
-2 12 -4 5.11 0.22
2 12 4 5.05 0.24
2 12 4 5.18 0.22
-3 -12 -4 4.12 0.2
3 -12 4 4.39 0.23
3 -12 4 4.56 0.33
-3 12 -4 4.45 0.21
3 12 4 4.73 0.24
3 12 4 4.68 0.24
4 -12 4 0.62 0.13
4 -12 4 0.8 0.13
-4 -12 -4 0.69 0.1
4 12 4 0.57 0.11
-4 12 -4 0.8 0.11
5 -12 4 1.44 0.17
5 -12 4 1.3 0.17
5 -12 4 1.49 0.18
-5 12 -4 1.32 0.13
5 12 4 1.47 0.17
6 -12 4 1 0.15
6 -12 4 0.97 0.16
6 -12 4 1 0.16
-6 12 -4 1 0.11
7 -12 4 2.71 0.23
7 -12 4 2.51 0.24
7 -12 4 3.31 0.23
-7 12 -4 3 0.18
-3 13 4 5.47 0.17
2 -13 -4 0.93 0.14
-2 13 4 0.75 0.09
1 -13 -4 0.44 0.11
-1 13 4 0.45 0.08
0 -13 4 12.62 0.27
0 -13 -4 13.11 0.39
0 13 4 13.06 0.32
1 -13 4 1 0.11
-1 -13 -4 1.13 0.15
1 13 4 1.03 0.12
2 -13 4 3.56 0.2
-2 -13 -4 3.58 0.2
2 13 4 3.63 0.19
-2 13 -4 3.56 0.2
-3 -13 -4 1.42 0.14
3 -13 4 1.46 0.16
-3 13 -4 1.2 0.13
3 13 4 1.37 0.14
-4 -13 -4 2.44 0.13
4 -13 4 2.14 0.2
-4 13 -4 2.32 0.17
5 -13 4 0.09 0.09
-1 14 -4 5.16 0.34
-15 0 5 5.45 0.31
-14 0 5 0.4 0.12
-13 0 5 1.46 0.18
-12 0 5 10.58 0.36
-11 0 5 5.98 0.26
-11 0 5 5.83 0.26
-10 0 5 1.37 0.14
10 0 -5 1.24 0.15
-10 0 5 1.19 0.14
-10 0 5 1.1 0.13
-9 0 5 0.87 0.11
9 0 -5 0.96 0.12
-9 0 5 1.08 0.12
-9 0 5 0.86 0.11
-8 0 5 0.03 0.04
-8 0 5 0.03 0.04
-8 0 5 0.02 0.03
-8 0 5 0.07 0.05
-7 0 5 119.87 1.33
-7 0 5 125.1 1.32
-7 0 5 125.41 1.27
-6 0 5 90.67 1.01
-5 0 5 15.73 0.29
-4 0 5 9.67 0.2
-3 0 5 1.45 0.06
-2 0 5 242.8 2.21
-1 0 5 51.85 0.48
0 0 -5 0.56 0.07
0 0 5 0.54 0.02
1 0 5 3.82 0.08
2 0 5 109.4 1.01
2 0 5 109.22 1.25
3 0 5 2.69 0.16
-3 0 -5 2.94 0.13
3 0 5 2.68 0.09
4 0 5 10.22 0.22
4 0 5 10.43 0.35
-4 0 -5 10.88 0.2
5 0 5 10.16 0.37
5 0 5 10.2 0.24
-5 0 -5 10.02 0.2
-6 0 -5 9.36 0.24
6 0 5 9.75 0.25
-6 0 -5 9.38 0.19
-7 0 -5 55.22 0.74
7 0 5 56.49 0.76
-7 0 -5 54.97 0.6
-8 0 -5 25.84 0.32
8 0 5 25.98 0.5
-8 0 -5 26.08 0.48
9 0 5 2.03 0.15
-9 0 -5 2.17 0.17
-10 0 -5 7.09 0.29
-11 0 -5 0.12 0.1
-12 0 -5 -0.13 0.09
-13 0 -5 1.15 0.18
-14 0 -5 0.93 0.17
14 0 5 0.63 0.12
-15 -1 5 0.69 0.14
-15 1 5 0.4 0.12
-14 -1 5 2.15 0.21
-14 1 5 2.35 0.23
-13 -1 5 0.65 0.13
-13 1 5 0.87 0.15
-13 1 5 0.76 0.13
-12 -1 5 0.36 0.1
-12 1 5 0.29 0.09
-12 1 5 0.45 0.11
-11 -1 5 0.13 0.08
-11 1 5 0.11 0.07
-11 1 5 0.14 0.08
-10 -1 5 0.92 0.12
-10 1 5 1 0.13
-10 1 5 0.96 0.13
-10 1 5 0.98 0.14
10 1 -5 0.96 0.13
-9 -1 5 4.98 0.3
-9 -1 5 4.92 0.2
-9 1 5 5.08 0.22
-9 1 5 5.14 0.18
-9 1 5 4.79 0.22
-9 1 5 4.73 0.21
9 1 -5 4.99 0.22
-8 -1 5 9.11 0.25
-8 -1 5 9.38 0.26
-8 -1 5 9.17 0.27
-8 1 5 9.24 0.27
8 1 -5 9.13 0.27
-8 1 5 8.97 0.28
-8 1 5 9.37 0.24
-8 1 5 8.56 0.27
-7 -1 5 24.86 0.42
-7 -1 5 24.9 0.45
-7 -1 5 24.48 0.44
-7 1 5 25.94 0.42
7 1 -5 25.21 0.45
-7 1 5 25.43 0.44
-7 1 5 25.67 0.46
-6 -1 5 19.71 0.35
-6 1 5 18.86 0.36
-6 1 5 19.16 0.34
6 1 -5 19.25 0.36
-6 1 5 19.37 0.35
-5 -1 5 41.68 0.54
5 1 -5 43.26 0.55
-5 1 5 44.33 0.57
-4 -1 5 1.84 0.08
-4 1 5 1.56 0.08
-3 -1 5 84.25 0.82
-3 1 5 85.24 0.84
-2 -1 5 11.16 0.15
-2 1 5 10.87 0.17
2 1 -5 10.97 0.15
-1 1 5 111.74 0.99
1 1 -5 111.05 1.12
0 -1 -5 4.65 0.17
0 1 -5 4.91 0.18
0 1 5 4.73 0.09
1 -1 5 24.81 0.25
1 -1 5 24.68 0.41
1 1 5 24.83 0.29
2 -1 5 12.06 0.32
2 -1 5 12.1 0.18
2 1 5 11.48 0.19
2 1 5 11.57 0.3
3 -1 5 6.92 0.26
3 -1 5 7.08 0.15
-3 -1 -5 7.19 0.16
3 1 5 7.48 0.26
3 1 5 7 0.16
-3 1 -5 7.02 0.18
4 -1 5 15.89 0.3
4 -1 5 15.96 0.25
-4 -1 -5 15.87 0.26
4 -1 5 15.26 0.27
-4 1 -5 15.59 0.26
4 1 5 15.71 0.43
4 1 5 15.68 0.28
-5 -1 -5 28.36 0.42
5 -1 5 29 0.44
5 -1 5 28.09 0.39
-5 -1 -5 27.94 0.38
5 1 5 28.62 0.44
5 1 5 28.47 0.63
-5 1 -5 28.19 0.38
6 -1 5 2.57 0.12
6 -1 5 2.75 0.14
6 -1 5 2.61 0.12
-6 -1 -5 2.34 0.1
-6 -1 -5 2.59 0.13
6 1 5 2.56 0.14
-6 1 -5 2.69 0.13
-6 1 -5 2.38 0.11
-7 -1 -5 55.8 0.74
7 -1 5 51.77 0.69
-7 -1 -5 55.91 0.6
7 -1 5 56.06 0.76
7 1 5 55.9 0.76
-7 1 -5 55.56 0.61
-7 1 -5 55.03 0.73
-8 -1 -5 17.99 0.24
-8 -1 -5 18.38 0.4
8 -1 5 18.48 0.41
8 1 5 18.4 0.41
-8 1 -5 18.08 0.25
-8 1 -5 17.67 0.39
9 -1 5 4.63 0.22
-9 -1 -5 4.3 0.21
-9 1 -5 4.52 0.22
9 1 5 4.64 0.21
-10 -1 -5 0.97 0.13
-10 1 -5 0.63 0.12
-11 -1 -5 1.21 0.16
-11 1 -5 1.1 0.16
-12 -1 -5 1.04 0.16
12 -1 5 0.98 0.13
-12 1 -5 1.3 0.17
13 -1 5 1.85 0.17
-13 -1 -5 2.33 0.23
-13 1 -5 2.2 0.22
14 -1 5 0.95 0.13
-14 1 -5 0.83 0.17
-15 2 5 9.48 0.4
-14 -2 5 8.88 0.38
-14 2 5 8.72 0.38
-14 2 5 8.17 0.35
-13 -2 5 3.65 0.23
-13 2 5 4.11 0.25
-13 2 5 3.76 0.25
-12 -2 5 7.36 0.3
-12 2 5 7.19 0.32
-12 2 5 7.16 0.31
-11 -2 5 0.68 0.11
-11 2 5 0.83 0.14
-11 2 5 1.03 0.15
-10 -2 5 38.56 0.64
-10 2 5 38.2 0.72
-10 2 5 38.57 0.68
-10 2 5 39.45 0.61
10 2 -5 38.35 0.67
-10 2 5 38.24 0.69
-9 -2 5 11.06 0.3
-9 2 5 11.31 0.32
9 2 -5 11.5 0.33
-9 2 5 10.66 0.33
-9 2 5 10.53 0.32
-9 2 5 10.85 0.28
-8 -2 5 4.83 0.18
-8 2 5 4.62 0.18
-8 2 5 5.3 0.22
-8 2 5 4.91 0.21
-8 2 5 5.09 0.21
8 2 -5 5.09 0.2
-7 -2 5 28.16 0.47
-7 2 5 27.62 0.45
-7 2 5 27.65 0.49
-7 2 5 27.58 0.48
7 2 -5 27.35 0.46
-6 2 5 95.88 1.04
6 2 -5 93.96 1.04
-6 2 5 94.33 1.07
-6 2 5 96.49 1.06
-5 2 5 56.93 0.69
-5 2 5 55.54 0.69
5 2 -5 55.49 0.66
4 2 -5 7.79 0.17
-4 2 5 7.86 0.19
-3 2 5 6.33 0.15
3 2 -5 6.03 0.12
-2 2 5 67.81 0.67
2 2 -5 64.5 0.6
-1 2 5 3.68 0.09
1 2 -5 3.23 0.13
0 2 5 2.42 0.07
1 -2 5 33.02 0.39
1 -2 5 32.76 0.32
1 -2 5 32.23 0.5
1 2 5 32.34 0.38
2 -2 5 49.88 0.75
2 -2 5 49.95 0.56
2 -2 5 51.16 0.52
2 2 5 49.66 0.55
-2 2 -5 48.08 0.51
3 -2 5 6.52 0.15
-3 -2 -5 6.98 0.16
3 -2 5 6.71 0.17
3 2 5 7.53 0.24
3 2 5 7.41 0.27
-3 2 -5 6.55 0.15
-3 2 -5 6.38 0.15
3 2 5 6.81 0.16
4 -2 5 21.73 0.31
4 -2 5 22.06 0.34
-4 -2 -5 21.99 0.32
4 -2 5 21.05 0.34
-4 2 -5 21.72 0.34
4 2 5 22.16 0.35
4 2 5 22.3 0.52
4 2 5 21.87 0.35
-4 2 -5 22.07 0.32
-5 -2 -5 21.2 0.32
5 -2 5 21.04 0.36
5 -2 5 21.76 0.37
5 -2 5 21.28 0.36
5 -2 5 21.14 0.32
5 2 5 20.85 0.36
5 2 5 20.87 0.53
5 2 5 20.61 0.37
-5 2 -5 21.62 0.37
-5 2 -5 21.12 0.32
6 -2 5 30.75 0.47
6 -2 5 30.28 0.49
6 -2 5 30.23 0.43
-6 -2 -5 29.97 0.4
6 -2 5 30.28 0.47
6 2 5 30.67 0.5
-6 2 -5 30.22 0.49
-6 2 -5 31.01 0.47
6 2 5 30.28 0.48
-6 2 -5 30.34 0.41
-7 -2 -5 4.02 0.13
7 -2 5 4.18 0.18
7 -2 5 4.39 0.17
7 -2 5 4.31 0.17
7 -2 5 4.56 0.16
-7 2 -5 4.4 0.18
7 2 5 4.41 0.19
-7 2 -5 4.28 0.13
-8 -2 -5 3.61 0.18
8 -2 5 3.67 0.19
8 -2 5 3.31 0.16
-8 -2 -5 3.54 0.09
8 -2 5 3.61 0.15
8 2 5 3.9 0.19
-8 2 -5 3.5 0.18
-8 2 -5 3.66 0.11
9 -2 5 0.98 0.1
-9 -2 -5 1.17 0.14
9 -2 5 1.08 0.13
9 2 5 1.08 0.13
-9 2 -5 0.76 0.11
10 -2 5 7.52 0.24
-10 2 -5 7.84 0.3
11 -2 5 0.47 0.09
-11 2 -5 0.53 0.12
12 -2 5 1.05 0.13
-12 2 -5 1.03 0.16
13 -2 5 0.54 0.11
13 2 5 0.74 0.14
-13 2 -5 0.86 0.16
14 -2 5 2.53 0.19
-14 2 -5 2.27 0.22
14 2 5 2.91 0.23
-14 3 5 5.08 0.29
-14 3 5 5.58 0.32
-13 3 5 0.67 0.14
-13 3 5 0.6 0.15
-12 3 5 7.89 0.34
-12 3 5 8.03 0.33
-11 3 5 2.21 0.21
-11 3 5 2.17 0.2
-11 3 5 2.26 0.16
-10 3 5 0.32 0.09
-10 3 5 0.3 0.09
-10 3 5 0.19 0.07
-9 3 5 2.39 0.17
-9 3 5 2.89 0.19
-9 3 5 2.63 0.18
9 3 -5 2.77 0.17
-9 3 5 2.66 0.15
-8 3 5 0.29 0.08
-8 3 5 0.26 0.07
8 3 -5 0.51 0.09
-8 3 5 0.19 0.06
-8 3 5 0.25 0.06
-7 3 5 0.8 0.09
-7 3 5 0.65 0.09
-7 3 5 0.72 0.1
7 3 -5 0.79 0.09
-6 3 5 12.22 0.28
-6 3 5 12.27 0.29
-6 3 5 11.27 0.28
6 3 -5 11.81 0.26
-5 3 5 6.2 0.19
-5 3 5 6.35 0.19
-5 3 5 6.33 0.19
5 3 -5 6.27 0.17
4 3 -5 4.27 0.12
-4 3 5 4.19 0.18
-4 3 5 4.35 0.14
3 3 -5 1.15 0.06
-3 3 5 1.19 0.07
-2 3 5 30.93 0.39
-1 3 5 7.84 0.15
-1 3 5 7.76 0.12
0 -3 5 7.71 0.14
0 3 5 7.46 0.15
0 3 5 7.91 0.14
1 -3 5 17.03 0.26
1 -3 5 16.63 0.35
1 3 5 17.35 0.25
1 3 5 16.61 0.26
2 -3 5 2.44 0.1
-2 -3 -5 2.65 0.11
2 3 5 2.49 0.1
2 3 5 2.64 0.1
3 -3 5 3.1 0.11
3 -3 5 3.03 0.12
-3 -3 -5 3.26 0.11
3 3 5 3.06 0.11
-3 3 -5 3.2 0.11
3 3 5 3.2 0.12
4 -3 5 11.79 0.26
-4 -3 -5 11.53 0.22
4 -3 5 11.58 0.26
4 -3 5 11.32 0.25
4 -3 5 11.11 0.22
-4 3 -5 11.5 0.22
4 3 5 11.45 0.25
4 3 5 11.42 0.25
4 3 5 11.79 0.24
5 -3 5 1.66 0.11
5 -3 5 1.77 0.11
-5 -3 -5 1.82 0.1
5 -3 5 1.8 0.1
-5 3 -5 1.8 0.1
5 3 5 1.86 0.17
5 3 5 1.74 0.11
5 3 5 1.8 0.11
6 -3 5 28.71 0.47
6 -3 5 28.43 0.41
6 -3 5 29.1 0.48
-6 -3 -5 28.23 0.38
6 3 5 28.03 0.47
-6 3 -5 28.9 0.4
6 3 5 28.86 0.49
7 -3 5 21.68 0.41
7 -3 5 21.7 0.36
-7 -3 -5 21.91 0.3
7 -3 5 21.82 0.42
7 -3 5 21.56 0.5
7 3 5 21.51 0.42
7 3 5 22.38 0.44
-7 3 -5 21.07 0.33
8 -3 5 5.66 0.22
8 -3 5 5.58 0.18
8 -3 5 5.38 0.21
8 3 5 5.88 0.23
-8 3 -5 5.47 0.14
-8 3 -5 5.3 0.22
8 3 5 5.48 0.22
9 -3 5 2.8 0.17
9 -3 5 2.61 0.15
-9 3 -5 2.42 0.18
9 3 5 2.83 0.18
10 -3 5 11.31 0.29
-10 3 -5 10.87 0.35
10 3 5 11.22 0.35
11 -3 5 12.67 0.33
-11 3 -5 12.33 0.39
11 3 5 12.81 0.39
12 -3 5 1.09 0.13
12 3 5 0.77 0.14
-12 3 -5 0.83 0.15
13 -3 5 0.9 0.13
-13 3 -5 1.02 0.17
13 3 5 1.16 0.17
-14 4 5 5.97 0.34
-14 4 5 6.06 0.32
-13 4 5 3.33 0.25
-13 4 5 4.3 0.29
-12 4 5 1.11 0.15
-12 4 5 0.82 0.15
-12 4 5 0.92 0.16
-11 4 5 1.18 0.14
-11 4 5 1.12 0.16
-11 4 5 1.17 0.16
-10 4 5 3.81 0.23
-10 4 5 3.96 0.24
-10 4 5 3.61 0.19
-9 4 5 2.98 0.17
-9 4 5 3.08 0.19
-9 4 5 2.74 0.19
-9 4 5 2.79 0.19
-8 4 5 0.93 0.12
-8 4 5 1.17 0.13
-8 4 5 1.02 0.11
-8 4 5 1 0.13
-7 4 5 4.67 0.2
-7 4 5 4.52 0.2
-7 4 5 4.27 0.18
-6 4 5 42.29 0.62
-6 4 5 41.26 0.6
-6 4 5 42.01 0.62
-5 4 5 24.34 0.41
-5 4 5 24.43 0.42
-5 4 5 24.45 0.41
-4 4 5 5.13 0.16
-4 4 5 5.26 0.17
-4 4 5 5.07 0.16
-3 4 5 0.38 0.05
-3 4 5 0.4 0.05
-2 4 5 3.16 0.07
-2 4 5 3.08 0.11
-1 -4 5 36.86 0.37
-1 4 5 37.46 0.46
-1 4 5 37.69 0.4
0 -4 5 5.78 0.13
0 4 5 5.85 0.13
0 4 5 5.62 0.14
1 -4 5 34.19 0.43
1 4 5 33.93 0.42
1 4 5 33.53 0.44
2 -4 5 1.77 0.09
2 -4 5 1.77 0.1
-2 -4 -5 1.82 0.09
2 -4 5 1.62 0.12
2 -4 5 1.83 0.09
-2 4 -5 1.72 0.08
2 4 5 1.66 0.09
2 4 5 2.26 0.1
3 -4 5 48.61 0.62
3 -4 5 45.91 0.55
-3 -4 -5 46.06 0.56
3 -4 5 46.69 0.59
3 -4 5 47.73 0.62
3 4 5 46.95 0.59
3 4 5 47.28 0.57
-3 4 -5 46.84 0.55
3 4 5 47.16 0.6
-4 -4 -5 91.1 0.94
4 -4 5 92.7 1.03
4 -4 5 92.11 1.03
4 -4 5 90.98 0.94
4 -4 5 91.47 1.01
-4 4 -5 90.64 0.94
4 4 5 91.75 1
4 4 5 91.46 1.02
5 -4 5 9.24 0.21
5 -4 5 9.46 0.26
5 -4 5 9.74 0.26
5 -4 5 9.04 0.26
-5 -4 -5 9.66 0.21
5 4 5 9.32 0.24
5 4 5 9.33 0.25
-5 4 -5 9.34 0.21
6 -4 5 17.72 0.38
6 -4 5 17.38 0.31
6 -4 5 17.69 0.37
-6 -4 -5 17.57 0.29
6 4 5 17.82 0.36
-6 4 -5 18.05 0.31
6 4 5 17.93 0.38
7 -4 5 2.32 0.15
7 -4 5 2.25 0.12
7 -4 5 2.32 0.15
-7 -4 -5 2.23 0.1
7 4 5 2.2 0.15
7 4 5 2.38 0.15
-7 4 -5 1.96 0.11
8 -4 5 20.46 0.44
8 -4 5 20.17 0.44
8 -4 5 20.1 0.37
8 4 5 19.57 0.43
-8 4 -5 19.82 0.3
8 4 5 19.51 0.44
9 -4 5 3.38 0.2
9 -4 5 3.69 0.2
9 -4 5 3.63 0.17
9 4 5 3.53 0.21
10 -4 5 0.5 0.11
10 -4 5 0.37 0.08
10 4 5 0.53 0.11
11 -4 5 0.33 0.09
11 4 5 0.27 0.1
12 4 5 5.3 0.29
13 4 5 7.52 0.34
-14 5 5 3.29 0.27
-13 5 5 9.5 0.4
-13 5 5 8.18 0.37
-12 5 5 6.64 0.33
-12 5 5 7.13 0.34
-12 5 5 7 0.29
-11 5 5 1.14 0.17
-11 5 5 1.44 0.16
-11 5 5 1.06 0.16
-10 5 5 2.48 0.19
-10 5 5 2.48 0.22
-10 5 5 2.17 0.21
-9 5 5 0.17 0.08
-9 5 5 0.24 0.09
-9 5 5 0.13 0.08
-8 5 5 3.74 0.2
-8 5 5 3.78 0.19
-8 5 5 3.46 0.19
-8 5 5 3.46 0.2
-7 5 5 24.32 0.48
-7 5 5 23.31 0.45
-7 5 5 23.83 0.48
-6 5 5 3.77 0.17
-6 5 5 4.28 0.19
-6 5 5 4.1 0.18
-5 5 5 6.27 0.21
-5 5 5 6.02 0.2
-5 5 5 6.05 0.2
-4 5 5 31.15 0.47
-4 5 5 31.04 0.48
-4 5 5 30.94 0.47
-3 5 5 81.46 0.92
-3 5 5 80.43 0.89
-3 5 5 81.54 0.89
-2 5 5 55.13 0.54
-2 5 5 54.66 0.65
-2 5 5 54.38 0.64
-1 -5 5 72.12 0.69
-1 5 5 72.78 0.79
-1 5 5 72.25 0.79
-1 5 5 72.28 0.71
0 -5 5 5.37 0.13
0 -5 5 5.34 0.2
0 5 5 5.36 0.13
0 5 5 5.15 0.15
0 5 5 5.16 0.15
-1 -5 -5 6.67 0.17
1 -5 5 6.68 0.19
1 -5 5 6.42 0.16
1 5 5 6.85 0.16
1 5 5 6.61 0.17
1 5 5 6.45 0.17
-2 -5 -5 24.61 0.37
2 -5 5 24.78 0.41
2 -5 5 25.9 0.39
2 -5 5 25 0.41
2 5 5 24.84 0.38
2 5 5 24.71 0.39
2 5 5 25.21 0.37
3 -5 5 107 1.14
3 -5 5 108.88 1.18
3 -5 5 109.28 1.18
-3 -5 -5 107.39 1.1
3 -5 5 106.56 1.1
3 5 5 108.23 1.15
3 5 5 111.01 1.14
-3 5 -5 107.47 1.08
4 -5 5 1.15 0.11
4 -5 5 1.37 0.09
-4 -5 -5 1.58 0.1
4 -5 5 1.35 0.11
4 -5 5 1.32 0.11
-4 5 -5 1.22 0.09
4 5 5 1.32 0.1
4 5 5 1.33 0.11
5 -5 5 3 0.16
5 -5 5 3.37 0.13
5 -5 5 3.01 0.15
5 -5 5 3.1 0.16
-5 -5 -5 3.2 0.13
-5 5 -5 3.66 0.14
5 5 5 3.17 0.15
5 5 5 3.08 0.16
-6 -5 -5 2.61 0.12
6 -5 5 2.83 0.13
6 -5 5 2.61 0.16
-6 5 -5 2.53 0.13
6 5 5 2.81 0.16
6 5 5 2.66 0.15
7 -5 5 14.57 0.3
7 -5 5 14.39 0.37
-7 -5 -5 14.81 0.24
-7 5 -5 14.96 0.28
7 5 5 14.71 0.37
7 5 5 14.7 0.36
8 -5 5 2.63 0.15
8 -5 5 2.97 0.19
8 -5 5 2.77 0.18
8 5 5 2.53 0.17
-8 5 -5 2.98 0.12
9 -5 5 0.33 0.08
9 -5 5 0.3 0.1
9 -5 5 0.38 0.1
9 5 5 0.27 0.09
10 -5 5 1.17 0.15
10 -5 5 1.01 0.14
10 5 5 0.81 0.13
11 -5 5 3.48 0.24
11 5 5 3.33 0.24
12 5 5 1.45 0.18
13 5 5 2.34 0.23
13 -6 -5 1.24 0.18
-13 6 5 1.14 0.19
-13 6 5 1.18 0.18
-12 6 5 1.07 0.17
-12 6 5 1.38 0.19
-11 6 5 16.5 0.5
-11 6 5 16.81 0.45
-11 6 5 16.46 0.51
-10 6 5 29.02 0.58
-10 6 5 27.86 0.63
-10 6 5 27.7 0.64
-9 6 5 3.56 0.21
-9 6 5 3.29 0.22
-9 6 5 3.43 0.23
-8 6 5 2.2 0.18
-8 6 5 1.99 0.17
-8 6 5 2.41 0.17
-7 6 5 11 0.31
-7 6 5 10.74 0.33
-7 6 5 11.12 0.33
-6 6 5 14.28 0.34
-6 6 5 13.35 0.34
-6 6 5 13.56 0.34
-5 6 5 35.05 0.56
-5 6 5 34.26 0.55
-5 6 5 35.18 0.55
-4 6 5 13.58 0.3
-4 6 5 12.98 0.29
-4 6 5 13.31 0.3
-3 6 5 42.61 0.42
-3 6 5 41.81 0.57
-3 6 5 41.23 0.57
-3 6 5 42.51 0.59
-2 -6 5 154.29 1.61
-2 6 5 152.41 1.39
-2 6 5 153.27 1.53
-2 6 5 156.69 1.52
-2 6 5 155.77 1.52
-1 -6 5 29.4 0.44
-1 -6 5 28.79 0.34
-1 6 5 28.59 0.36
-1 6 5 29.92 0.44
-1 6 5 28.68 0.43
-1 6 5 29.63 0.49
0 -6 5 7.37 0.2
0 -6 5 7.19 0.19
0 -6 5 7.37 0.17
0 6 5 7.29 0.17
0 6 5 7.1 0.19
0 6 5 7.33 0.19
1 -6 5 16.62 0.33
1 -6 5 17.19 0.33
1 -6 5 17.25 0.3
1 6 5 17.2 0.31
1 6 5 17.02 0.29
1 6 5 16.98 0.32
2 -6 5 0.91 0.09
-2 -6 -5 1.05 0.09
2 -6 5 1.31 0.12
2 -6 5 0.97 0.09
2 6 5 1.05 0.1
2 6 5 1.03 0.09
2 6 5 1.11 0.09
-2 6 -5 1.23 0.08
3 -6 5 25.6 0.43
-3 -6 -5 25.48 0.4
3 -6 5 26.09 0.46
3 -6 5 25.61 0.45
3 6 5 25.71 0.4
3 6 5 26.3 0.44
3 6 5 25.3 0.42
-3 6 -5 25.9 0.38
4 -6 5 23.25 0.44
4 -6 5 23.25 0.45
-4 -6 -5 23.91 0.38
4 -6 5 22.91 0.42
-4 6 -5 23.05 0.37
4 6 5 23.46 0.43
4 6 5 24.56 0.42
5 -6 5 11.46 0.26
-5 -6 -5 11.34 0.25
5 -6 5 11.67 0.32
5 -6 5 11.88 0.32
5 -6 5 11.82 0.3
5 6 5 11.98 0.3
-5 6 -5 11.97 0.26
5 6 5 11.63 0.3
6 -6 5 5.47 0.23
6 -6 5 4.96 0.18
-6 -6 -5 5.04 0.16
6 6 5 5.08 0.22
6 6 5 5.02 0.21
-6 6 -5 4.83 0.17
7 -6 5 10.3 0.26
7 -6 5 10.16 0.33
-7 -6 -5 10.28 0.2
7 6 5 9.97 0.3
-7 6 -5 10.58 0.24
8 -6 5 6.51 0.28
8 -6 5 6.68 0.28
8 6 5 6.79 0.27
-8 6 -5 6.84 0.18
9 -6 5 0.46 0.12
9 -6 5 0.44 0.11
9 6 5 0.38 0.11
10 -6 5 0.12 0.1
10 -6 5 0.24 0.1
10 6 5 0.24 0.11
11 -6 5 3.74 0.25
11 -6 5 3.58 0.25
11 6 5 3.58 0.26
12 -6 5 6.24 0.31
12 6 5 5.37 0.3
13 -7 -5 1.24 0.19
-13 7 5 1.36 0.21
12 -7 -5 0.38 0.13
-12 7 5 0.08 0.12
-12 7 5 0.22 0.12
-11 7 5 0.45 0.13
-11 7 5 0.45 0.11
-11 7 5 0.48 0.14
-10 7 5 9.93 0.39
-10 7 5 9.77 0.35
-10 7 5 9.52 0.38
-9 7 5 3.92 0.25
-9 7 5 3.62 0.22
-9 7 5 3.41 0.24
-8 7 5 3.34 0.22
-8 7 5 4.12 0.22
-8 7 5 3.58 0.23
-7 7 5 2.91 0.19
-7 7 5 3.06 0.18
-7 7 5 2.98 0.2
-6 7 5 0.83 0.12
-6 7 5 0.7 0.1
-6 7 5 0.62 0.1
-5 7 5 15.46 0.36
-5 7 5 15.73 0.37
-5 7 5 15.3 0.36
-4 7 5 2.53 0.15
-4 7 5 2.32 0.15
-4 7 5 2.51 0.14
-3 7 5 1.02 0.1
-3 7 5 1.01 0.06
-3 7 5 1.04 0.1
-3 7 5 0.92 0.1
-2 7 5 9.92 0.18
-2 7 5 9.87 0.25
-2 7 5 9.9 0.25
-2 7 5 9.98 0.25
-1 -7 5 4.99 0.13
-1 -7 5 5.17 0.17
-1 7 5 4.96 0.14
-1 7 5 4.95 0.17
-1 7 5 4.99 0.17
0 -7 5 1.13 0.09
0 -7 5 1.21 0.09
0 -7 5 0.97 0.09
0 7 5 1.11 0.08
0 7 5 1.22 0.1
0 7 5 1.01 0.09
1 -7 5 3.77 0.15
1 -7 5 3.56 0.16
1 -7 5 3.82 0.16
-1 -7 -5 3.6 0.15
1 7 5 3.51 0.15
1 7 5 3.69 0.15
1 7 5 3.56 0.14
2 -7 5 2.48 0.14
2 -7 5 2.5 0.14
2 -7 5 2.44 0.13
-2 -7 -5 2.41 0.13
2 7 5 2.34 0.13
2 7 5 2.16 0.12
2 7 5 2.25 0.13
3 -7 5 7.01 0.24
-3 -7 -5 7.18 0.21
3 -7 5 7.08 0.22
3 -7 5 6.93 0.23
3 7 5 7.24 0.22
3 7 5 7.07 0.21
3 7 5 7.29 0.23
-3 7 -5 7.17 0.2
4 -7 5 23.46 0.47
4 -7 5 23.12 0.44
4 -7 5 23.19 0.46
-4 -7 -5 23.62 0.4
4 7 5 24.36 0.44
4 7 5 24.06 0.45
-4 7 -5 23.21 0.38
5 -7 5 9.39 0.3
5 -7 5 9.28 0.3
5 -7 5 9.75 0.29
-5 -7 -5 9.64 0.23
5 7 5 9.47 0.28
5 7 5 9.47 0.29
-5 7 -5 9.44 0.24
6 -7 5 4.33 0.22
6 -7 5 4.32 0.22
-6 -7 -5 4.41 0.15
6 7 5 4.38 0.21
-6 7 -5 4.3 0.17
-7 -7 -5 -0.01 0.04
-7 -7 -5 0.03 0.04
7 -7 5 0.06 0.08
7 -7 5 -0.02 0.07
-7 7 -5 0.05 0.06
7 7 5 0.02 0.07
8 -7 5 3.56 0.23
8 -7 5 3.9 0.23
8 7 5 3.73 0.22
-8 7 -5 3.83 0.15
9 -7 5 6.88 0.31
9 -7 5 7.31 0.32
9 7 5 6.69 0.29
10 -7 5 0.73 0.14
10 -7 5 0.63 0.13
10 7 5 0.71 0.14
11 -7 5 0.51 0.13
11 -7 5 0.23 0.12
11 7 5 0.02 0.11
12 -7 5 3.2 0.25
12 -7 5 3.17 0.25
12 7 5 3.67 0.27
12 -8 -5 1.21 0.18
-12 8 5 0.87 0.17
-12 8 5 0.64 0.17
11 -8 -5 0.78 0.15
-11 8 5 0.81 0.16
-11 8 5 0.37 0.12
-10 8 5 6.93 0.32
-10 8 5 7.4 0.36
-10 8 5 7.2 0.34
-9 8 5 3.89 0.26
-9 8 5 3.85 0.24
-9 8 5 3.78 0.25
-8 8 5 3.4 0.22
-8 8 5 2.93 0.22
-8 8 5 3.46 0.24
-7 8 5 7.1 0.3
-7 8 5 6.75 0.29
-7 8 5 6.68 0.27
-6 8 5 11.44 0.33
-6 8 5 11.68 0.35
-5 8 5 2.3 0.16
-5 8 5 2.97 0.21
-5 8 5 2.72 0.17
-4 8 5 6.29 0.23
-4 8 5 5.82 0.23
-4 8 5 5.95 0.22
-4 8 5 5.91 0.1
-3 8 5 0.09 0.05
-3 8 5 0.09 0.03
-3 8 5 0.03 0.06
-3 8 5 0 0.04
-2 8 5 1.05 0.1
-2 8 5 1.09 0.1
-2 8 5 1.14 0.08
-1 -8 5 3.43 0.11
-1 8 5 3.59 0.16
-1 8 5 3.38 0.12
-1 8 5 3.4 0.16
0 -8 5 0.85 0.1
0 -8 5 0.77 0.08
0 -8 -5 0.79 0.09
0 -8 5 0.76 0.09
0 8 5 0.87 0.1
0 8 5 0.83 0.08
0 8 5 0.86 0.09
-1 -8 -5 3.07 0.16
1 -8 5 3.07 0.15
1 -8 5 2.98 0.15
1 -8 5 2.95 0.15
1 8 5 3.24 0.16
1 8 5 3.07 0.13
1 8 5 2.9 0.15
2 -8 5 1.64 0.13
-2 -8 -5 1.62 0.13
2 -8 5 1.82 0.13
2 -8 5 1.9 0.13
2 8 5 1.88 0.12
2 8 5 1.93 0.13
2 8 5 1.76 0.13
3 -8 5 3.52 0.18
3 -8 5 3.63 0.19
-3 -8 -5 3.69 0.17
3 -8 5 3.68 0.18
-3 8 -5 3.46 0.15
3 8 5 3.65 0.16
3 8 5 3.99 0.18
3 8 5 3.5 0.17
-4 -8 -5 6.74 0.22
4 -8 5 6.85 0.26
4 -8 5 6.26 0.25
4 -8 5 6.91 0.25
-4 8 -5 6.6 0.21
4 8 5 7.08 0.27
4 8 5 6.61 0.23
5 -8 5 7.03 0.27
-5 -8 -5 6.97 0.21
5 -8 5 6.17 0.26
5 -8 5 6.62 0.26
-5 8 -5 6.99 0.22
5 8 5 6.53 0.24
-6 -8 -5 15.44 0.29
-6 -8 -5 14.61 0.29
6 -8 5 15.42 0.42
6 -8 5 15.03 0.42
6 8 5 14.68 0.38
-6 8 -5 15.11 0.32
7 -8 5 4.02 0.24
7 -8 5 4.16 0.25
-7 8 -5 3.96 0.17
7 8 5 4.19 0.23
8 -8 5 7.73 0.33
8 -8 5 7.39 0.32
8 8 5 7.91 0.31
-8 8 -5 7.74 0.21
9 -8 5 2.13 0.22
9 -8 5 1.43 0.19
9 8 5 1.45 0.17
10 -8 5 8.25 0.36
10 -8 5 7.86 0.36
10 8 5 7.92 0.33
11 -8 5 0.1 0.11
11 -8 5 0.03 0.11
11 8 5 0.13 0.1
11 -9 -5 10.42 0.41
-11 9 5 10.53 0.42
-11 9 5 10.73 0.45
10 -9 -5 0 0.1
-10 9 5 0.24 0.13
-10 9 5 0.12 0.09
-9 9 5 11.61 0.42
-9 9 5 11.94 0.44
-8 9 5 4.63 0.28
-8 9 5 4.84 0.26
-8 9 5 4.63 0.28
-7 9 5 3.91 0.24
-7 9 5 3.31 0.22
-7 9 5 4.22 0.25
-6 9 5 3.75 0.23
-6 9 5 3.63 0.22
-6 9 5 3.34 0.21
-5 9 5 3.89 0.22
-5 9 5 3.7 0.2
-4 9 5 1.15 0.13
-4 9 5 1.06 0.06
-4 9 5 1.09 0.12
-3 9 5 4.2 0.2
-3 9 5 4.63 0.2
-3 9 5 4.11 0.12
-2 9 5 4.83 0.21
-2 9 5 5.04 0.15
-1 -9 5 25.29 0.35
-1 9 5 24.59 0.47
-1 9 5 25.36 0.38
-1 9 5 25.76 0.47
0 -9 5 5.24 0.17
0 -9 5 5.12 0.21
0 -9 -5 5.35 0.21
0 9 5 4.9 0.2
0 9 5 5.1 0.2
0 9 5 5.3 0.17
1 -9 5 2.18 0.14
-1 -9 -5 2.12 0.15
1 -9 5 2.31 0.14
1 -9 5 2.33 0.15
1 9 5 2.07 0.14
1 9 5 2.33 0.13
2 -9 5 2.44 0.16
2 -9 5 2.1 0.15
2 -9 5 2.35 0.15
-2 -9 -5 2.23 0.16
2 9 5 2.13 0.15
2 9 5 2.39 0.14
3 -9 5 6.84 0.27
3 -9 5 7.04 0.25
3 -9 5 6.64 0.25
-3 -9 -5 6.65 0.23
-3 9 -5 6.66 0.21
3 9 5 6.74 0.23
3 9 5 6.93 0.25
4 -9 5 0.68 0.11
4 -9 5 0.49 0.11
-4 -9 -5 0.72 0.1
4 -9 5 0.56 0.1
-4 9 -5 0.72 0.09
4 9 5 0.52 0.1
5 -9 5 3.95 0.23
5 -9 5 4.21 0.22
5 -9 5 4.25 0.23
-5 -9 -5 3.81 0.17
-5 -9 -5 4.05 0.17
5 9 5 3.87 0.21
-5 9 -5 4.17 0.18
6 -9 5 1.06 0.15
-6 -9 -5 0.9 0.09
6 -9 5 0.79 0.12
6 -9 5 0.72 0.13
-6 9 -5 0.78 0.11
6 9 5 1.15 0.15
7 -9 5 0.35 0.11
7 -9 5 0.24 0.1
7 9 5 0.31 0.11
-7 9 -5 0.35 0.08
8 -9 5 9.03 0.37
8 -9 5 8.97 0.37
8 9 5 8.87 0.33
-8 9 -5 8.94 0.23
9 -9 5 1.73 0.21
9 -9 5 1.96 0.21
9 9 5 1.87 0.19
10 -9 5 3.98 0.28
10 -9 5 3.83 0.28
10 9 5 4.64 0.27
10 -10 -5 0.45 0.13
-10 10 5 0.49 0.13
-10 10 5 0.6 0.16
9 -10 -5 4.63 0.28
-9 10 5 4.9 0.31
-9 10 5 4.48 0.28
8 -10 -5 5.91 0.3
-8 10 5 5.64 0.36
-8 10 5 5.4 0.32
-7 10 5 4.02 0.26
-6 10 5 1.75 0.19
-6 10 5 1.38 0.16
-5 10 5 2.49 0.2
-5 10 5 2.19 0.18
-4 10 5 0.94 0.13
-4 10 5 0.75 0.11
-4 10 5 0.84 0.06
-3 10 5 4.73 0.22
-3 10 5 4.77 0.14
-2 10 5 12.13 0.24
-2 10 5 11.52 0.33
-1 -10 5 2.07 0.1
-1 10 5 2.27 0.12
-1 10 5 2.3 0.17
0 -10 -5 2.9 0.18
0 -10 5 2.72 0.14
0 10 5 2.46 0.16
0 10 5 2.98 0.15
1 -10 5 1.47 0.13
1 -10 5 1.72 0.15
-1 -10 -5 1.44 0.14
1 10 5 1.57 0.13
1 10 5 1.43 0.14
2 -10 5 1.78 0.16
2 -10 5 1.81 0.16
2 -10 5 2 0.16
-2 -10 -5 1.79 0.16
2 10 5 1.93 0.16
2 10 5 1.93 0.14
3 -10 5 7.44 0.28
-3 -10 -5 7.11 0.25
3 -10 5 7.47 0.27
3 -10 5 7.23 0.29
-3 -10 -5 7.62 0.26
3 10 5 7.38 0.25
3 10 5 7.65 0.27
-3 10 -5 7.84 0.25
-4 -10 -5 18.65 0.39
4 -10 5 19.37 0.47
4 -10 5 19.38 0.45
-4 -10 -5 19.27 0.39
4 -10 5 19.17 0.48
-4 10 -5 19.43 0.39
4 10 5 18.96 0.44
5 -10 5 7.32 0.3
5 -10 5 7.23 0.31
5 -10 5 7.53 0.3
-5 -10 -5 7.22 0.22
-5 10 -5 7.14 0.24
5 10 5 7.25 0.28
6 -10 5 1.75 0.18
6 -10 5 1.47 0.18
6 -10 5 1.5 0.18
-6 -10 -5 1.7 0.1
6 10 5 1.7 0.17
-6 10 -5 1.43 0.13
7 -10 5 2.52 0.23
7 -10 5 2.59 0.24
7 10 5 2.51 0.21
-7 10 -5 2.37 0.15
8 -10 5 0.57 0.13
8 -10 5 0.9 0.16
8 10 5 0.73 0.14
-8 10 -5 0.77 0.09
9 -10 5 3.75 0.27
9 -10 5 3.67 0.27
9 10 5 3.28 0.24
9 -11 -5 4.22 0.29
-9 11 5 3.94 0.29
8 -11 -5 3.16 0.24
-8 11 5 3.83 0.29
7 -11 -5 -0.09 0.08
-7 11 5 0.13 0.11
6 -11 -5 0.41 0.12
-6 11 5 0.32 0.13
5 -11 -5 0.29 0.1
-5 11 5 0.73 0.14
-4 11 5 0.55 0.12
-3 11 5 8.52 0.19
-3 11 5 8.66 0.32
-2 11 5 1.49 0.16
-2 11 5 1.49 0.11
1 -11 -5 5.08 0.27
1 -11 -5 5.06 0.28
-1 11 5 5.28 0.18
-1 11 5 4.87 0.24
0 -11 5 3.22 0.15
0 -11 -5 3.64 0.22
0 -11 -5 3.62 0.21
0 11 5 3.71 0.21
0 11 5 3.43 0.17
-1 -11 -5 9.93 0.32
-1 -11 -5 9.63 0.32
1 -11 5 9.86 0.27
1 11 5 9.74 0.27
1 11 5 9.82 0.31
-2 -11 -5 6.33 0.25
-2 -11 -5 5.83 0.25
2 -11 5 5.5 0.23
2 -11 5 5.92 0.27
2 11 5 5.92 0.25
2 11 5 5.87 0.23
3 -11 5 0.44 0.11
3 -11 5 0.64 0.12
-3 -11 -5 0.62 0.11
3 -11 5 0.55 0.11
3 11 5 0.56 0.11
-3 11 -5 0.56 0.1
3 11 5 0.53 0.1
4 -11 5 0.27 0.1
4 -11 5 0.33 0.1
-4 -11 -5 0.39 0.09
4 -11 5 0.27 0.1
4 11 5 0.36 0.11
-4 11 -5 0.33 0.09
-5 -11 -5 2.4 0.14
5 -11 5 1.96 0.19
5 -11 5 2.12 0.2
5 -11 5 1.46 0.18
5 11 5 1.96 0.18
-5 11 -5 2.13 0.16
6 -11 5 0.86 0.14
6 -11 5 0.81 0.14
6 -11 5 0.61 0.13
-6 11 -5 0.48 0.09
6 11 5 0.61 0.13
7 -11 5 2.41 0.2
7 -11 5 2.2 0.22
7 -11 5 2.44 0.23
7 11 5 2.08 0.2
-7 11 -5 2.61 0.16
8 -11 5 0.02 0.1
8 -11 5 0.09 0.1
8 11 5 0.09 0.1
-8 11 -5 0.17 0.06
8 -12 -5 0.12 0.1
-8 12 5 0.05 0.11
7 -12 -5 0.28 0.12
-7 12 5 0.26 0.12
6 -12 -5 0.85 0.14
-6 12 5 0.76 0.15
-5 12 5 0.79 0.15
-4 12 5 5.39 0.29
-3 12 5 0.11 0.09
-3 12 5 0.06 0.04
-2 12 5 2.99 0.14
-2 12 5 2.83 0.21
1 -12 -5 3.51 0.23
1 -12 -5 3.71 0.24
-1 12 5 3.28 0.22
-1 12 5 3.75 0.16
0 -12 -5 26.3 0.55
0 -12 5 25.32 0.39
0 12 5 25.03 0.54
0 12 5 24.95 0.44
1 -12 5 1.77 0.13
-1 -12 -5 1.58 0.17
1 12 5 1.74 0.15
1 12 5 1.63 0.17
-2 -12 -5 1.32 0.15
2 -12 5 1.41 0.14
-2 12 -5 1.39 0.14
2 12 5 1.39 0.16
2 12 5 1.3 0.13
3 -12 5 0.47 0.11
3 -12 5 0.5 0.1
-3 -12 -5 0.44 0.1
-3 12 -5 0.17 0.08
3 12 5 0.32 0.11
3 12 5 0.58 0.1
4 -12 5 0.92 0.14
4 -12 5 0.8 0.13
-4 -12 -5 0.74 0.1
4 12 5 1.02 0.14
-4 12 -5 0.75 0.11
5 -12 5 2.21 0.22
5 -12 5 2.57 0.2
-5 -12 -5 2.26 0.12
5 -12 5 2.14 0.19
-5 12 -5 2.25 0.17
5 12 5 2.11 0.19
6 -12 5 0.43 0.12
6 -12 5 0.37 0.11
6 -12 5 0.36 0.1
6 12 5 0.67 0.13
-6 12 -5 0.22 0.07
7 -12 5 0.3 0.12
7 -12 5 0.12 0.1
7 12 5 0.28 0.11
-6 13 5 0.74 0.15
-5 13 5 1.11 0.17
-4 13 5 3.05 0.26
-3 13 5 1.64 0.09
-3 13 5 1.65 0.19
2 -13 -5 2.64 0.22
-2 13 5 2.27 0.12
-2 13 5 2.33 0.22
1 -13 -5 1.99 0.2
-1 13 5 1.87 0.19
-1 13 5 2.14 0.13
0 -13 -5 0.93 0.15
0 13 5 1.21 0.16
0 13 5 1.02 0.11
-1 -13 -5 8.32 0.31
1 -13 5 7.99 0.23
1 13 5 8.21 0.32
1 13 5 8.28 0.26
-2 -13 -5 1.87 0.17
2 -13 5 1.35 0.14
2 13 5 1.96 0.15
-2 13 -5 2.01 0.17
2 13 5 1.55 0.17
-3 -13 -5 0.28 0.08
3 -13 5 0.39 0.09
-3 13 -5 0.15 0.08
3 13 5 0.28 0.1
3 13 5 0.37 0.09
-4 -13 -5 2.18 0.16
4 -13 5 2.48 0.24
4 13 5 2.43 0.22
4 13 5 2.03 0.17
5 -13 5 0.51 0.12
-15 0 6 5.67 0.31
-14 0 6 15.18 0.47
-13 0 6 5.67 0.29
-12 0 6 4.21 0.24
-11 0 6 8.9 0.32
-10 0 6 0.35 0.09
10 0 -6 0.21 0.08
-10 0 6 0.27 0.08
-10 0 6 0.37 0.09
-9 0 6 0.34 0.08
9 0 -6 0.56 0.1
-9 0 6 0.35 0.08
-9 0 6 0.56 0.09
-8 0 6 0.02 0.04
-8 0 6 0.16 0.05
-8 0 6 0.3 0.06
-7 0 6 12.9 0.31
-7 0 6 12.74 0.28
-7 0 6 13.49 0.3
-6 0 6 3.72 0.15
-6 0 6 3.85 0.15
-5 0 6 0.57 0.07
-5 0 6 0.5 0.08
-4 0 6 1.61 0.08
-3 0 6 2.13 0.08
-2 0 6 12.42 0.18
1 0 -6 173.63 1.8
-1 0 6 185.07 1.55
0 0 6 17.22 0.18
0 0 -6 17.33 0.38
0 0 6 17.18 0.22
1 0 6 1.6 0.07
1 0 6 1.62 0.05
2 0 6 21.27 0.43
2 0 6 21.22 0.27
2 0 6 21.44 0.31
-3 0 -6 53.39 0.6
3 0 6 52.85 0.59
3 0 6 52.62 0.83
3 0 6 53.87 0.59
3 0 6 53.66 0.62
4 0 6 1.34 0.08
4 0 6 1.05 0.08
-4 0 -6 1.15 0.08
4 0 6 1.14 0.13
4 0 6 1.04 0.07
5 0 6 3.26 0.22
5 0 6 3.27 0.13
-5 0 -6 3.28 0.13
-5 0 -6 3.26 0.13
6 0 6 55.57 0.72
-6 0 -6 55.41 0.71
-6 0 -6 55.07 0.64
-7 0 -6 5.08 0.2
-7 0 -6 4.56 0.15
7 0 6 5.16 0.2
8 0 6 0.05 0.05
-8 0 -6 0.04 0.04
-8 0 -6 0.01 0.06
-9 0 -6 9.96 0.31
-10 0 -6 3.9 0.23
-11 0 -6 0.68 0.13
-12 0 -6 0.94 0.15
12 0 6 1.02 0.14
13 0 6 0.6 0.12
-15 1 6 6.47 0.34
-14 -1 6 0.48 0.19
-14 1 6 0.51 0.13
-13 -1 6 2.72 0.21
-13 1 6 2.91 0.23
-13 1 6 2.85 0.33
-12 -1 6 1.19 0.15
-12 1 6 0.91 0.14
-12 1 6 0.89 0.14
-11 -1 6 13.87 0.39
-11 1 6 13.72 0.41
-11 1 6 14.79 0.41
-10 -1 6 3.57 0.19
-10 1 6 3.7 0.21
-10 1 6 3.92 0.21
-10 1 6 3.32 0.2
-9 -1 6 10.07 0.29
-9 1 6 10.47 0.31
-9 1 6 10.03 0.27
-9 1 6 9.71 0.31
-9 1 6 10 0.3
-8 -1 6 5.62 0.2
-8 -1 6 5.74 0.2
8 1 -6 6.05 0.25
-8 1 6 5.46 0.21
-8 1 6 5.59 0.2
-8 1 6 5.91 0.22
-7 -1 6 1.16 0.09
-7 -1 6 1.25 0.13
-7 -1 6 1.07 0.1
-7 1 6 1.1 0.1
-7 1 6 0.83 0.09
-7 1 6 1.02 0.1
7 1 -6 0.96 0.1
-6 -1 6 70.45 0.83
-6 -1 6 69.47 0.82
-6 1 6 70.59 0.85
6 1 -6 69.14 0.83
-6 1 6 70.63 0.83
-6 1 6 71.46 0.84
-5 -1 6 84.43 0.9
-5 1 6 84.64 0.92
5 1 -6 80.46 0.9
-5 1 6 84.66 0.94
-4 -1 6 29.1 0.38
-4 1 6 29.3 0.4
-3 -1 6 18.02 0.24
-3 1 6 18.62 0.27
-2 1 6 35.67 0.4
-1 1 6 22.44 0.26
0 -1 -6 9.74 0.28
0 -1 6 9.93 0.15
0 1 6 10.07 0.15
0 1 -6 9.55 0.28
0 1 6 9.91 0.14
1 -1 6 2.22 0.08
1 1 6 2.04 0.08
1 1 6 2.03 0.07
2 -1 6 9.64 0.18
2 -1 6 9.74 0.28
2 -1 6 9.56 0.19
2 1 6 9.72 0.19
2 1 6 9.59 0.17
-3 -1 -6 54.06 0.62
3 -1 6 53.4 0.59
3 -1 6 55.29 0.86
3 -1 6 53.52 0.59
3 -1 6 54.14 0.63
3 1 6 54.43 0.63
3 1 6 53.75 0.6
3 1 6 54.64 0.85
-3 1 -6 54.55 0.61
4 -1 6 20.35 0.52
-4 -1 -6 20.75 0.32
4 -1 6 20.05 0.31
4 -1 6 21.37 0.41
4 -1 6 21.2 0.35
4 -1 6 20.22 0.32
4 1 6 21.35 0.34
4 1 6 20.99 0.51
-4 1 -6 20.59 0.32
4 1 6 21.31 0.34
5 -1 6 3.81 0.15
-5 -1 -6 3.87 0.14
5 -1 6 4.03 0.14
5 -1 6 4.26 0.15
5 -1 6 3.97 0.13
5 -1 6 4.13 0.24
5 -1 6 4.07 0.15
-5 1 -6 3.85 0.15
-5 1 -6 4.1 0.14
5 1 6 4.07 0.15
5 1 6 3.86 0.23
5 1 6 3.9 0.15
6 -1 6 0.97 0.15
6 -1 6 1.09 0.1
6 -1 6 0.85 0.09
-6 -1 -6 0.84 0.08
6 -1 6 0.96 0.08
-6 1 -6 0.76 0.08
-6 1 -6 0.93 0.1
6 1 6 0.83 0.09
7 -1 6 27.8 0.61
-7 -1 -6 27.85 0.39
7 -1 6 28.09 0.44
-7 1 -6 28.21 0.4
-7 1 -6 27.61 0.48
7 1 6 28.7 0.5
-8 -1 -6 22.88 0.32
-8 -1 -6 22.23 0.45
8 -1 6 22.39 0.4
8 1 6 22.75 0.46
-8 1 -6 22.13 0.45
-8 1 -6 22.12 0.33
-9 -1 -6 30.72 0.57
9 -1 6 29.75 0.5
-9 1 -6 29.78 0.56
-9 1 -6 29.27 0.36
9 1 6 29.01 0.56
10 -1 6 6.75 0.24
-10 -1 -6 7.3 0.29
-10 1 -6 6.72 0.28
11 -1 6 4.61 0.22
-11 1 -6 5.12 0.26
12 -1 6 3.8 0.21
-12 1 -6 3.79 0.25
13 -1 6 0.68 0.12
13 1 6 0.3 0.1
-13 1 -6 0.3 0.13
-14 2 6 13.97 0.45
-14 2 6 14.62 0.48
-13 2 6 5.57 0.29
-13 2 6 5.57 0.3
-12 2 6 5.86 0.29
-12 2 6 5.4 0.27
-11 2 6 4.76 0.25
-11 2 6 4.24 0.24
-10 2 6 3.7 0.22
-10 2 6 3.33 0.2
-10 2 6 3.36 0.18
-9 2 6 5.09 0.2
-9 2 6 5.27 0.23
-9 2 6 5.03 0.23
-9 2 6 4.87 0.23
-8 2 6 3.22 0.16
-8 2 6 2.93 0.16
-8 2 6 3.12 0.17
-7 2 6 3.5 0.16
-7 2 6 3.71 0.17
-7 2 6 3.69 0.17
-6 -2 6 58.57 0.73
-6 2 6 59.29 0.75
-6 2 6 59.77 0.76
-6 2 6 60.01 0.75
-5 2 6 71.28 0.83
-5 2 6 72.25 0.82
-5 2 6 71.83 0.85
-4 2 6 3.66 0.13
-4 2 6 3.67 0.14
-3 2 6 41.03 0.49
-2 2 6 90.73 0.88
-1 2 6 85.32 0.82
-1 2 6 85.43 0.76
0 -2 6 63.85 0.62
0 2 6 64.11 0.64
0 2 6 64.11 0.63
1 -2 6 10.67 0.19
1 2 6 10.93 0.19
1 2 6 10.89 0.19
2 -2 6 0.43 0.05
2 -2 6 0.37 0.05
2 2 6 0.31 0.04
2 2 6 0.38 0.05
3 -2 6 5.43 0.25
3 -2 6 5.43 0.14
3 -2 6 5.16 0.17
-3 -2 -6 5.16 0.15
3 -2 6 5.75 0.17
3 -2 6 5.25 0.15
-3 2 -6 5.18 0.14
3 2 6 5.35 0.15
4 -2 6 19.08 0.33
4 -2 6 18.62 0.5
4 -2 6 19.17 0.34
4 -2 6 18.89 0.34
4 -2 6 18.86 0.3
-4 -2 -6 18.63 0.31
-4 2 -6 19.24 0.31
4 2 6 18.81 0.32
4 2 6 18.94 0.49
4 2 6 18.48 0.32
4 2 6 19.09 0.33
-5 -2 -6 6.06 0.17
5 -2 6 6.48 0.2
5 -2 6 6.42 0.2
5 -2 6 6.14 0.19
5 -2 6 6.06 0.17
-5 2 -6 6.33 0.18
5 2 6 6.62 0.2
5 2 6 6.11 0.19
5 2 6 6.48 0.3
6 -2 6 1.45 0.1
6 -2 6 1.78 0.11
6 -2 6 1.78 0.12
-6 -2 -6 1.56 0.1
-6 2 -6 1.59 0.11
6 2 6 1.52 0.11
6 2 6 1.58 0.11
7 -2 6 7.5 0.23
7 -2 6 7.61 0.21
-7 -2 -6 7.62 0.19
7 -2 6 7.62 0.23
7 2 6 7.39 0.24
7 2 6 8.21 0.25
-7 2 -6 7.38 0.19
-8 -2 -6 13.5 0.23
8 -2 6 13.4 0.3
8 -2 6 12.97 0.32
-8 2 -6 13.76 0.25
-8 2 -6 12.66 0.34
8 2 6 13.47 0.34
8 2 6 13.2 0.35
9 -2 6 10.09 0.27
9 2 6 9.29 0.31
-9 2 -6 9.66 0.31
-9 2 -6 10.11 0.17
10 -2 6 1.34 0.13
10 2 6 1.07 0.14
-10 2 -6 0.89 0.14
11 -2 6 -0.03 0.07
11 2 6 -0.04 0.07
-11 2 -6 0.04 0.09
12 -2 6 0.97 0.13
-12 2 -6 0.9 0.15
12 2 6 0.93 0.15
13 -2 6 0.15 0.08
-13 2 -6 0.21 0.12
13 2 6 0.17 0.09
-14 3 6 5.23 0.29
-14 3 6 5.58 0.32
-13 3 6 1.99 0.21
-13 3 6 2.38 0.24
-12 3 6 5.77 0.29
-12 3 6 5.76 0.3
-11 3 6 2.43 0.21
-11 3 6 2.35 0.17
-11 3 6 2.5 0.2
-10 3 6 2.19 0.19
-10 3 6 1.85 0.18
-10 3 6 2.31 0.16
-9 3 6 2.57 0.17
-9 3 6 3.13 0.2
-9 3 6 2.81 0.16
-9 3 6 3.01 0.19
-8 3 6 0.65 0.1
-8 3 6 0.62 0.09
-8 3 6 0.68 0.1
-7 3 6 6.3 0.23
-7 3 6 6.11 0.21
-7 3 6 6.19 0.22
-6 3 6 54.66 0.73
-6 3 6 55.54 0.73
-6 3 6 54.76 0.74
-5 3 6 19.24 0.35
-5 3 6 19.21 0.36
-5 3 6 18.99 0.35
-4 3 6 16.15 0.3
-4 3 6 16.51 0.3
-4 3 6 16.65 0.32
-3 3 6 21.23 0.37
-3 3 6 20.96 0.32
-2 3 6 121.38 1.16
-1 3 6 17.72 0.26
-1 3 6 17.8 0.21
0 -3 6 43.21 0.45
0 3 6 42.91 0.49
0 3 6 42.77 0.46
1 -3 6 2 0.08
1 -3 6 2.26 0.09
1 3 6 2 0.09
1 3 6 2.08 0.09
-2 -3 -6 4.12 0.13
2 -3 6 3.86 0.12
2 -3 6 4.01 0.15
2 -3 6 4.14 0.13
2 -3 6 3.96 0.14
2 3 6 4.15 0.13
2 3 6 4.11 0.13
3 -3 6 5.98 0.18
3 -3 6 6.33 0.19
3 -3 6 6.24 0.16
3 -3 6 6.48 0.18
-3 -3 -6 6.27 0.17
3 3 6 6.34 0.17
3 3 6 6.46 0.18
-3 3 -6 6.52 0.17
3 3 6 6.16 0.17
4 -3 6 2.04 0.1
-4 -3 -6 1.43 0.1
4 -3 6 1.47 0.11
4 -3 6 1.69 0.11
4 -3 6 1.66 0.11
4 3 6 1.58 0.1
-4 3 -6 1.63 0.1
4 3 6 1.51 0.1
4 3 6 1.74 0.1
5 -3 6 14.1 0.27
-5 -3 -6 14.3 0.27
5 -3 6 14.11 0.31
5 -3 6 14.11 0.31
5 -3 6 13.93 0.31
5 3 6 14.87 0.46
-5 3 -6 14.15 0.27
5 3 6 14.02 0.3
5 3 6 14.63 0.31
6 -3 6 4.42 0.18
6 -3 6 4.95 0.19
-6 -3 -6 4.5 0.15
6 -3 6 4.47 0.16
6 3 6 4.65 0.19
-6 3 -6 4.54 0.16
6 3 6 4.84 0.18
7 -3 6 2.32 0.12
7 -3 6 1.99 0.14
-7 -3 -6 1.91 0.11
7 -3 6 1.88 0.13
7 3 6 2.22 0.14
7 3 6 1.99 0.14
-7 3 -6 1.76 0.11
8 -3 6 3.02 0.17
8 -3 6 2.54 0.14
-8 -3 -6 2.37 0.1
8 -3 6 2.77 0.16
8 3 6 2.47 0.16
8 3 6 2.68 0.17
-8 3 -6 2.41 0.12
9 -3 6 4.14 0.18
9 -3 6 3.88 0.2
-9 3 -6 3.96 0.12
9 3 6 3.78 0.21
10 -3 6 3.47 0.18
10 3 6 3.35 0.21
11 -3 6 1.28 0.14
11 3 6 1.4 0.17
12 -3 6 0.66 0.12
12 3 6 0.46 0.12
13 -3 6 2.67 0.19
13 3 6 2.89 0.23
-14 4 6 10.59 0.49
-14 4 6 11.85 0.46
-13 4 6 0.73 0.15
-13 4 6 0.8 0.15
-12 4 6 4.88 0.29
-12 4 6 5.04 0.29
-12 4 6 4.91 0.24
-11 4 6 9.1 0.36
-11 4 6 10.24 0.33
-11 4 6 8.96 0.35
-10 4 6 2.05 0.17
-10 4 6 2.08 0.2
-10 4 6 2.1 0.2
-9 4 6 15.53 0.48
-9 4 6 15.82 0.42
-9 4 6 15.54 0.38
-9 4 6 15.37 0.42
-8 4 6 4.15 0.21
-8 4 6 4.25 0.21
-8 4 6 4.5 0.2
-7 4 6 6.36 0.23
-7 4 6 6.26 0.23
-7 4 6 6.23 0.22
-6 4 6 16.89 0.36
-6 4 6 16.83 0.36
-6 4 6 16.9 0.36
-5 4 6 62.65 0.78
-5 4 6 63.06 0.79
-5 4 6 62.46 0.78
-4 4 6 40.39 0.55
-4 4 6 40.54 0.55
-4 4 6 40.57 0.57
-3 4 6 41.92 0.53
-3 4 6 41.69 0.54
-3 4 6 41.78 0.57
-2 4 6 46.44 0.43
-2 4 6 47.85 0.57
-2 4 6 46.9 0.64
-2 4 6 45.76 0.55
-1 4 6 119.66 1.17
-1 4 6 119.87 1.08
-1 4 6 119.22 1.16
0 -4 6 31.21 0.45
0 -4 6 30.32 0.36
0 4 6 30.33 0.41
0 4 6 30.38 0.4
0 4 6 30.78 0.37
1 -4 6 10.07 0.2
1 -4 6 10.54 0.24
-1 -4 -6 10.82 0.24
1 -4 6 10.57 0.24
1 4 6 10.18 0.21
1 4 6 10.35 0.22
1 4 6 10.51 0.2
-2 -4 -6 7.35 0.19
2 -4 6 7 0.18
2 -4 6 7.3 0.18
2 -4 6 7.14 0.2
2 4 6 7.13 0.18
2 4 6 7.15 0.18
2 4 6 7.29 0.19
3 -4 6 25.83 0.41
3 -4 6 26.37 0.44
-3 -4 -6 25.45 0.39
3 -4 6 26.22 0.39
3 -4 6 25.17 0.43
-3 4 -6 26.28 0.38
3 4 6 26.23 0.41
3 4 6 26.22 0.4
3 4 6 26.13 0.41
4 -4 6 3.14 0.15
4 -4 6 3.21 0.15
4 -4 6 3.13 0.13
4 -4 6 3.39 0.16
-4 -4 -6 2.91 0.13
4 4 6 3.33 0.14
4 4 6 3.01 0.14
-4 4 -6 3.07 0.13
4 4 6 3.1 0.14
5 -4 6 5.29 0.2
5 -4 6 5.49 0.2
5 -4 6 5.5 0.17
5 -4 6 4.91 0.19
-5 -4 -6 5.4 0.17
5 4 6 5.09 0.19
-5 4 -6 5.16 0.17
5 4 6 5.41 0.2
6 -4 6 8.77 0.26
-6 -4 -6 7.97 0.2
6 -4 6 7.99 0.26
6 -4 6 7.97 0.21
6 4 6 8.07 0.25
-6 4 -6 8.04 0.21
6 4 6 8.13 0.25
7 -4 6 3.5 0.18
7 -4 6 3.45 0.15
-7 -4 -6 3.54 0.13
7 -4 6 3.44 0.18
7 4 6 3.36 0.18
-7 4 -6 3.17 0.14
7 4 6 3.79 0.18
8 -4 6 5.41 0.24
8 -4 6 5.77 0.24
8 -4 6 6.1 0.21
-8 -4 -6 6 0.14
8 4 6 5.53 0.23
-8 4 -6 5.86 0.17
9 -4 6 2.1 0.17
9 -4 6 2.01 0.17
9 -4 6 2.11 0.15
9 4 6 2.33 0.18
-9 4 -6 2.07 0.1
10 -4 6 0.08 0.08
10 -4 6 0.23 0.08
10 4 6 0.32 0.1
11 -4 6 0.7 0.11
11 4 6 0.96 0.14
12 -4 6 0.79 0.12
12 4 6 0.48 0.13
13 4 6 0.61 0.14
-14 5 6 3.22 0.27
-13 5 6 6.92 0.36
-13 5 6 6.91 0.35
-13 5 6 6.72 0.3
-12 5 6 3.88 0.24
-12 5 6 4.24 0.27
-12 5 6 4.13 0.28
-11 5 6 1.43 0.18
-11 5 6 1.24 0.15
-11 5 6 1.17 0.17
-10 5 6 10.01 0.37
-10 5 6 10.71 0.34
-10 5 6 10.64 0.38
-9 5 6 4.67 0.25
-9 5 6 4.63 0.24
-9 5 6 4.32 0.22
-8 5 6 6.61 0.26
-8 5 6 7.13 0.26
-8 5 6 7.2 0.28
-7 5 6 7.65 0.27
-7 5 6 7.79 0.26
-7 5 6 7.52 0.26
-6 5 6 9.32 0.27
-6 5 6 9.4 0.27
-6 5 6 9.39 0.28
-5 5 6 37.19 0.57
-5 5 6 37.41 0.57
-5 5 6 36.63 0.57
-4 5 6 26 0.43
-4 5 6 26.6 0.45
-4 5 6 26.42 0.43
-3 -5 6 20.13 0.35
-3 5 6 19.98 0.35
-3 5 6 19.74 0.34
-3 5 6 19.63 0.37
-2 -5 6 6.06 0.18
-2 5 6 5.93 0.17
-2 5 6 5.99 0.17
-2 5 6 5.8 0.11
-2 5 6 5.9 0.18
-1 -5 6 17.51 0.2
-1 -5 6 17.49 0.32
-1 -5 6 17.47 0.33
-1 5 6 18.03 0.3
-1 5 6 18.07 0.31
-1 5 6 18.46 0.37
-1 5 6 18.02 0.25
0 -5 6 21.24 0.3
0 -5 6 22.03 0.38
0 -5 6 22.27 0.37
0 5 6 22.31 0.35
0 5 6 21.9 0.31
0 5 6 22.57 0.35
-1 -5 -6 20.44 0.34
1 -5 6 20.89 0.37
1 -5 6 21.17 0.37
1 -5 6 20.83 0.32
1 5 6 20.21 0.34
1 5 6 20.47 0.32
1 5 6 20.43 0.34
2 -5 6 0.66 0.07
-2 -5 -6 0.68 0.08
2 -5 6 0.67 0.08
2 -5 6 0.67 0.08
2 5 6 0.76 0.08
2 5 6 0.7 0.08
2 5 6 0.68 0.07
3 -5 6 19.76 0.38
3 -5 6 19.56 0.35
3 -5 6 19.2 0.38
-3 -5 -6 19.78 0.34
3 -5 6 19.34 0.34
3 5 6 19.26 0.34
3 5 6 19.72 0.36
3 5 6 19.2 0.35
-3 5 -6 19.5 0.32
4 -5 6 25.77 0.44
4 -5 6 25.6 0.47
4 -5 6 26.24 0.41
-4 -5 -6 26.71 0.41
4 -5 6 26.07 0.47
-4 5 -6 26.65 0.41
4 5 6 26.92 0.43
4 5 6 26.54 0.45
4 5 6 26.11 0.44
5 -5 6 3.49 0.14
5 -5 6 3.66 0.18
5 -5 6 3.46 0.18
-5 -5 -6 3.38 0.14
5 -5 6 3.51 0.17
-5 5 -6 3.56 0.15
5 5 6 3.56 0.17
5 5 6 3.46 0.16
6 -5 6 -0.02 0.05
6 -5 6 0.07 0.06
-6 -5 -6 0.05 0.05
6 -5 6 0.05 0.05
6 5 6 0.01 0.06
6 5 6 -0.04 0.04
-6 5 -6 0.06 0.05
-7 -5 -6 6.95 0.18
7 -5 6 6.58 0.26
7 -5 6 6.76 0.22
7 -5 6 6.85 0.26
7 5 6 6.44 0.24
7 5 6 6.65 0.25
-7 5 -6 6.61 0.2
-8 -5 -6 3.85 0.11
8 -5 6 3.68 0.21
8 -5 6 3.65 0.18
8 -5 6 3.61 0.21
8 5 6 3.74 0.21
-8 5 -6 3.87 0.15
9 -5 6 8.35 0.31
9 -5 6 8.49 0.31
9 -5 6 8.38 0.26
9 5 6 8.24 0.31
-9 5 -6 8.7 0.18
10 -5 6 0.61 0.1
10 -5 6 0.63 0.12
10 -5 6 0.48 0.11
10 5 6 0.63 0.13
11 -5 6 2.47 0.21
11 5 6 1.78 0.2
12 5 6 1.99 0.21
-13 6 6 1.36 0.2
-13 6 6 1.27 0.2
-12 6 6 0.58 0.13
-12 6 6 0.23 0.12
-12 6 6 0.67 0.14
-11 6 6 0.3 0.11
-11 6 6 0.47 0.13
-11 6 6 0.32 0.12
-10 6 6 2.03 0.19
-10 6 6 2.26 0.22
-10 6 6 1.91 0.21
-9 6 6 4.99 0.24
-9 6 6 5.21 0.28
-9 6 6 4.9 0.26
-8 6 6 1.8 0.16
-8 6 6 1.65 0.18
-8 6 6 1.72 0.17
-7 6 6 1.57 0.13
-7 6 6 1.78 0.17
-7 6 6 1.85 0.15
-6 6 6 3.41 0.18
-6 6 6 3.65 0.18
-6 6 6 3.65 0.18
-5 6 6 2.44 0.14
-5 6 6 2.4 0.15
-5 6 6 2.05 0.14
-4 6 6 2.98 0.15
-4 6 6 3.35 0.16
-4 6 6 3.14 0.15
-3 6 6 11.01 0.26
-3 6 6 11.24 0.26
-3 6 6 10.85 0.27
-2 -6 6 30.25 0.45
-2 -6 6 29.8 0.46
-2 6 6 28.91 0.45
-2 6 6 29.1 0.44
-2 6 6 29.79 0.47
-2 6 6 29.86 0.34
-1 -6 6 1.23 0.05
-1 -6 6 1.16 0.09
-1 -6 6 1.13 0.09
-1 6 6 1.19 0.07
-1 6 6 1.17 0.09
-1 6 6 1.17 0.09
-1 6 6 0.99 0.09
0 -6 6 0.95 0.09
0 -6 6 1.18 0.07
0 -6 6 1.04 0.09
0 6 6 1.13 0.09
0 6 6 1.09 0.08
0 6 6 1.06 0.09
-1 -6 -6 2.28 0.12
1 -6 6 2.1 0.11
1 -6 6 2.12 0.12
1 -6 6 1.92 0.12
1 6 6 2.15 0.11
1 6 6 2.04 0.12
1 6 6 2.3 0.12
-2 -6 -6 16.54 0.32
2 -6 6 17.3 0.32
2 -6 6 16.23 0.34
2 -6 6 16.76 0.35
2 6 6 16.29 0.32
2 6 6 16.26 0.32
2 6 6 15.85 0.3
3 -6 6 0.8 0.1
-3 -6 -6 0.69 0.08
3 -6 6 0.75 0.09
3 -6 6 0.66 0.08
-3 6 -6 0.72 0.08
3 6 6 0.86 0.1
3 6 6 0.7 0.08
3 6 6 0.81 0.09
-4 -6 -6 10.22 0.25
4 -6 6 10.15 0.29
4 -6 6 9.7 0.27
4 -6 6 9.99 0.29
4 6 6 10.22 0.26
-4 6 -6 9.79 0.24
4 6 6 10.67 0.28
4 6 6 10.86 0.28
5 -6 6 22.87 0.4
5 -6 6 24.79 0.46
-5 -6 -6 23.77 0.39
5 -6 6 23.39 0.48
5 -6 6 23.54 0.48
-5 6 -6 23.96 0.4
5 6 6 24.09 0.45
5 6 6 23.63 0.46
6 -6 6 8.54 0.24
6 -6 6 8.73 0.3
6 -6 6 8.42 0.29
-6 -6 -6 9 0.22
6 6 6 8.59 0.27
6 6 6 8.45 0.28
-6 6 -6 8.67 0.24
-7 -6 -6 8.14 0.2
7 -6 6 8.39 0.3
7 -6 6 7.76 0.29
7 -6 6 8.45 0.25
-7 6 -6 8.45 0.23
7 6 6 7.59 0.28
8 -6 6 5.27 0.26
8 -6 6 5.3 0.26
8 -6 6 4.97 0.2
8 6 6 4.97 0.25
-8 6 -6 5.28 0.18
9 -6 6 8.53 0.28
9 -6 6 9.61 0.35
9 -6 6 9.24 0.34
9 6 6 9.34 0.33
-9 6 -6 9.53 0.2
10 -6 6 1.83 0.19
10 -6 6 1.89 0.2
10 6 6 1.73 0.19
11 -6 6 2.82 0.23
11 -6 6 2.52 0.23
11 6 6 2.25 0.21
12 -6 6 1.29 0.19
12 6 6 1.25 0.18
13 -7 -6 0.17 0.1
-13 7 6 0.3 0.13
-12 7 6 1.55 0.21
-12 7 6 2.1 0.24
-11 7 6 1.89 0.2
-11 7 6 1.7 0.21
-11 7 6 1.68 0.21
-10 7 6 9.92 0.4
-10 7 6 10.04 0.35
-10 7 6 9.64 0.39
-9 7 6 4.25 0.26
-9 7 6 3.37 0.25
-9 7 6 3.78 0.23
-8 7 6 1.29 0.15
-8 7 6 1.22 0.16
-8 7 6 1.45 0.18
-7 7 6 1.74 0.16
-7 7 6 1.97 0.18
-6 7 6 0.24 0.08
-6 7 6 0.27 0.07
-6 7 6 0.24 0.08
-5 7 6 7.4 0.25
-5 7 6 7.43 0.26
-5 7 6 7.33 0.25
-4 7 6 8.24 0.25
-4 7 6 7.85 0.25
-4 7 6 8.28 0.26
-3 7 6 1.39 0.11
-3 7 6 1.85 0.13
-3 7 6 1.53 0.11
-3 7 6 1.82 0.06
-2 -7 6 3.66 0.19
-2 7 6 3.59 0.15
-2 7 6 3.54 0.1
-2 7 6 3.33 0.15
-2 7 6 3.63 0.16
-1 -7 6 20.36 0.37
-1 -7 6 20.52 0.38
-1 -7 6 20.1 0.25
-1 7 6 20.52 0.37
-1 7 6 20.5 0.3
-1 7 6 20.15 0.38
0 -7 6 42.88 0.52
0 -7 6 42.05 0.61
0 -7 6 42.93 0.6
0 7 6 43.17 0.53
0 7 6 42.14 0.59
0 7 6 43.31 0.59
-1 -7 -6 1.43 0.12
1 -7 6 1.42 0.1
1 -7 6 1.58 0.12
1 -7 6 1.39 0.11
1 7 6 1.62 0.12
1 7 6 1.56 0.1
1 7 6 1.5 0.11
2 -7 6 8.13 0.23
2 -7 6 8.23 0.26
-2 -7 -6 8 0.23
2 7 6 8.32 0.22
2 7 6 7.47 0.23
2 7 6 7.94 0.23
-3 -7 -6 5.91 0.2
3 -7 6 5.55 0.2
3 -7 6 5.59 0.22
3 -7 6 5.82 0.22
-3 7 -6 5.9 0.19
3 7 6 5.86 0.21
3 7 6 6.09 0.2
3 7 6 6.01 0.21
4 -7 6 65.02 0.9
4 -7 6 64.8 0.85
4 -7 6 64.62 0.89
-4 -7 -6 64.41 0.79
4 7 6 64.5 0.82
4 7 6 64.7 0.86
-4 7 -6 64.37 0.78
4 7 6 64.86 0.84
5 -7 6 1.86 0.16
5 -7 6 1.79 0.16
-5 -7 -6 1.98 0.14
5 -7 6 1.87 0.15
-5 7 -6 1.87 0.14
5 7 6 1.87 0.15
5 7 6 1.93 0.17
-6 -7 -6 8.47 0.22
6 -7 6 8.57 0.29
6 -7 6 8.01 0.3
6 -7 6 8 0.3
-6 7 -6 8.72 0.25
6 7 6 8.1 0.28
7 -7 6 0.95 0.12
7 -7 6 0.75 0.12
7 -7 6 1.06 0.15
-7 -7 -6 1.01 0.09
-7 7 -6 0.84 0.1
7 7 6 0.93 0.13
8 -7 6 0.85 0.14
8 -7 6 0.79 0.13
-8 7 -6 0.98 0.1
8 7 6 1.01 0.14
9 -7 6 12.12 0.41
9 -7 6 11.71 0.4
9 7 6 11.79 0.38
-9 7 -6 12.17 0.23
10 -7 6 2.38 0.23
10 -7 6 2.75 0.24
10 7 6 2.14 0.21
11 -7 6 5.81 0.31
11 -7 6 6.02 0.31
11 7 6 6.23 0.31
12 -8 -6 1.41 0.19
-12 8 6 1.27 0.2
-11 8 6 3.03 0.23
-11 8 6 2.62 0.27
-11 8 6 2.83 0.27
-10 8 6 3.06 0.24
-10 8 6 2.56 0.25
-10 8 6 2.67 0.23
-9 8 6 5.56 0.29
-9 8 6 4.94 0.29
-9 8 6 4.99 0.27
-8 8 6 -0.06 0.08
-8 8 6 -0.06 0.07
-8 8 6 0.07 0.1
-7 8 6 5.2 0.25
-7 8 6 4.96 0.26
-7 8 6 4.94 0.27
-6 8 6 6.18 0.25
-6 8 6 5.92 0.27
-5 8 6 2.97 0.19
-5 8 6 3.24 0.18
-4 8 6 4.43 0.19
-4 8 6 3.7 0.19
-4 8 6 4.2 0.19
-3 8 6 8.56 0.26
-3 8 6 8.65 0.15
-3 8 6 8.57 0.26
-3 8 6 8.57 0.26
-2 8 6 4.31 0.12
-2 8 6 4.29 0.18
-2 8 6 4.25 0.19
-1 -8 6 7.29 0.14
-1 -8 6 7.57 0.23
-1 8 6 7.78 0.18
-1 8 6 7.86 0.24
-1 8 6 7.69 0.23
0 -8 6 3.49 0.13
0 -8 6 3.39 0.17
0 -8 6 3.32 0.16
0 8 6 3.28 0.13
0 8 6 3.6 0.16
0 8 6 3.52 0.16
1 -8 6 5.11 0.2
1 -8 6 5.38 0.18
1 -8 6 5.25 0.21
-1 -8 -6 4.96 0.2
1 8 6 5.07 0.19
1 8 6 5.33 0.17
1 8 6 5.12 0.2
2 -8 6 0.35 0.07
-2 -8 -6 0.37 0.08
2 -8 6 0.36 0.08
2 -8 6 0.32 0.07
2 8 6 0.34 0.08
2 8 6 0.47 0.08
2 8 6 0.34 0.07
3 -8 6 2.34 0.16
-3 -8 -6 2.5 0.16
3 -8 6 2.47 0.17
3 -8 6 2.61 0.16
3 8 6 2.6 0.16
-3 8 -6 2.38 0.14
3 8 6 2.26 0.15
3 8 6 2.54 0.15
-4 -8 -6 2.19 0.15
4 -8 6 2.02 0.17
4 -8 6 2.22 0.16
4 -8 6 2.03 0.16
4 8 6 2.27 0.16
4 8 6 2.13 0.15
-4 8 -6 2.36 0.15
5 -8 6 2.3 0.19
-5 -8 -6 2.61 0.15
5 -8 6 2.73 0.18
5 -8 6 2.51 0.18
5 8 6 2.65 0.19
-5 8 -6 2.62 0.16
6 -8 6 8.06 0.32
6 -8 6 8.73 0.31
-6 -8 -6 8.35 0.23
6 -8 6 7.96 0.31
-6 8 -6 8.76 0.26
6 8 6 8.21 0.29
-7 -8 -6 4.2 0.15
7 -8 6 4.78 0.26
-7 -8 -6 4.28 0.14
7 8 6 4.44 0.25
-7 8 -6 4.3 0.19
8 -8 6 1.81 0.2
8 -8 6 1.5 0.19
-8 8 -6 1.67 0.13
8 8 6 1.48 0.17
9 -8 6 2.69 0.24
9 -8 6 2.35 0.23
9 8 6 3.26 0.24
-9 8 -6 2.42 0.14
10 -8 6 11.51 0.42
10 -8 6 10.36 0.41
10 8 6 9.94 0.38
11 -8 6 0.81 0.15
11 -8 6 0.9 0.17
11 8 6 0.73 0.15
11 -9 -6 8.12 0.37
-11 9 6 7.83 0.4
-11 9 6 6.74 0.42
-10 9 6 7.28 0.35
-10 9 6 6.62 0.36
-9 9 6 8.58 0.35
-9 9 6 8.91 0.39
-9 9 6 8.49 0.37
-8 9 6 13.86 0.45
-8 9 6 14.31 0.43
-8 9 6 14.53 0.46
-7 9 6 0.85 0.15
-7 9 6 0.84 0.14
-7 9 6 1.07 0.16
-6 9 6 1.22 0.16
-6 9 6 1.57 0.17
-5 9 6 7.56 0.3
-5 9 6 7.14 0.27
-4 9 6 9.59 0.31
-4 9 6 9.04 0.29
-3 9 6 0.52 0.1
-3 9 6 0.46 0.05
-2 9 6 11.33 0.22
-2 9 6 10.58 0.3
-1 9 6 0.4 0.08
-1 9 6 0.39 0.06
0 -9 6 7.36 0.19
0 -9 6 7.15 0.25
0 9 6 7.11 0.24
0 9 6 7.26 0.2
1 -9 6 3.87 0.19
-1 -9 -6 4.27 0.2
1 -9 6 3.91 0.2
1 -9 6 4.03 0.17
1 9 6 4.5 0.2
1 9 6 4.36 0.17
2 -9 6 1.37 0.13
2 -9 6 1.23 0.14
2 -9 6 1.49 0.14
-2 -9 -6 1.63 0.14
2 9 6 1.28 0.13
2 9 6 1.62 0.13
3 -9 6 6.65 0.24
3 -9 6 6.14 0.25
-3 -9 -6 6.57 0.24
3 -9 6 6.93 0.27
3 9 6 6.58 0.25
-3 9 -6 6.83 0.23
3 9 6 6.63 0.23
4 -9 6 9.19 0.31
4 -9 6 9.09 0.32
4 -9 6 8.55 0.29
-4 -9 -6 8.31 0.27
4 9 6 8.21 0.27
-4 9 -6 8.68 0.26
4 9 6 8.6 0.29
-5 -9 -6 2.65 0.16
5 -9 6 2.62 0.21
5 -9 6 2.67 0.19
5 -9 6 2.99 0.21
5 9 6 3.32 0.21
-5 9 -6 2.82 0.17
-6 -9 -6 0.15 0.06
6 -9 6 0.14 0.09
6 -9 6 0.07 0.08
6 -9 6 0.16 0.09
-6 -9 -6 0.14 0.06
-6 9 -6 0.19 0.08
6 9 6 0.08 0.09
7 -9 6 0.7 0.13
7 -9 6 0.68 0.12
7 -9 6 0.6 0.14
7 9 6 0.83 0.14
-7 9 -6 0.6 0.1
8 -9 6 4.96 0.29
8 -9 6 5.2 0.29
8 9 6 5.56 0.28
-8 9 -6 5 0.19
9 -9 6 2.18 0.23
9 -9 6 1.98 0.22
9 9 6 1.97 0.2
10 -9 6 0.67 0.15
10 -9 6 0.72 0.16
10 9 6 0.89 0.16
10 -10 -6 6.88 0.34
-10 10 6 6.7 0.37
-10 10 6 6.69 0.36
-9 10 6 2.67 0.26
-9 10 6 2.54 0.26
-8 10 6 3.69 0.25
-8 10 6 3.67 0.26
-8 10 6 3.83 0.28
-7 10 6 6.13 0.32
-7 10 6 5.46 0.28
-6 10 6 0.47 0.12
-6 10 6 0.59 0.12
-5 10 6 2.37 0.2
-5 10 6 2.5 0.19
-4 10 6 6.18 0.33
-4 10 6 6.71 0.28
-3 10 6 2.91 0.2
-3 10 6 2.81 0.1
-2 10 6 1 0.08
-2 10 6 0.9 0.13
-1 10 6 4.27 0.15
-1 10 6 4.26 0.21
0 -10 -6 4.08 0.21
0 -10 6 3.97 0.14
0 10 6 4.09 0.16
0 10 6 4.43 0.21
1 -10 6 0.12 0.06
1 -10 6 0.07 0.06
-1 -10 -6 0.05 0.08
1 10 6 0.01 0.07
1 10 6 0.06 0.06
2 -10 6 1.29 0.14
2 -10 6 1.21 0.12
2 -10 6 1.01 0.14
-2 -10 -6 1.29 0.14
2 10 6 1.35 0.14
2 10 6 1.31 0.13
3 -10 6 5.15 0.25
3 -10 6 5.19 0.23
3 -10 6 5.7 0.25
-3 -10 -6 4.95 0.23
-3 10 -6 5.43 0.22
3 10 6 5.13 0.21
3 10 6 5.23 0.24
4 -10 6 4.4 0.23
4 -10 6 3.98 0.23
4 -10 6 4.33 0.25
-4 -10 -6 4.48 0.22
-4 10 -6 4.56 0.21
4 10 6 4.46 0.23
4 10 6 4.42 0.21
-5 -10 -6 0.09 0.07
5 -10 6 0.2 0.08
-5 -10 -6 0.07 0.06
5 -10 6 0.08 0.09
5 -10 6 -0.15 0.07
-5 10 -6 0.08 0.08
5 10 6 -0.01 0.08
-6 -10 -6 1.99 0.13
6 -10 6 2.16 0.21
6 -10 6 2.14 0.2
6 -10 6 2.08 0.21
-6 10 -6 2.16 0.16
6 10 6 2.15 0.2
7 -10 6 1.3 0.18
7 -10 6 1.73 0.2
7 -10 6 1.42 0.16
-7 10 -6 1.27 0.12
7 10 6 1.33 0.17
8 -10 6 1.24 0.18
8 -10 6 1.25 0.18
8 10 6 1.43 0.17
-8 10 -6 1.25 0.11
9 -10 6 0.25 0.12
9 -10 6 0.28 0.12
9 10 6 0.37 0.12
9 -11 -6 0.25 0.12
-9 11 6 0.41 0.15
8 -11 -6 12.75 0.44
-8 11 6 11.92 0.46
7 -11 -6 2.65 0.21
-7 11 6 1.93 0.22
-6 11 6 6.63 0.33
-5 11 6 0.47 0.13
-4 11 6 0.59 0.13
-3 11 6 6.44 0.15
-3 11 6 6.85 0.29
-2 11 6 7.15 0.29
-2 11 6 7.06 0.18
-1 11 6 8.79 0.31
-1 11 6 8.38 0.22
0 -11 -6 2.87 0.21
0 -11 6 2.36 0.11
0 11 6 2.47 0.2
0 11 6 2.61 0.15
1 -11 6 23.25 0.41
-1 -11 -6 22.85 0.49
1 11 6 22.8 0.49
1 11 6 22.53 0.42
2 -11 6 9.55 0.28
-2 -11 -6 9.65 0.32
2 -11 6 9.71 0.34
-2 -11 -6 9.2 0.32
2 11 6 9.26 0.27
2 11 6 8.88 0.31
-3 -11 -6 3.24 0.2
3 -11 6 3.12 0.22
3 -11 6 3.67 0.2
3 -11 6 2.8 0.2
-3 -11 -6 3.51 0.21
3 11 6 3.06 0.18
-3 11 -6 3.41 0.19
3 11 6 3.02 0.22
4 -11 6 4.55 0.25
4 -11 6 4.01 0.25
4 -11 6 4.51 0.23
-4 -11 -6 4.15 0.21
4 11 6 4.15 0.21
4 11 6 4.31 0.24
-4 11 -6 4.45 0.22
-5 -11 -6 5.1 0.2
5 -11 6 5.61 0.29
5 -11 6 5.43 0.29
5 -11 6 5.19 0.26
-5 11 -6 5.11 0.23
5 11 6 5.51 0.27
6 -11 6 0 0.08
6 -11 6 0 0.08
6 -11 6 0.2 0.09
-6 11 -6 0.04 0.06
6 11 6 0.05 0.09
7 -11 6 0.28 0.12
7 -11 6 0.09 0.08
7 -11 6 0.48 0.13
7 11 6 0.35 0.12
-7 11 -6 0.34 0.08
8 -11 6 2.28 0.23
8 -11 6 2.06 0.22
8 11 6 2.74 0.23
7 -12 -6 8.05 0.35
-7 12 6 8.19 0.38
6 -12 -6 1.65 0.19
-6 12 6 1.89 0.22
-5 12 6 1.02 0.17
-4 12 6 0.43 0.13
-3 12 6 2.38 0.22
-2 12 6 2.45 0.21
-2 12 6 2.5 0.12
1 -12 -6 3.42 0.23
1 -12 -6 3.92 0.25
-1 12 6 3.73 0.15
-1 12 6 3.92 0.24
0 -12 -6 5.71 0.27
0 -12 -6 5.97 0.28
0 12 6 6.27 0.29
0 12 6 5.77 0.21
-1 -12 -6 10.21 0.34
1 -12 6 10.08 0.25
-1 -12 -6 9.96 0.34
1 12 6 10.5 0.36
1 12 6 10.04 0.28
-2 -12 -6 3.37 0.22
2 -12 6 4.12 0.19
2 12 6 3.84 0.19
2 12 6 3.49 0.24
-3 -12 -6 3 0.2
3 -12 6 3.38 0.19
3 -12 6 3.73 0.24
3 12 6 3.4 0.24
3 12 6 3.23 0.19
-3 12 -6 2.9 0.19
4 -12 6 7.4 0.32
-4 -12 -6 7.22 0.26
4 -12 6 7.77 0.29
4 -12 6 7.76 0.34
-4 12 -6 8.44 0.28
4 12 6 7.91 0.28
4 12 6 7.71 0.31
5 -12 6 1.03 0.15
5 -12 6 0.93 0.15
-5 -12 -6 0.92 0.09
5 -12 6 0.87 0.13
-5 12 -6 1.03 0.13
5 12 6 1.15 0.16
6 -12 6 2.29 0.23
6 -12 6 2.41 0.23
6 12 6 2.78 0.22
-5 13 6 2.17 0.23
-4 13 6 2.24 0.23
-3 13 6 0.16 0.11
-2 13 6 1.68 0.1
-2 13 6 1.9 0.2
1 -13 -6 1.59 0.17
-1 13 6 2.03 0.12
-1 13 6 1.92 0.2
0 -13 -6 8.04 0.32
0 13 6 7.7 0.23
0 13 6 8.38 0.34
-1 -13 -6 2.18 0.2
1 13 6 2.01 0.15
1 13 6 1.77 0.19
-2 -13 -6 2.01 0.18
2 -13 6 1.94 0.13
2 13 6 1.88 0.19
2 13 6 1.96 0.16
3 13 6 -0.16 0.07
-3 13 -6 -0.02 0.09
3 13 6 0.03 0.1
4 -13 6 0.19 0.1
4 13 6 0.2 0.1
-13 0 7 2.9 0.24
-12 0 7 5.98 0.28
-11 0 7 7.37 0.29
-10 0 7 6.59 0.26
-10 0 7 5.87 0.25
-9 0 7 0.09 0.05
-9 0 7 0.33 0.08
-9 0 7 0.11 0.06
-8 0 7 0.41 0.08
-8 0 7 0.45 0.07
-7 0 7 4.47 0.18
-7 0 7 4.56 0.18
-6 0 7 41.2 0.59
-5 0 7 14.89 0.31
-4 0 7 7.15 0.2
-4 0 7 6.33 0.2
-3 0 7 8.98 0.23
0 0 7 0.33 0.03
1 0 7 13.04 0.21
2 0 7 0.07 0.03
2 0 7 0.19 0.04
-3 0 -7 2.76 0.12
3 0 7 2.65 0.14
3 0 7 2.65 0.12
3 0 7 3 0.11
4 0 7 3.21 0.12
4 0 7 3.13 0.13
-4 0 -7 3.06 0.13
4 0 7 2.94 0.13
4 0 7 2.85 0.13
5 0 7 6.94 0.19
5 0 7 6.68 0.18
5 0 7 6.58 0.19
-5 0 -7 6.64 0.19
5 0 7 6.95 0.2
-6 0 -7 34.55 0.49
6 0 7 35.42 0.53
6 0 7 35.02 0.5
7 0 7 14.23 0.3
-7 0 -7 14.82 0.29
-8 0 -7 2.8 0.13
8 0 7 2.83 0.16
-9 0 -7 1.06 0.08
9 0 7 1.19 0.12
10 0 7 2.17 0.16
11 0 7 0.13 0.08
12 0 7 0.72 0.12
12 0 7 1.01 0.15
13 0 7 1.02 0.14
13 0 7 1.1 0.14
-14 1 7 3.77 0.27
-13 1 7 3.1 0.23
-12 1 7 0.66 0.13
-12 1 7 0.58 0.11
-11 1 7 7.55 0.3
-11 1 7 7.86 0.31
-10 1 7 7.48 0.26
-10 1 7 7.72 0.29
-10 1 7 8.13 0.3
-9 1 7 17.78 0.45
-9 1 7 16.78 0.37
-9 1 7 17.14 0.41
-9 1 7 16.76 0.41
-8 -1 7 0.3 0.07
-8 1 7 0.35 0.07
-8 1 7 0.54 0.09
-8 1 7 0.35 0.07
-7 -1 7 9.06 0.24
-7 1 7 8.68 0.25
-7 1 7 8.99 0.25
-7 1 7 8.96 0.26
-6 -1 7 0.85 0.09
-6 1 7 0.97 0.1
-6 1 7 0.76 0.09
-6 1 7 0.88 0.09
-5 -1 7 38.68 0.55
-5 -1 7 37.8 0.55
-5 1 7 40.49 0.54
-5 1 7 39.37 0.57
-4 -1 7 5.73 0.18
-4 -1 7 5.82 0.18
-4 1 7 5.79 0.19
-4 1 7 5.75 0.16
-3 -1 7 4.27 0.16
-3 1 7 3.89 0.15
-3 1 7 4.22 0.16
-3 1 7 4.3 0.12
-2 1 7 3.65 0.1
-1 1 7 35.95 0.42
0 -1 7 46.17 0.47
0 1 7 47.01 0.48
1 -1 7 11.05 0.25
1 -1 7 10.93 0.19
1 1 7 10.52 0.19
2 -1 7 12.53 0.22
2 -1 7 12.05 0.26
2 -1 7 12.08 0.23
-2 -1 -7 12.37 0.25
2 -1 7 12.07 0.26
2 1 7 12.49 0.23
-3 -1 -7 1.19 0.09
3 -1 7 1.13 0.07
3 -1 7 1.16 0.09
3 -1 7 1.08 0.09
3 -1 7 1.05 0.08
3 1 7 1.21 0.07
-3 1 -7 1.17 0.08
3 1 7 1.13 0.09
-4 -1 -7 25.2 0.38
4 -1 7 25.4 0.41
4 -1 7 24.81 0.37
4 -1 7 24.85 0.41
4 -1 7 24.84 0.4
4 1 7 25.45 0.39
4 1 7 24.92 0.36
4 1 7 24.67 0.39
-4 1 -7 24.68 0.38
5 -1 7 2.76 0.13
5 -1 7 2.71 0.14
5 -1 7 2.6 0.13
5 -1 7 2.9 0.12
-5 -1 -7 2.74 0.13
5 1 7 2.76 0.14
-5 1 -7 2.84 0.13
5 1 7 2.81 0.13
6 -1 7 5.83 0.18
6 -1 7 5.6 0.2
-6 -1 -7 5.89 0.18
6 1 7 5.71 0.2
-6 1 -7 5.56 0.18
7 -1 7 30.31 0.47
-7 -1 -7 30.5 0.44
7 1 7 29.87 0.51
-7 1 -7 31.11 0.45
-8 -1 -7 35.64 0.47
8 -1 7 34.75 0.54
8 1 7 35.18 0.59
-8 1 -7 34.62 0.62
-8 1 -7 35.38 0.48
9 -1 7 8.38 0.26
-9 -1 -7 8.2 0.17
-9 1 -7 8.28 0.18
-9 1 -7 7.81 0.29
9 1 7 8.27 0.29
10 -1 7 2.99 0.18
-10 1 -7 3.49 0.22
10 1 7 3.4 0.21
11 -1 7 10.94 0.32
11 1 7 10.53 0.36
-11 1 -7 11.09 0.38
12 -1 7 -0.01 0.08
12 1 7 0.02 0.08
12 1 7 0.26 0.1
13 -1 7 1.14 0.14
13 1 7 1.13 0.15
13 1 7 1.07 0.16
-14 2 7 9.59 0.4
-14 2 7 8.93 0.37
-13 2 7 2.95 0.24
-13 2 7 2.64 0.21
-12 2 7 0.76 0.13
-12 2 7 0.63 0.13
-11 2 7 8.12 0.32
-11 2 7 8.28 0.29
-11 2 7 8.5 0.33
-10 2 7 14.01 0.36
-10 2 7 14.37 0.4
-10 2 7 14.29 0.41
-9 2 7 2.11 0.15
-9 2 7 1.92 0.15
-9 2 7 2.2 0.16
-8 2 7 8.25 0.27
-8 2 7 8.07 0.27
-8 2 7 8.11 0.26
-7 -2 7 4.04 0.17
-7 2 7 3.82 0.17
-7 2 7 3.72 0.17
-7 2 7 4.12 0.18
-6 -2 7 25.15 0.42
-6 2 7 26.15 0.44
-6 2 7 25.89 0.45
-6 2 7 25.97 0.45
-5 -2 7 6.38 0.2
-5 -2 7 6.24 0.19
-5 2 7 6.14 0.2
-5 2 7 6.54 0.19
-5 2 7 6.26 0.19
-4 -2 7 0 0.04
-4 2 7 0.14 0.04
-4 2 7 0.05 0.04
-3 -2 7 16.06 0.32
-3 2 7 17.09 0.33
-3 2 7 16.93 0.27
-2 -2 7 16.59 0.35
-2 2 7 16.03 0.32
-2 2 7 17.69 0.46
-2 2 7 16.72 0.25
-1 -2 7 62.36 0.81
-1 2 7 63.06 0.64
-1 2 7 63.68 0.57
0 -2 7 60.12 0.59
0 -2 7 61.1 0.73
0 2 7 60.42 0.6
0 2 7 60.5 0.61
1 -2 7 11.92 0.26
1 -2 7 11.81 0.22
1 -2 7 11.61 0.2
1 -2 7 12.36 0.26
1 2 7 11.67 0.21
1 2 7 11.71 0.2
2 -2 7 3.04 0.11
2 -2 7 2.91 0.13
2 -2 7 2.83 0.11
-2 -2 -7 2.84 0.12
2 -2 7 2.89 0.13
2 2 7 2.8 0.1
2 2 7 2.96 0.11
3 -2 7 3.6 0.15
3 -2 7 3.67 0.14
3 -2 7 3.67 0.13
3 -2 7 3.83 0.15
-3 -2 -7 3.96 0.14
3 2 7 3.85 0.14
3 2 7 3.81 0.13
3 2 7 3.56 0.13
-3 2 -7 3.87 0.14
3 2 7 3.65 0.12
-4 -2 -7 0.19 0.05
4 -2 7 0.16 0.04
4 -2 7 0.15 0.05
4 -2 7 0.19 0.05
4 -2 7 0.15 0.05
-4 2 -7 0.1 0.04
4 2 7 0.12 0.04
4 2 7 0.15 0.05
4 2 7 0.17 0.05
5 -2 7 2.48 0.13
-5 -2 -7 2.37 0.12
5 -2 7 2.39 0.13
5 -2 7 2.6 0.14
5 -2 7 2.28 0.12
5 2 7 2.35 0.13
5 2 7 2.34 0.12
5 2 7 2.3 0.13
-5 2 -7 2.39 0.13
6 -2 7 2.81 0.15
-6 -2 -7 2.66 0.13
6 -2 7 2.71 0.14
6 -2 7 2.85 0.13
-6 2 -7 2.71 0.14
6 2 7 2.8 0.15
6 2 7 2.77 0.14
7 -2 7 10.37 0.26
7 -2 7 10.09 0.28
7 -2 7 9.23 0.27
-7 -2 -7 9.75 0.23
-7 2 -7 10.03 0.24
7 2 7 10.22 0.28
8 -2 7 8.66 0.28
-8 -2 -7 9.17 0.21
8 -2 7 9.09 0.26
8 2 7 9.75 0.3
-8 2 -7 8.96 0.22
9 -2 7 0.36 0.08
-9 -2 -7 0.27 0.06
-9 2 -7 0.21 0.05
9 2 7 0.25 0.09
10 -2 7 2.58 0.17
10 2 7 2.57 0.2
11 -2 7 1.07 0.13
11 2 7 1.06 0.15
12 -2 7 0.52 0.11
12 2 7 0.44 0.12
13 -2 7 0.27 0.09
13 2 7 0.37 0.11
-14 3 7 10.63 0.42
-14 3 7 10.03 0.4
-13 3 7 6.77 0.32
-13 3 7 7.44 0.35
-12 3 7 0.97 0.15
-12 3 7 0.72 0.12
-12 3 7 0.82 0.15
-11 3 7 4.65 0.23
-11 3 7 4.65 0.27
-11 3 7 4.8 0.26
-10 3 7 0.56 0.12
-10 3 7 0.43 0.11
-10 3 7 0.49 0.1
-9 3 7 21.13 0.45
-9 3 7 20.73 0.48
-9 3 7 20.57 0.49
-8 3 7 16.48 0.4
-8 3 7 15.66 0.37
-8 3 7 16.33 0.4
-7 3 7 0.22 0.06
-7 3 7 0.64 0.1
-7 3 7 0.08 0.05
-6 -3 7 7.86 0.3
-6 3 7 7.17 0.23
-6 3 7 7.83 0.24
-6 3 7 7.42 0.24
-5 -3 7 61.76 0.76
-5 -3 7 63.44 0.78
-5 3 7 63.67 0.78
-5 3 7 62.51 0.77
-5 3 7 63.61 0.81
-4 -3 7 135.4 1.38
-4 -3 7 133.11 1.36
-4 3 7 133.31 1.34
-4 3 7 132.99 1.4
-4 3 7 132.08 1.34
-3 -3 7 47.6 0.62
-3 -3 7 46.86 0.62
-3 3 7 47.31 0.64
-3 3 7 46.55 0.57
-3 3 7 47.28 0.58
-2 -3 7 52.99 0.67
-2 -3 7 52.65 0.66
-2 3 7 51.69 0.67
-2 3 7 51.83 0.59
-2 3 7 53.02 0.67
-1 -3 7 11.59 0.26
-1 -3 7 11.8 0.26
-1 3 7 11.1 0.33
-1 3 7 11.87 0.21
-1 3 7 11.85 0.16
0 -3 7 8.87 0.15
0 -3 7 9.2 0.23
0 -3 7 9.17 0.23
0 3 7 8.98 0.16
0 3 7 9.36 0.18
1 -3 7 22.96 0.39
1 -3 7 22.63 0.32
1 -3 7 22.61 0.38
1 3 7 23.27 0.33
1 3 7 23.46 0.33
1 3 7 23.36 0.35
-2 -3 -7 12.72 0.25
2 -3 7 12.6 0.24
2 -3 7 12.83 0.28
2 -3 7 13.04 0.25
2 -3 7 12.8 0.28
2 3 7 12.38 0.24
2 3 7 12.64 0.25
2 3 7 12.42 0.24
3 -3 7 4.39 0.16
3 -3 7 4.43 0.14
3 -3 7 4.55 0.17
3 -3 7 4.57 0.17
3 3 7 4.55 0.15
3 3 7 4.6 0.15
3 3 7 4.72 0.15
4 -3 7 16.95 0.33
4 -3 7 16.32 0.3
4 -3 7 17.04 0.35
4 -3 7 16.7 0.34
-4 -3 -7 16.73 0.31
4 3 7 16.65 0.32
4 3 7 17.15 0.32
-4 3 -7 16.27 0.3
4 3 7 16.61 0.32
5 -3 7 61.76 0.81
5 -3 7 61.08 0.8
-5 -3 -7 62.49 0.73
5 -3 7 60.75 0.73
5 -3 7 63.32 0.79
5 3 7 62.67 0.77
5 3 7 63.09 0.78
5 3 7 61.82 0.78
-5 3 -7 61.16 0.74
6 -3 7 13.69 0.33
-6 -3 -7 12.86 0.27
6 -3 7 13.21 0.33
6 -3 7 12.96 0.33
6 -3 7 12.92 0.29
-6 3 -7 13.32 0.28
6 3 7 12.73 0.31
6 3 7 13.63 0.32
7 -3 7 2.1 0.13
7 -3 7 2.06 0.15
-7 -3 -7 1.68 0.12
7 -3 7 2.06 0.15
7 3 7 2.22 0.15
7 3 7 2.3 0.14
-7 3 -7 2.14 0.13
8 -3 7 2.41 0.17
8 -3 7 2.55 0.17
8 -3 7 2.81 0.16
-8 -3 -7 2.45 0.12
-8 3 -7 2.45 0.13
8 3 7 2.62 0.17
8 3 7 2.76 0.17
9 -3 7 5.85 0.25
9 -3 7 5.8 0.22
-9 3 -7 5.8 0.16
9 3 7 5.74 0.25
10 -3 7 10 0.3
10 3 7 9.97 0.34
11 -3 7 2.43 0.18
11 3 7 2.75 0.22
12 -3 7 0.34 0.1
12 3 7 0.36 0.12
13 -3 7 0.48 0.11
13 3 7 0.16 0.1
-14 4 7 1.84 0.22
-13 4 7 2.07 0.22
-13 4 7 2.49 0.24
-13 4 7 2.17 0.25
-12 4 7 0.79 0.13
-12 4 7 0.69 0.14
-12 4 7 0.49 0.14
-11 4 7 1.37 0.18
-11 4 7 1.77 0.17
-11 4 7 1.86 0.21
-10 4 7 11.67 0.39
-10 4 7 11.45 0.39
-10 4 7 11.77 0.35
-9 4 7 0.76 0.12
-9 4 7 0.83 0.12
-8 4 7 6.11 0.25
-8 4 7 5.76 0.24
-8 4 7 5.91 0.23
-7 4 7 0.6 0.1
-7 4 7 0.5 0.09
-7 4 7 0.49 0.09
-6 4 7 2.54 0.15
-6 4 7 2.51 0.14
-6 4 7 2.45 0.14
-5 -4 7 19.94 0.42
-5 4 7 20.01 0.38
-5 4 7 20.08 0.38
-5 4 7 20.31 0.4
-4 -4 7 10.62 0.25
-4 -4 7 10.87 0.26
-4 4 7 10.96 0.25
-4 4 7 10.95 0.25
-4 4 7 10.89 0.28
-3 -4 7 4.59 0.16
-3 -4 7 4.72 0.16
-3 4 7 4.93 0.16
-3 4 7 4.82 0.15
-3 4 7 5.13 0.18
-2 -4 7 56.3 0.7
-2 -4 7 57.92 0.71
-2 4 7 55.38 0.65
-2 4 7 56.03 0.66
-2 4 7 56.78 0.72
-1 -4 7 144.25 1.44
-1 -4 7 142.33 1.45
-1 4 7 140.58 1.36
-1 4 7 143.07 1.39
-1 4 7 141.59 1.27
-1 4 7 143.86 1.45
0 -4 7 32.24 0.37
0 -4 7 33 0.49
0 -4 7 32.73 0.5
0 4 7 32.81 0.45
0 4 7 33.13 0.39
0 4 7 32.49 0.43
1 -4 7 2.4 0.1
1 -4 7 2.29 0.12
1 -4 7 2.1 0.12
1 4 7 2.14 0.1
1 4 7 1.95 0.1
1 4 7 2.05 0.1
2 -4 7 14.23 0.31
2 -4 7 14.57 0.27
-2 -4 -7 13.94 0.28
2 -4 7 13.88 0.31
2 4 7 14.1 0.27
2 4 7 13.97 0.28
2 4 7 14.04 0.26
3 -4 7 29.61 0.49
3 -4 7 29.55 0.44
-3 -4 -7 29.22 0.44
3 -4 7 30.33 0.45
3 -4 7 30.23 0.49
3 4 7 30.75 0.45
3 4 7 30.11 0.46
-3 4 -7 30.36 0.43
3 4 7 30.06 0.45
4 -4 7 5.37 0.2
4 -4 7 5.16 0.19
4 -4 7 5.37 0.17
4 -4 7 5.21 0.2
-4 -4 -7 5.04 0.17
-4 4 -7 5.47 0.18
4 4 7 4.98 0.18
4 4 7 5.37 0.18
4 4 7 5.25 0.18
5 -4 7 3.55 0.17
5 -4 7 3.37 0.17
-5 -4 -7 3.23 0.15
5 -4 7 3.27 0.14
5 -4 7 3.28 0.17
-5 4 -7 3.15 0.15
5 4 7 3.13 0.17
5 4 7 3.24 0.16
5 4 7 3.45 0.16
6 -4 7 2.25 0.13
-6 -4 -7 2.02 0.13
6 -4 7 1.96 0.15
6 -4 7 2.26 0.15
6 -4 7 2.03 0.15
6 4 7 2.07 0.14
-6 4 -7 2.33 0.14
6 4 7 2.1 0.14
7 -4 7 5.56 0.23
7 -4 7 5.74 0.2
-7 -4 -7 5.55 0.18
7 -4 7 5.42 0.23
7 4 7 5.73 0.23
7 4 7 5.99 0.23
-7 4 -7 5.53 0.2
-8 -4 -7 15.25 0.27
8 -4 7 14.53 0.39
8 -4 7 14.92 0.39
8 -4 7 15.75 0.35
-8 4 -7 14.65 0.3
8 4 7 14.81 0.39
9 -4 7 1.84 0.18
9 -4 7 1.85 0.15
9 -4 7 2.01 0.18
-9 4 -7 1.96 0.11
9 4 7 1.95 0.18
10 -4 7 3.56 0.2
10 -4 7 3.87 0.23
10 4 7 3.49 0.22
11 -4 7 3.46 0.2
11 4 7 3.34 0.24
12 -4 7 1.9 0.17
12 4 7 2.32 0.23
-13 5 7 5.73 0.33
-13 5 7 6.33 0.29
-13 5 7 6.33 0.33
-12 5 7 0.24 0.1
-12 5 7 0.36 0.12
-12 5 7 0.39 0.13
-11 5 7 2.11 0.22
-11 5 7 2.34 0.23
-11 5 7 2.02 0.2
-10 5 7 4.37 0.26
-10 5 7 4.29 0.24
-10 5 7 4.68 0.27
-9 5 7 2.62 0.2
-9 5 7 2.77 0.19
-9 5 7 2.89 0.22
-8 5 7 6.03 0.31
-8 5 7 6.46 0.27
-8 5 7 6.77 0.26
-7 5 7 0.13 0.06
-7 5 7 0.29 0.08
-7 5 7 0.13 0.05
-6 5 7 12.89 0.33
-6 5 7 12.3 0.33
-6 5 7 12.42 0.32
-5 5 7 1.05 0.1
-5 5 7 1.13 0.12
-5 5 7 1.15 0.11
-4 -5 7 5.89 0.19
-4 5 7 5.82 0.19
-4 5 7 5.97 0.21
-4 5 7 5.83 0.19
-3 -5 7 12.98 0.28
-3 -5 7 13.42 0.29
-3 5 7 13.4 0.31
-3 5 7 13.23 0.28
-3 5 7 12.87 0.28
-2 -5 7 17.68 0.34
-2 -5 7 17.29 0.33
-2 5 7 17.07 0.2
-2 5 7 17.26 0.31
-2 5 7 17.02 0.32
-2 5 7 16.99 0.34
-1 -5 7 4.1 0.16
-1 -5 7 4.05 0.16
-1 5 7 3.98 0.14
-1 5 7 3.57 0.15
-1 5 7 3.85 0.14
-1 5 7 3.68 0.1
0 -5 7 22.38 0.3
0 -5 7 22.86 0.41
0 -5 7 22.27 0.39
0 5 7 22.77 0.32
0 5 7 22.39 0.37
0 5 7 22 0.35
1 -5 7 15.27 0.27
1 -5 7 15.7 0.33
1 -5 7 15.76 0.33
1 5 7 15.58 0.27
1 5 7 15.86 0.29
1 5 7 15.04 0.3
2 -5 7 5.32 0.19
2 -5 7 5.26 0.19
2 -5 7 5.11 0.17
-2 -5 -7 4.61 0.17
2 5 7 5.07 0.17
2 5 7 5.24 0.16
2 5 7 5.34 0.17
3 -5 7 17.71 0.38
3 -5 7 18.21 0.35
3 -5 7 17.43 0.37
-3 -5 -7 18.17 0.34
3 5 7 18.43 0.35
3 5 7 17.57 0.35
-3 5 -7 17.73 0.32
3 5 7 17.96 0.33
4 -5 7 15.01 0.33
-4 -5 -7 15.22 0.31
4 -5 7 15.02 0.35
4 -5 7 14.59 0.3
4 -5 7 14.88 0.36
-4 5 -7 15.1 0.3
4 5 7 15.54 0.33
4 5 7 15.17 0.32
4 5 7 15.09 0.33
5 -5 7 11.05 0.3
5 -5 7 11.21 0.32
5 -5 7 10.84 0.31
5 -5 7 10.88 0.27
-5 -5 -7 10.79 0.26
5 5 7 10.69 0.29
5 5 7 11.04 0.29
-5 5 -7 10.51 0.26
6 -5 7 -0.03 0.05
6 -5 7 0.05 0.06
-6 -5 -7 -0.01 0.05
6 -5 7 -0.07 0.05
6 -5 7 -0.12 0.05
-6 5 -7 -0.09 0.05
6 5 7 0.03 0.04
6 5 7 0.02 0.05
-7 -5 -7 4.21 0.16
7 -5 7 4.67 0.19
7 -5 7 3.88 0.21
7 -5 7 4 0.22
7 5 7 4.34 0.21
-7 5 -7 4.06 0.18
8 -5 7 2.15 0.18
8 -5 7 2.61 0.2
-8 -5 -7 2.2 0.11
8 -5 7 2.01 0.15
-8 5 -7 2.27 0.14
8 5 7 2.24 0.18
9 -5 7 2.63 0.2
9 -5 7 2.76 0.17
9 -5 7 2.4 0.19
9 5 7 2.67 0.2
-9 5 -7 2.71 0.13
10 -5 7 7.98 0.35
10 -5 7 7.56 0.27
10 -5 7 8.24 0.33
10 5 7 7.68 0.31
11 -5 7 1.46 0.18
11 -5 7 1.61 0.16
11 5 7 1.77 0.19
12 5 7 3.62 0.26
-13 6 7 0.53 0.15
-13 6 7 0.76 0.14
-12 6 7 1.98 0.23
-12 6 7 1.69 0.18
-12 6 7 2.39 0.24
-11 6 7 6.95 0.3
-11 6 7 7.33 0.35
-11 6 7 6.66 0.34
-10 6 7 0.18 0.09
-10 6 7 0.2 0.11
-10 6 7 0.06 0.09
-9 6 7 0.7 0.12
-9 6 7 0.92 0.15
-9 6 7 0.86 0.15
-8 6 7 0.29 0.09
-8 6 7 0.55 0.12
-7 6 7 8.47 0.29
-7 6 7 8.45 0.34
-7 6 7 9.04 0.31
-6 6 7 0.92 0.11
-6 6 7 1.16 0.12
-6 6 7 0.94 0.12
-5 6 7 3.75 0.17
-5 6 7 3.75 0.18
-5 6 7 3.94 0.18
-4 6 7 3.61 0.16
-4 6 7 3.75 0.17
-4 6 7 3.42 0.17
-3 -6 7 10.61 0.26
-3 6 7 10.58 0.27
-3 6 7 11.18 0.29
-3 6 7 11 0.27
-2 -6 7 4.38 0.17
-2 -6 7 4.31 0.16
-2 6 7 4.73 0.18
-2 6 7 4.46 0.16
-2 6 7 4.53 0.1
-2 6 7 4.36 0.17
-1 -6 7 23.09 0.42
-1 -6 7 23.46 0.41
-1 6 7 22.93 0.39
-1 6 7 22.79 0.38
-1 6 7 22.34 0.4
-1 6 7 22.98 0.31
0 -6 7 4.19 0.12
0 -6 7 4.1 0.17
0 -6 7 4.34 0.17
0 6 7 4.16 0.16
0 6 7 4.22 0.13
0 6 7 4.16 0.15
1 -6 7 6.82 0.18
1 -6 7 6.35 0.21
1 -6 7 6.59 0.22
1 6 7 6.73 0.18
1 6 7 6.75 0.2
1 6 7 6.85 0.2
2 -6 7 8.06 0.25
2 -6 7 8.24 0.25
-2 -6 -7 7.82 0.23
2 -6 7 7.98 0.21
2 6 7 7.62 0.22
2 6 7 8.29 0.21
2 6 7 7.86 0.23
3 -6 7 2.62 0.16
-3 -6 -7 3.25 0.16
3 -6 7 2.81 0.16
3 -6 7 3.02 0.15
3 6 7 2.9 0.15
-3 6 -7 3.02 0.17
3 6 7 3.11 0.15
3 6 7 3 0.15
4 -6 7 26.01 0.5
4 -6 7 27.14 0.52
4 -6 7 26.71 0.47
-4 -6 -7 26.74 0.44
4 6 7 26.84 0.48
4 6 7 27.05 0.46
-4 6 -7 26.73 0.44
4 6 7 26.5 0.48
-5 -6 -7 11.39 0.27
5 -6 7 11.06 0.28
5 -6 7 11.75 0.32
5 -6 7 11.14 0.33
5 -6 7 11.57 0.34
-5 6 -7 11.13 0.28
5 6 7 11.12 0.31
5 6 7 10.98 0.31
6 -6 7 4.49 0.22
6 -6 7 4.79 0.2
6 -6 7 4.84 0.23
6 -6 7 4.59 0.23
-6 -6 -7 4.61 0.18
6 6 7 4.15 0.21
-6 6 -7 4.58 0.19
7 -6 7 2.18 0.19
7 -6 7 2.32 0.19
-7 -6 -7 2.45 0.13
7 -6 7 2.2 0.16
7 6 7 2.07 0.17
-7 6 -7 1.9 0.15
8 -6 7 1.5 0.14
-8 -6 -7 1.66 0.1
8 -6 7 1.63 0.17
8 -6 7 1.43 0.16
-8 6 -7 1.52 0.13
8 6 7 1.4 0.16
9 -6 7 5.58 0.24
9 -6 7 5.66 0.29
9 -6 7 6.2 0.3
-9 6 -7 6.09 0.18
9 6 7 6.11 0.28
10 -6 7 3.01 0.24
10 -6 7 3.06 0.21
10 -6 7 2.98 0.25
10 6 7 3.09 0.23
11 -6 7 6.17 0.32
11 6 7 5.93 0.3
-12 7 7 4.91 0.31
-12 7 7 4.96 0.28
-12 7 7 5.33 0.32
-11 7 7 5.1 0.28
-11 7 7 5.12 0.31
-11 7 7 5.42 0.32
-10 7 7 12.71 0.45
-10 7 7 11.67 0.43
-10 7 7 13.24 0.41
-9 7 7 29.87 0.67
-9 7 7 30.52 0.67
-9 7 7 31.68 0.63
-8 7 7 9.99 0.34
-8 7 7 9.82 0.36
-7 7 7 0.92 0.13
-7 7 7 0.94 0.13
-6 7 7 5.64 0.24
-6 7 7 5.46 0.24
-5 7 7 1.28 0.14
-5 7 7 1.18 0.13
-5 7 7 1.44 0.12
-4 7 7 4.97 0.21
-4 7 7 4.9 0.2
-4 7 7 5.38 0.2
-3 7 7 1.45 0.13
-3 7 7 1.57 0.12
-3 7 7 1.58 0.13
-2 -7 7 0.53 0.08
-2 7 7 0.4 0.07
-2 7 7 0.46 0.04
-2 7 7 0.49 0.07
-2 7 7 0.43 0.07
-1 -7 7 11.93 0.3
-1 -7 7 10.96 0.28
-1 7 7 11.04 0.21
-1 7 7 11.09 0.28
-1 7 7 11.17 0.27
0 -7 7 0.34 0.05
0 -7 7 0.36 0.07
0 -7 7 0.16 0.06
0 7 7 0.32 0.06
0 7 7 0.53 0.08
0 7 7 0.45 0.06
1 -7 7 6 0.22
1 -7 7 6.18 0.22
1 -7 7 6.25 0.18
1 7 7 5.92 0.2
1 7 7 6.14 0.18
1 7 7 6.08 0.21
2 -7 7 1.44 0.11
-2 -7 -7 1.53 0.13
2 -7 7 1.33 0.13
2 -7 7 1.53 0.14
2 7 7 1.54 0.12
2 7 7 1.46 0.11
2 7 7 1.57 0.12
3 -7 7 0.99 0.12
3 -7 7 0.93 0.12
-3 -7 -7 1.05 0.11
3 -7 7 0.72 0.09
3 7 7 0.81 0.1
3 7 7 0.85 0.1
3 7 7 0.9 0.09
4 -7 7 24.22 0.51
4 -7 7 25.56 0.47
4 -7 7 23.81 0.5
-4 -7 -7 24.61 0.44
4 7 7 24.23 0.47
-4 7 -7 24.74 0.43
4 7 7 23.8 0.47
4 7 7 24.34 0.44
-5 -7 -7 17.1 0.35
5 -7 7 16.92 0.43
5 -7 7 17.52 0.4
5 -7 7 17.5 0.44
5 7 7 17.02 0.4
-5 7 -7 17.48 0.36
6 -7 7 4.83 0.25
6 -7 7 4.95 0.25
6 -7 7 5.71 0.25
-6 -7 -7 5.19 0.19
6 7 7 5.09 0.25
-6 7 -7 5.54 0.21
7 -7 7 3.42 0.22
7 -7 7 3.5 0.23
7 -7 7 3.52 0.23
-7 -7 -7 3.69 0.16
-7 7 -7 3.23 0.18
7 7 7 3.14 0.21
8 -7 7 3.9 0.24
8 -7 7 3.49 0.24
8 -7 7 3.46 0.2
-8 7 -7 3.62 0.17
8 7 7 3.47 0.23
9 -7 7 7.24 0.33
9 -7 7 6.94 0.33
-9 7 -7 6.69 0.19
9 7 7 6.96 0.31
10 -7 7 0.76 0.14
10 -7 7 0.36 0.12
10 7 7 0.3 0.12
11 -7 7 6.95 0.33
11 -7 7 7.3 0.35
11 7 7 6.79 0.33
-12 8 7 2.71 0.27
-11 8 7 0.43 0.14
-11 8 7 0.54 0.13
-11 8 7 0.54 0.14
-10 8 7 9.89 0.41
-10 8 7 10.55 0.38
-10 8 7 10.58 0.42
-9 8 7 3.72 0.24
-9 8 7 3.92 0.28
-9 8 7 3.91 0.27
-8 8 7 5.92 0.28
-8 8 7 6.04 0.31
-8 8 7 5.88 0.3
-7 8 7 1.67 0.17
-7 8 7 1.76 0.19
-6 8 7 0.19 0.08
-6 8 7 0.27 0.1
-5 8 7 4.89 0.24
-5 8 7 4.76 0.22
-4 8 7 14.52 0.37
-4 8 7 14.04 0.36
-3 8 7 6.75 0.24
-3 8 7 6.41 0.23
-3 8 7 6.37 0.24
-2 8 7 0.16 0.06
-2 8 7 0.17 0.06
-2 8 7 0.16 0.04
-1 -8 7 1.12 0.11
-1 8 7 0.65 0.09
-1 8 7 0.6 0.06
-1 8 7 0.63 0.09
0 -8 7 0.06 0.05
0 -8 7 -0.03 0.04
0 -8 7 0.03 0.03
0 8 7 -0.01 0.05
0 8 7 0.09 0.05
0 8 7 -0.01 0.04
1 -8 7 8.97 0.22
-1 -8 -7 8.5 0.26
1 -8 7 8.91 0.28
1 -8 7 9.19 0.29
1 8 7 8.97 0.26
1 8 7 9.21 0.27
1 8 7 9.11 0.23
2 -8 7 1.28 0.14
2 -8 7 1.21 0.13
2 -8 7 1.37 0.12
-2 -8 -7 1.18 0.12
2 8 7 1.16 0.12
2 8 7 1.02 0.14
2 8 7 1.46 0.12
3 -8 7 3.45 0.18
3 -8 7 3.27 0.19
3 -8 7 3.16 0.19
-3 -8 -7 3.49 0.18
3 8 7 3.31 0.19
3 8 7 3.16 0.17
4 -8 7 10.58 0.34
-4 -8 -7 10.51 0.29
4 -8 7 10.11 0.3
4 -8 7 10.5 0.34
4 8 7 10.31 0.31
-4 8 -7 10.5 0.28
4 8 7 10.27 0.29
5 -8 7 20.1 0.49
5 -8 7 20.64 0.46
5 -8 7 20.08 0.49
-5 -8 -7 20.14 0.4
5 8 7 20.04 0.45
-5 8 -7 19.54 0.4
6 -8 7 2.17 0.21
-6 -8 -7 2.33 0.15
6 -8 7 1.97 0.19
6 -8 7 2.09 0.18
6 8 7 2.1 0.19
-6 8 -7 2.56 0.18
7 -8 7 1.16 0.17
7 -8 7 0.91 0.15
7 -8 7 0.92 0.14
-7 -8 -7 1.06 0.1
-7 8 -7 1.07 0.12
7 8 7 1.07 0.15
8 -8 7 0.95 0.16
8 -8 7 1.07 0.17
-8 8 -7 0.88 0.1
8 8 7 1.06 0.15
9 -8 7 1.45 0.19
9 -8 7 2.12 0.23
9 8 7 1.74 0.2
-9 8 -7 1.79 0.11
10 -8 7 3.17 0.25
10 -8 7 3.71 0.26
10 8 7 2.97 0.25
-11 9 7 4.3 0.31
-10 9 7 3.47 0.27
-10 9 7 3.41 0.28
-10 9 7 3.7 0.26
-9 9 7 20.65 0.54
-9 9 7 20.17 0.56
-9 9 7 20.74 0.58
-8 9 7 0.9 0.16
-8 9 7 0.58 0.15
-8 9 7 0.77 0.15
-7 9 7 8.66 0.33
-7 9 7 7.92 0.35
-7 9 7 8.75 0.36
-6 9 7 0.74 0.12
-6 9 7 1.05 0.15
-5 9 7 1.09 0.13
-5 9 7 1.42 0.17
-4 9 7 6.03 0.26
-4 9 7 5.72 0.24
-3 9 7 2.03 0.17
-2 9 7 10.49 0.2
-2 9 7 11.19 0.32
-1 9 7 0.7 0.11
-1 9 7 0.7 0.07
0 -9 7 6.97 0.16
0 -9 7 6.91 0.26
0 9 7 6.72 0.25
0 9 7 7.14 0.2
-1 -9 -7 0.94 0.12
1 -9 7 0.88 0.12
1 -9 7 0.89 0.09
1 -9 7 0.75 0.11
1 9 7 0.71 0.11
1 9 7 0.91 0.1
2 -9 7 10.28 0.32
2 -9 7 10.75 0.28
-2 -9 -7 11.23 0.32
2 -9 7 11.25 0.35
2 9 7 10.7 0.32
2 9 7 10.99 0.28
3 -9 7 4.1 0.2
3 -9 7 3.99 0.22
-3 -9 -7 4.08 0.21
3 -9 7 4.34 0.23
3 9 7 4.1 0.21
3 9 7 3.9 0.19
4 -9 7 0.89 0.13
-4 -9 -7 0.86 0.12
4 -9 7 0.81 0.12
4 -9 7 0.8 0.13
-4 9 -7 1.12 0.13
4 9 7 0.73 0.13
4 9 7 0.92 0.12
5 -9 7 27.69 0.61
5 -9 7 28.4 0.56
5 -9 7 29.37 0.62
-5 -9 -7 29.38 0.5
-5 9 -7 28.72 0.51
5 9 7 30.09 0.58
6 -9 7 4.02 0.25
-6 -9 -7 4.17 0.18
6 -9 7 4.2 0.24
6 -9 7 4.18 0.26
6 9 7 3.77 0.25
-6 9 -7 4.37 0.21
7 -9 7 2.03 0.21
-7 -9 -7 1.72 0.11
7 -9 7 1.54 0.17
7 -9 7 1.77 0.2
7 9 7 1.7 0.19
-7 9 -7 1.9 0.16
8 -9 7 0.82 0.16
8 -9 7 1.25 0.19
8 -9 7 0.89 0.15
-8 9 -7 0.63 0.1
8 9 7 0.96 0.16
9 -9 7 2.13 0.23
9 -9 7 1.94 0.22
9 9 7 1.73 0.19
-10 10 7 1.32 0.21
-9 10 7 0.07 0.1
-9 10 7 -0.03 0.11
-9 10 7 0.09 0.1
-8 10 7 4.85 0.29
-8 10 7 4.6 0.28
-8 10 7 4.82 0.3
-7 10 7 2.72 0.25
-7 10 7 3.06 0.25
-7 10 7 2.31 0.21
-6 10 7 2.26 0.22
-6 10 7 2.53 0.2
-5 10 7 6.35 0.27
-5 10 7 6.47 0.3
-4 10 7 4.14 0.24
-3 10 7 0.27 0.09
-2 10 7 6.62 0.16
-2 10 7 6.74 0.28
-1 10 7 15.25 0.28
-1 10 7 15.26 0.4
0 10 7 7.04 0.2
0 10 7 6.95 0.27
1 -10 7 3.13 0.2
-1 -10 -7 3.07 0.2
1 -10 7 3.18 0.14
1 10 7 3.06 0.16
1 10 7 3.43 0.21
2 -10 7 8.99 0.26
2 -10 7 8.93 0.31
2 -10 7 9.63 0.33
-2 -10 -7 8.61 0.3
2 10 7 8.89 0.26
2 10 7 9.36 0.31
3 -10 7 8.81 0.28
3 -10 7 8.38 0.33
-3 -10 -7 8.72 0.3
3 -10 7 8.72 0.32
3 10 7 8.25 0.27
-3 10 -7 8.29 0.32
3 10 7 8.54 0.31
4 -10 7 0.23 0.1
4 -10 7 0.36 0.1
4 -10 7 0.48 0.12
-4 -10 -7 0.4 0.1
-4 10 -7 0.24 0.09
4 10 7 0.36 0.09
4 10 7 0.43 0.11
5 -10 7 1.2 0.15
-5 -10 -7 1.05 0.12
5 -10 7 0.8 0.15
5 -10 7 1.15 0.16
-5 10 -7 1.1 0.13
5 10 7 1.34 0.22
5 10 7 1.03 0.15
6 -10 7 6.13 0.31
-6 -10 -7 5.81 0.2
6 -10 7 6.35 0.28
6 -10 7 6.32 0.32
6 10 7 6.74 0.3
-6 10 -7 6.21 0.25
7 -10 7 0.19 0.08
7 -10 7 0.45 0.12
7 -10 7 0.08 0.1
7 10 7 0.35 0.12
-7 10 -7 0.21 0.09
8 -10 7 0.59 0.11
8 -10 7 0.62 0.15
8 -10 7 0.48 0.13
8 10 7 0.74 0.14
-8 10 -7 0.51 0.09
-8 11 7 0.93 0.18
-7 11 7 1.94 0.22
-6 11 7 2.12 0.21
-6 11 7 2.34 0.23
-5 11 7 -0.03 0.1
-4 11 7 1.65 0.19
-3 11 7 7.97 0.32
-2 11 7 0.28 0.05
-2 11 7 0.24 0.1
-1 11 7 0.44 0.11
-1 11 7 0.21 0.06
0 -11 -7 0.68 0.13
0 11 7 0.93 0.14
0 11 7 0.75 0.09
1 -11 7 8.14 0.21
-1 -11 -7 8.13 0.3
1 11 7 8.01 0.24
1 11 7 7.56 0.3
2 -11 7 2.67 0.15
-2 -11 -7 2.53 0.21
2 -11 7 2.62 0.2
2 11 7 2.51 0.2
2 11 7 2.52 0.17
3 -11 7 0.01 0.08
3 -11 7 0.16 0.08
-3 -11 -7 0.01 0.08
3 -11 7 0.06 0.06
-3 11 -7 0.1 0.08
3 11 7 0.07 0.07
3 11 7 -0.05 0.08
-4 -11 -7 2.16 0.17
-4 -11 -7 1.7 0.16
4 -11 7 1.45 0.18
4 -11 7 2.24 0.17
4 -11 7 1.79 0.2
-4 11 -7 1.97 0.17
4 11 7 1.88 0.16
4 11 7 1.91 0.19
5 -11 7 7.07 0.28
-5 -11 -7 6.72 0.24
5 -11 7 7.09 0.33
5 -11 7 7.08 0.32
-5 11 -7 6.95 0.27
5 11 7 6.89 0.26
5 11 7 6.58 0.29
-6 -11 -7 0.32 0.06
6 -11 7 0.25 0.12
6 -11 7 0.23 0.1
6 -11 7 0.37 0.1
-6 11 -7 0.34 0.09
6 11 7 0.37 0.12
7 -11 7 0.06 0.1
7 -11 7 0.1 0.09
7 11 7 0.03 0.09
7 -12 -7 4.94 0.29
-7 12 7 4.78 0.31
-6 12 7 3.15 0.27
-5 12 7 -0.04 0.1
-4 12 7 1.3 0.18
-3 12 7 3.15 0.24
-2 12 7 2.72 0.22
-2 12 7 2.73 0.11
-1 12 7 3.2 0.23
-1 12 7 3.14 0.13
0 -12 -7 2.69 0.21
0 -12 -7 3.22 0.23
0 12 7 3.02 0.23
0 12 7 2.97 0.15
-1 -12 -7 -0.01 0.08
-1 -12 -7 0.09 0.09
1 12 7 0.08 0.09
1 12 7 0.11 0.07
-2 -12 -7 4.23 0.24
-2 -12 -7 4.53 0.24
2 -12 7 4.15 0.17
2 12 7 4.82 0.26
2 12 7 4.42 0.2
-3 -12 -7 1.61 0.16
-3 -12 -7 1.64 0.16
3 -12 7 1.69 0.19
3 -12 7 1.74 0.14
-3 12 -7 1.92 0.17
3 12 7 1.82 0.19
3 12 7 1.98 0.16
4 -12 7 0.07 0.09
4 -12 7 0.25 0.08
4 -12 7 0.2 0.1
-4 -12 -7 0.07 0.07
-4 12 -7 0.19 0.08
4 12 7 0.47 0.12
4 12 7 0.09 0.07
5 -12 7 0.16 0.09
5 -12 7 0.09 0.09
5 12 7 0.08 0.11
5 12 7 0.13 0.1
-4 13 7 0.51 0.15
-3 13 7 2.02 0.22
-2 13 7 1.5 0.19
1 -13 -7 -0.01 0.08
1 -13 -7 0.08 0.09
-1 13 7 -0.04 0.09
-1 13 7 0.11 0.05
0 -13 -7 0.2 0.1
0 13 7 0.55 0.13
0 13 7 0.39 0.1
1 13 7 1.74 0.19
2 13 7 2.19 0.21
3 13 7 0.25 0.11
-9 0 8 1.39 0.14
-8 0 8 11.93 0.31
-7 0 8 2.8 0.15
-6 0 8 0.26 0.06
-5 0 8 1.8 0.12
-4 0 8 0.12 0.05
-4 0 8 0.22 0.06
-3 0 8 18.07 0.36
-3 0 8 17.94 0.35
-2 0 8 5.72 0.19
-2 0 8 6.1 0.19
-1 0 8 2.44 0.12
-1 0 8 2.54 0.13
0 0 8 3.44 0.08
0 0 8 3.47 0.14
0 0 8 3.26 0.14
1 0 8 15.91 0.32
1 0 8 15.35 0.24
1 0 8 15.84 0.26
1 0 8 15.8 0.32
2 0 8 0.07 0.04
2 0 8 0.08 0.03
2 0 8 0.04 0.03
2 0 8 0.05 0.04
3 0 8 0.72 0.08
3 0 8 0.79 0.09
3 0 8 0.8 0.08
-3 0 -8 0.76 0.08
3 0 8 0.83 0.08
4 0 8 0.76 0.09
4 0 8 0.74 0.08
4 0 8 0.88 0.09
4 0 8 0.78 0.07
-4 0 -8 0.8 0.09
5 0 8 5.47 0.17
5 0 8 5.29 0.19
-5 0 -8 5.45 0.18
5 0 8 5.36 0.19
6 0 8 5.49 0.19
6 0 8 5.44 0.18
-6 0 -8 5.17 0.19
6 0 8 5.56 0.21
-7 0 -8 4.27 0.18
7 0 8 3.74 0.17
7 0 8 4.17 0.18
-8 0 -8 5.22 0.18
8 0 8 5.12 0.2
8 0 8 5.09 0.21
9 0 8 13.45 0.34
-9 0 -8 14.01 0.26
9 0 8 14.32 0.37
10 0 8 7.93 0.29
10 0 8 7.66 0.27
11 0 8 0.61 0.12
11 0 8 0.56 0.12
12 0 8 1.95 0.2
12 0 8 1.47 0.16
-12 1 8 0.51 0.12
-11 1 8 6.38 0.28
-11 1 8 6.76 0.29
-10 1 8 13.83 0.39
-10 1 8 13.96 0.36
-10 1 8 14.02 0.39
-9 1 8 16.54 0.4
-9 1 8 15.97 0.38
-8 -1 8 7.86 0.25
-8 1 8 7.87 0.26
-8 1 8 8.15 0.26
-7 -1 8 2.94 0.15
-7 1 8 3.11 0.15
-7 1 8 2.89 0.16
-6 -1 8 0.13 0.05
-6 1 8 -0.02 0.04
-6 1 8 0.04 0.05
-5 -1 8 4.36 0.17
-5 -1 8 4.33 0.17
-5 1 8 4.29 0.18
-4 -1 8 14.85 0.32
-4 -1 8 14.67 0.32
-4 1 8 14.85 0.33
-4 1 8 14.74 0.33
-3 -1 8 1.83 0.12
-3 -1 8 2.04 0.12
-3 1 8 1.97 0.12
-3 1 8 1.91 0.12
-2 -1 8 33.98 0.51
-2 -1 8 35.14 0.52
-2 1 8 34.54 0.52
-2 1 8 34.09 0.52
-1 -1 8 9.78 0.24
-1 -1 8 9.88 0.25
-1 1 8 9.92 0.25
-1 1 8 9.71 0.25
0 -1 8 4.57 0.1
0 -1 8 4.64 0.17
0 1 8 4.53 0.17
0 1 8 4.71 0.1
0 1 8 4.29 0.16
1 -1 8 31.55 0.48
1 -1 8 30.34 0.38
1 -1 8 31.56 0.48
1 -1 8 30.73 0.41
1 1 8 31.54 0.39
1 1 8 31.46 0.48
1 1 8 31.38 0.42
1 1 8 31.2 0.48
2 -1 8 27.5 0.45
2 -1 8 28.45 0.39
2 -1 8 27.55 0.39
2 -1 8 28.67 0.46
2 1 8 28.72 0.45
2 1 8 28.8 0.38
2 1 8 28.2 0.39
2 1 8 27.54 0.44
3 -1 8 11.21 0.24
3 -1 8 11.74 0.28
-3 -1 -8 11.52 0.25
3 -1 8 11.6 0.23
3 -1 8 11.28 0.27
3 1 8 11.69 0.27
3 1 8 11.61 0.25
3 1 8 11.26 0.26
3 1 8 11.3 0.22
3 1 8 11.18 0.23
-3 1 -8 11.68 0.25
4 -1 8 14.23 0.28
4 -1 8 14.01 0.31
4 -1 8 14.06 0.3
4 -1 8 14.49 0.32
-4 -1 -8 14.27 0.29
-4 1 -8 14.06 0.29
4 1 8 14.13 0.27
4 1 8 14.62 0.31
4 1 8 14.46 0.28
4 1 8 14.26 0.29
-5 -1 -8 0.07 0.05
5 -1 8 0.08 0.05
5 -1 8 0.05 0.04
5 -1 8 0.04 0.04
5 -1 8 0.17 0.05
-5 1 -8 0.07 0.05
5 1 8 0.04 0.05
5 1 8 0.11 0.05
5 1 8 0.07 0.05
6 -1 8 5.71 0.19
6 -1 8 5.95 0.21
-6 -1 -8 6.17 0.2
6 -1 8 6 0.21
6 1 8 5.79 0.2
6 1 8 5.86 0.22
-6 1 -8 6.05 0.2
6 1 8 5.89 0.19
7 -1 8 4.24 0.18
-7 -1 -8 4.21 0.17
7 1 8 4.79 0.2
-7 1 -8 4.37 0.18
7 1 8 4.67 0.18
8 -1 8 20.14 0.4
-8 -1 -8 20.55 0.35
8 1 8 20.77 0.44
8 1 8 20.25 0.4
-8 1 -8 20.67 0.36
-9 -1 -8 3.01 0.13
9 -1 8 2.96 0.17
9 1 8 2.88 0.17
-9 1 -8 2.66 0.13
9 1 8 3.04 0.19
10 -1 8 -0.06 0.07
10 1 8 -0.05 0.07
10 1 8 -0.03 0.07
11 -1 8 1.01 0.13
11 1 8 1 0.14
11 1 8 1.17 0.16
12 -1 8 2.55 0.19
12 1 8 2.79 0.22
12 1 8 2.74 0.2
-14 2 8 0.3 0.11
-13 2 8 29.36 0.68
-13 2 8 30.79 0.68
-12 2 8 11.98 0.41
-12 2 8 11 0.39
-11 2 8 4.16 0.24
-11 2 8 4.05 0.25
-11 2 8 3.95 0.22
-10 2 8 2.71 0.2
-10 2 8 2.47 0.18
-10 2 8 2.62 0.2
-9 2 8 3.5 0.19
-9 2 8 3.89 0.21
-8 2 8 0.96 0.12
-8 2 8 1.21 0.13
-7 -2 8 1.05 0.11
-7 2 8 1.01 0.11
-7 2 8 1.13 0.12
-6 -2 8 0.31 0.07
-6 -2 8 0.23 0.06
-6 2 8 0.13 0.06
-6 2 8 0.32 0.07
-5 -2 8 59.64 0.77
-5 -2 8 61.01 0.78
-5 2 8 58.3 0.79
-5 2 8 59.8 0.74
-4 -2 8 76.88 0.92
-4 -2 8 76.61 0.91
-4 2 8 77.07 0.86
-4 2 8 76.96 0.94
-3 -2 8 33.44 0.51
-3 -2 8 33.25 0.52
-3 2 8 32.25 0.57
-3 2 8 33.67 0.53
-3 2 8 34.19 0.53
-2 -2 8 21.05 0.38
-2 -2 8 21.29 0.39
-2 2 8 21.73 0.39
-2 2 8 21.35 0.39
-1 -2 8 102.76 1.12
-1 -2 8 99.64 1.1
-1 2 8 102.25 1.12
-1 2 8 100.15 1.11
0 -2 8 13.41 0.18
0 -2 8 13.99 0.3
0 2 8 13.47 0.29
0 2 8 13.1 0.2
0 2 8 13.76 0.3
1 -2 8 7.53 0.18
1 -2 8 7.84 0.22
1 -2 8 7.55 0.22
1 -2 8 7.62 0.16
1 2 8 7.65 0.21
1 2 8 7.74 0.22
1 2 8 7.48 0.24
1 2 8 7.65 0.17
2 -2 8 6.16 0.2
2 -2 8 5.99 0.16
2 -2 8 6.14 0.2
2 -2 8 6.2 0.17
2 2 8 5.93 0.16
2 2 8 5.96 0.16
2 2 8 6.07 0.19
2 2 8 6.04 0.19
2 2 8 6.09 0.15
3 -2 8 6.19 0.17
3 -2 8 6.54 0.21
3 -2 8 6.4 0.18
3 -2 8 6.48 0.21
-3 -2 -8 6.35 0.19
3 2 8 6.63 0.19
-3 2 -8 6.02 0.21
3 2 8 6.17 0.19
3 2 8 6.43 0.16
3 2 8 6.41 0.18
4 -2 8 3.38 0.14
4 -2 8 3.33 0.16
4 -2 8 3.42 0.16
4 -2 8 3.42 0.15
-4 -2 -8 3.26 0.15
4 2 8 3.28 0.14
4 2 8 3.55 0.15
-4 2 -8 3.45 0.15
4 2 8 3.33 0.13
5 -2 8 3.01 0.15
5 -2 8 3.06 0.16
5 -2 8 3.06 0.14
5 -2 8 2.99 0.16
-5 -2 -8 2.96 0.14
5 2 8 3.01 0.14
-5 2 -8 3 0.15
5 2 8 2.98 0.13
5 2 8 2.98 0.15
6 -2 8 6.18 0.22
6 -2 8 5.62 0.19
-6 -2 -8 6.24 0.2
6 -2 8 6.16 0.23
6 -2 8 6.05 0.22
6 2 8 5.83 0.21
-6 2 -8 5.79 0.2
7 -2 8 0.81 0.11
7 -2 8 0.88 0.11
-7 -2 -8 0.75 0.09
7 2 8 0.82 0.11
-7 2 -8 0.77 0.1
8 -2 8 3.63 0.18
-8 -2 -8 3.71 0.16
-8 2 -8 3.71 0.16
8 2 8 3.9 0.2
9 -2 8 0.07 0.07
-9 -2 -8 0.05 0.05
9 2 8 0.13 0.08
-9 2 -8 0.05 0.06
10 -2 8 13.7 0.36
10 2 8 13.55 0.4
11 -2 8 0.08 0.08
11 2 8 0.15 0.09
11 2 8 0.09 0.09
12 -2 8 1.58 0.16
12 2 8 1.62 0.17
12 2 8 1.68 0.2
-14 3 8 2.5 0.25
-13 3 8 2.26 0.23
-13 3 8 1.9 0.21
-12 3 8 0.63 0.14
-12 3 8 0.78 0.13
-12 3 8 0.56 0.13
-11 3 8 1.44 0.16
-11 3 8 1.68 0.19
-11 3 8 1.61 0.19
-10 3 8 5.43 0.27
-10 3 8 5.93 0.25
-10 3 8 4.96 0.25
-9 3 8 4.92 0.24
-9 3 8 4.22 0.21
-8 3 8 5.64 0.23
-8 3 8 5.45 0.23
-7 3 8 0.67 0.1
-7 3 8 0.45 0.08
-6 -3 8 3.73 0.18
-6 -3 8 3.91 0.17
-6 3 8 4.26 0.27
-6 3 8 3.76 0.17
-6 3 8 3.6 0.18
-5 -3 8 16.26 0.35
-5 -3 8 16.7 0.34
-5 3 8 17.26 0.4
-5 3 8 16.39 0.34
-5 3 8 16.67 0.37
-4 -3 8 15.07 0.33
-4 -3 8 14.64 0.32
-4 3 8 14.79 0.3
-4 3 8 15.25 0.33
-4 3 8 15.1 0.34
-3 -3 8 1.52 0.11
-3 -3 8 1.06 0.1
-3 3 8 1.28 0.09
-3 3 8 1.58 0.12
-3 3 8 1.4 0.11
-2 -3 8 19.73 0.37
-2 -3 8 20.47 0.37
-2 3 8 20.39 0.38
-2 3 8 19.52 0.41
-2 3 8 20.07 0.32
-1 -3 8 5.15 0.18
-1 -3 8 5.69 0.19
-1 3 8 5.49 0.19
-1 3 8 5.51 0.15
-1 3 8 5.59 0.19
-1 3 8 5.37 0.09
0 -3 8 139.79 1.25
0 -3 8 138.68 1.46
0 -3 8 142.55 1.46
0 3 8 138.49 1.28
0 3 8 141.23 1.44
0 3 8 140.4 1.44
0 3 8 143.09 1.36
1 -3 8 57.73 0.63
1 -3 8 59.45 0.76
1 -3 8 59.24 0.76
1 3 8 58.59 0.68
1 3 8 59.4 0.74
1 3 8 59.78 0.65
1 3 8 58.94 0.73
2 -3 8 24.22 0.36
2 -3 8 24 0.43
2 -3 8 24.05 0.38
2 -3 8 24.52 0.43
2 3 8 23.87 0.36
2 3 8 23.92 0.38
-3 -3 -8 3.98 0.16
3 -3 8 4.24 0.16
3 -3 8 3.94 0.17
3 -3 8 4.24 0.18
3 -3 8 4.52 0.16
3 3 8 4.31 0.13
3 3 8 4.05 0.15
3 3 8 4.28 0.16
4 -3 8 11.52 0.3
4 -3 8 11.67 0.28
4 -3 8 11.81 0.3
-4 -3 -8 11.96 0.27
4 -3 8 11.6 0.26
-4 3 -8 12.19 0.27
4 3 8 12.21 0.28
4 3 8 11.58 0.27
5 -3 8 11.01 0.29
5 -3 8 11.51 0.31
5 -3 8 11.06 0.26
-5 -3 -8 11.1 0.27
5 -3 8 11.05 0.3
-5 3 -8 10.78 0.27
5 3 8 11.66 0.28
5 3 8 11.43 0.28
6 -3 8 2.6 0.16
-6 -3 -8 2.77 0.15
6 -3 8 2.74 0.16
6 -3 8 2.99 0.15
6 -3 8 2.75 0.17
-6 3 -8 2.75 0.15
6 3 8 2.71 0.16
7 -3 8 0.87 0.11
7 -3 8 0.84 0.11
7 -3 8 1.08 0.11
-7 -3 -8 0.79 0.09
7 3 8 1.08 0.12
-7 3 -8 0.78 0.1
-8 -3 -8 1.32 0.11
8 -3 8 1.33 0.14
8 -3 8 1.17 0.14
-8 3 -8 1.47 0.13
8 3 8 1.22 0.14
9 -3 8 34.01 0.76
-9 -3 -8 36.18 0.44
9 -3 8 36.33 0.6
9 3 8 36.65 0.66
-9 3 -8 36.8 0.5
10 -3 8 3.93 0.22
10 3 8 4.42 0.24
11 -3 8 0.68 0.12
11 3 8 0.69 0.13
12 -3 8 0.63 0.12
12 3 8 0.41 0.12
-13 4 8 4.68 0.26
-13 4 8 4.18 0.29
-13 4 8 4.6 0.28
-12 4 8 1.67 0.18
-12 4 8 1.77 0.21
-12 4 8 1.88 0.21
-11 4 8 -0.07 0.08
-11 4 8 -0.17 0.07
-11 4 8 0.14 0.09
-10 4 8 0.16 0.09
-10 4 8 0.16 0.1
-10 4 8 0.19 0.08
-9 4 8 3.61 0.22
-9 4 8 3.72 0.21
-8 4 8 0.38 0.09
-8 4 8 0.78 0.12
-8 4 8 0.61 0.1
-7 4 8 5.18 0.23
-7 4 8 4.99 0.22
-7 4 8 4.96 0.21
-6 4 8 0.8 0.1
-6 4 8 0.7 0.1
-6 4 8 0.73 0.1
-5 -4 8 27.26 0.47
-5 4 8 27.27 0.46
-5 4 8 27.34 0.49
-5 4 8 26.42 0.46
-4 -4 8 8.51 0.24
-4 -4 8 8.45 0.23
-4 4 8 9.01 0.26
-4 4 8 8.48 0.23
-4 4 8 8.69 0.23
-3 -4 8 7.02 0.21
-3 -4 8 6.96 0.22
-3 4 8 6.93 0.19
-3 4 8 6.84 0.2
-3 4 8 6.5 0.22
-2 -4 8 1.22 0.1
-2 -4 8 1.32 0.1
-2 4 8 1.26 0.11
-2 4 8 1.17 0.09
-2 4 8 1.04 0.08
-1 -4 8 13.95 0.31
-1 -4 8 14.96 0.32
-1 4 8 14.63 0.26
-1 4 8 14.6 0.31
-1 4 8 14.26 0.28
-1 4 8 14.39 0.19
0 -4 8 15.26 0.21
0 -4 8 15.34 0.33
0 -4 8 15.93 0.33
0 4 8 15.38 0.27
0 4 8 15.39 0.29
0 4 8 15.19 0.31
0 4 8 15.09 0.24
0 4 8 15.64 0.32
1 -4 8 5.66 0.15
1 -4 8 5.54 0.2
1 -4 8 5.29 0.2
1 4 8 5.69 0.16
1 4 8 5.56 0.15
1 4 8 6.09 0.18
2 -4 8 6.79 0.18
2 -4 8 6.81 0.22
2 -4 8 6.63 0.22
2 4 8 6.65 0.19
2 4 8 6.71 0.18
2 4 8 6.73 0.18
3 -4 8 4.69 0.17
-3 -4 -8 4.49 0.17
3 -4 8 4.95 0.2
3 -4 8 4.75 0.17
3 -4 8 4.8 0.2
3 4 8 4.68 0.17
3 4 8 4.7 0.17
3 4 8 4.66 0.16
4 -4 8 0.24 0.06
4 -4 8 0.21 0.07
-4 -4 -8 0.22 0.07
4 -4 8 0.18 0.06
4 -4 8 0.19 0.06
4 4 8 0.29 0.07
-4 4 -8 0.2 0.06
4 4 8 0.26 0.06
4 4 8 0.23 0.06
5 -4 8 0.29 0.07
5 -4 8 0.78 0.1
5 -4 8 0.31 0.08
-5 -4 -8 0.41 0.08
5 -4 8 0.34 0.08
5 4 8 0.3 0.07
-5 4 -8 0.33 0.08
5 4 8 0.52 0.09
-6 -4 -8 0.13 0.07
6 -4 8 0.06 0.06
6 -4 8 0.09 0.06
6 -4 8 0.08 0.06
6 -4 8 0 0.05
6 4 8 0.06 0.06
-6 4 -8 0.12 0.07
7 -4 8 2.23 0.16
-7 -4 -8 1.99 0.13
7 -4 8 2.05 0.21
7 -4 8 2.01 0.16
7 -4 8 2.22 0.15
-7 4 -8 2.24 0.15
7 4 8 2.28 0.17
8 -4 8 7.08 0.28
8 -4 8 7.11 0.28
8 -4 8 6.94 0.25
-8 -4 -8 6.75 0.19
-8 4 -8 7.44 0.22
8 4 8 7.29 0.28
9 -4 8 1.4 0.16
9 -4 8 1.24 0.14
-9 4 -8 1.11 0.1
9 4 8 1.41 0.16
10 -4 8 4.12 0.26
10 -4 8 4.99 0.24
10 4 8 4.79 0.26
11 -4 8 1.14 0.15
11 4 8 1.23 0.17
12 -4 8 1.07 0.14
12 4 8 0.87 0.15
-13 5 8 4.92 0.26
-13 5 8 4.8 0.3
-12 5 8 1.76 0.22
-12 5 8 1.59 0.18
-12 5 8 1.86 0.22
-11 5 8 0.67 0.14
-11 5 8 0.57 0.12
-11 5 8 0.48 0.12
-10 5 8 11.22 0.4
-10 5 8 10.73 0.39
-10 5 8 10.69 0.36
-9 5 8 2.42 0.22
-9 5 8 2.34 0.18
-8 5 8 14.54 0.4
-8 5 8 13.72 0.38
-7 5 8 9.49 0.31
-7 5 8 8.78 0.3
-7 5 8 9.36 0.3
-6 5 8 5.09 0.21
-6 5 8 5.19 0.22
-6 5 8 4.68 0.21
-5 5 8 6.6 0.24
-5 5 8 6.64 0.22
-5 5 8 6.12 0.22
-4 -5 8 30.31 0.5
-4 5 8 31.35 0.53
-4 5 8 31.09 0.5
-4 5 8 30.69 0.49
-3 -5 8 18.25 0.36
-3 -5 8 17.7 0.37
-3 5 8 18.84 0.35
-3 5 8 18.46 0.36
-3 5 8 18.54 0.38
-2 -5 8 5.14 0.19
-2 -5 8 4.99 0.18
-2 5 8 5.19 0.17
-2 5 8 4.91 0.19
-2 5 8 5.29 0.17
-1 -5 8 4.13 0.17
-1 -5 8 4.37 0.18
-1 5 8 4.49 0.15
-1 5 8 4.21 0.16
-1 5 8 4.37 0.17
-1 5 8 4.26 0.1
0 -5 8 3.7 0.09
0 -5 8 3.81 0.17
0 -5 8 3.31 0.16
0 5 8 3.86 0.14
0 5 8 3.96 0.15
0 5 8 3.94 0.12
1 -5 8 5.47 0.2
1 -5 8 5.55 0.15
1 -5 8 5.41 0.2
1 5 8 5.26 0.16
1 5 8 5.4 0.18
1 5 8 5.59 0.17
2 -5 8 13.96 0.34
2 -5 8 14.94 0.29
-2 -5 -8 13.83 0.33
2 -5 8 14.56 0.34
2 5 8 14.54 0.31
2 5 8 14.66 0.28
2 5 8 15.25 0.3
3 -5 8 6 0.2
3 -5 8 5.69 0.22
3 -5 8 5.95 0.23
-3 -5 -8 5.98 0.2
3 5 8 5.88 0.2
3 5 8 5.68 0.19
3 5 8 5.76 0.19
4 -5 8 4.64 0.18
4 -5 8 4.57 0.21
4 -5 8 4.45 0.19
4 -5 8 4.17 0.2
-4 -5 -8 4.49 0.18
4 5 8 4.47 0.19
-4 5 -8 4.36 0.18
4 5 8 4.51 0.18
4 5 8 4.65 0.18
5 -5 8 6.02 0.25
5 -5 8 6.36 0.23
5 -5 8 6.25 0.25
5 -5 8 6.43 0.22
-5 -5 -8 6.64 0.22
5 5 8 6.07 0.22
-5 5 -8 6.18 0.22
5 5 8 6.7 0.23
5 5 8 6.32 0.23
6 -5 8 7.11 0.28
-6 -5 -8 7.14 0.22
6 -5 8 6.98 0.26
6 -5 8 7.19 0.24
6 -5 8 7.43 0.28
6 5 8 6.73 0.27
-6 5 -8 7.9 0.24
6 5 8 6.81 0.25
7 -5 8 4.94 0.24
7 -5 8 4.73 0.23
-7 -5 -8 4.91 0.18
7 -5 8 5.12 0.22
7 -5 8 4.78 0.24
-7 5 -8 4.78 0.2
7 5 8 4.96 0.23
8 -5 8 2.58 0.19
-8 -5 -8 2.3 0.13
8 -5 8 2.13 0.19
8 -5 8 2.59 0.18
-8 5 -8 2.41 0.15
8 5 8 2.55 0.2
9 -5 8 3.05 0.22
9 -5 8 2.83 0.19
9 -5 8 3.14 0.23
9 5 8 2.84 0.22
-9 5 -8 2.53 0.14
10 -5 8 9.37 0.36
10 -5 8 9.11 0.31
10 5 8 9.16 0.35
11 -5 8 0.14 0.1
11 5 8 0.33 0.11
-13 6 8 1.51 0.21
-13 6 8 1.64 0.19
-12 6 8 0.41 0.13
-12 6 8 0.65 0.15
-12 6 8 0.64 0.15
-11 6 8 5.43 0.32
-11 6 8 5.58 0.28
-11 6 8 6.05 0.32
-10 6 8 9 0.34
-10 6 8 9.46 0.39
-10 6 8 9.16 0.37
-9 6 8 8.72 0.33
-9 6 8 8.95 0.35
-8 6 8 0.37 0.11
-8 6 8 0.32 0.1
-7 6 8 0.66 0.11
-7 6 8 0.82 0.12
-6 6 8 5.04 0.23
-6 6 8 5.49 0.22
-6 6 8 5.02 0.22
-5 6 8 5.66 0.23
-5 6 8 5.56 0.23
-5 6 8 5.52 0.21
-4 6 8 6.75 0.22
-4 6 8 6.67 0.24
-4 6 8 6.68 0.23
-3 -6 8 11.94 0.3
-3 6 8 11.92 0.29
-3 6 8 11.92 0.31
-3 6 8 11.64 0.28
-2 -6 8 0.16 0.05
-2 -6 8 0.22 0.06
-2 6 8 0.09 0.05
-2 6 8 0.16 0.02
-2 6 8 0.14 0.05
-2 6 8 0.14 0.05
-1 -6 8 7.46 0.23
-1 -6 8 7.67 0.24
-1 6 8 7.62 0.22
-1 6 8 7.48 0.21
-1 6 8 7.59 0.15
-1 6 8 7.3 0.23
0 -6 8 1.2 0.06
0 -6 8 1.35 0.11
0 -6 8 1.27 0.12
0 6 8 1.27 0.11
0 6 8 1.29 0.1
0 6 8 1.26 0.08
1 -6 8 1.18 0.12
1 -6 8 1.19 0.12
1 -6 8 1.22 0.09
1 6 8 1.16 0.1
1 6 8 1.24 0.1
1 6 8 1.12 0.09
2 -6 8 5.64 0.22
2 -6 8 5.5 0.22
2 -6 8 5.42 0.18
-2 -6 -8 5.36 0.2
2 6 8 5.16 0.19
2 6 8 5.4 0.19
2 6 8 5.73 0.18
3 -6 8 2.1 0.15
3 -6 8 2.24 0.14
3 -6 8 2.18 0.16
-3 -6 -8 2.19 0.14
3 6 8 2.14 0.13
3 6 8 2.35 0.14
3 6 8 2.31 0.14
4 -6 8 2.58 0.16
4 -6 8 2.81 0.18
-4 -6 -8 2.87 0.16
4 -6 8 3.09 0.18
4 6 8 2.68 0.15
-4 6 -8 2.6 0.16
4 6 8 2.89 0.16
4 6 8 2.61 0.16
5 -6 8 3.55 0.19
5 -6 8 3.5 0.21
-5 -6 -8 3.56 0.18
5 -6 8 3.76 0.21
-5 6 -8 3.54 0.18
5 6 8 3.73 0.19
5 6 8 3.66 0.21
5 6 8 3.5 0.19
6 -6 8 0.59 0.1
6 -6 8 0.63 0.12
6 -6 8 0.62 0.11
6 -6 8 0.56 0.11
-6 -6 -8 0.57 0.09
-6 6 -8 0.41 0.09
6 6 8 0.51 0.1
7 -6 8 1.43 0.16
7 -6 8 1.37 0.15
7 -6 8 1.24 0.16
7 -6 8 1.38 0.14
-7 -6 -8 1.43 0.12
-7 6 -8 1.11 0.12
7 6 8 1.14 0.14
8 -6 8 0.66 0.12
-8 -6 -8 0.8 0.08
8 -6 8 0.91 0.15
8 -6 8 1.12 0.16
-8 6 -8 0.86 0.1
8 6 8 0.7 0.13
9 -6 8 0.89 0.15
9 -6 8 0.69 0.14
9 -6 8 0.9 0.13
9 6 8 0.82 0.14
-9 6 -8 0.76 0.09
10 -6 8 8.68 0.36
10 -6 8 8.22 0.35
10 -6 8 8.06 0.3
10 6 8 8.09 0.33
11 -6 8 3.19 0.25
11 6 8 3.3 0.25
-12 7 8 5.96 0.34
-12 7 8 5.58 0.3
-11 7 8 6.47 0.34
-11 7 8 6.4 0.31
-11 7 8 6.38 0.34
-10 7 8 10.85 0.42
-10 7 8 11.34 0.43
-10 7 8 10.16 0.37
-9 7 8 0.84 0.15
-9 7 8 0.94 0.15
-9 7 8 0.92 0.16
-8 7 8 0.34 0.11
-8 7 8 0.42 0.12
-7 7 8 3.61 0.22
-7 7 8 3.7 0.22
-6 7 8 3.62 0.2
-6 7 8 3.63 0.21
-5 7 8 2.97 0.18
-5 7 8 2.67 0.18
-4 7 8 21.83 0.45
-4 7 8 22.23 0.46
-4 7 8 21.72 0.44
-3 7 8 7.65 0.25
-3 7 8 7.53 0.25
-3 7 8 7.17 0.23
-2 -7 8 0.71 0.09
-2 7 8 0.79 0.1
-2 7 8 0.82 0.1
-2 7 8 0.76 0.09
-2 7 8 0.8 0.05
-1 -7 8 9.38 0.28
-1 -7 8 9.56 0.27
-1 7 8 9.16 0.26
-1 7 8 9.46 0.25
-1 7 8 9.39 0.18
0 -7 8 0.15 0.06
0 -7 8 0.14 0.03
0 -7 8 0.2 0.07
0 7 8 0.07 0.05
0 7 8 0.15 0.05
0 7 8 0.1 0.04
1 -7 8 0.06 0.05
1 -7 8 0.05 0.05
1 -7 8 0.05 0.04
1 7 8 0.05 0.04
1 7 8 0.03 0.04
1 7 8 0.09 0.06
2 -7 8 0.55 0.08
2 -7 8 0.4 0.08
2 -7 8 0.42 0.09
-2 -7 -8 0.48 0.08
2 7 8 0.44 0.08
2 7 8 0.48 0.08
2 7 8 0.58 0.09
3 -7 8 1.39 0.15
3 -7 8 1.42 0.12
-3 -7 -8 1.43 0.13
3 -7 8 1.11 0.13
3 7 8 1.2 0.12
3 7 8 1.21 0.12
3 7 8 1.31 0.12
4 -7 8 3.63 0.21
4 -7 8 3.63 0.22
-4 -7 -8 3.8 0.19
4 -7 8 3.78 0.19
-4 7 -8 3.39 0.18
4 7 8 4.09 0.19
4 7 8 3.82 0.2
5 -7 8 9.43 0.33
-5 -7 -8 9.75 0.28
5 -7 8 9.23 0.3
5 -7 8 9.66 0.34
-5 7 -8 9.28 0.28
5 7 8 9.34 0.3
5 7 8 9.96 0.29
-6 -7 -8 11.41 0.29
6 -7 8 11.06 0.38
6 -7 8 11.2 0.37
6 -7 8 11.68 0.35
-6 7 -8 11.03 0.31
6 7 8 11.64 0.36
7 -7 8 3.04 0.21
7 -7 8 3.25 0.23
7 -7 8 3.18 0.23
-7 -7 -8 3.08 0.16
7 7 8 2.83 0.21
-7 7 -8 3.2 0.19
8 -7 8 3.8 0.26
-8 -7 -8 4.15 0.14
8 -7 8 4.09 0.41
8 -7 8 4.27 0.27
8 7 8 4.21 0.24
-8 7 -8 4.43 0.2
9 -7 8 2.76 0.24
9 -7 8 2.92 0.25
9 -7 8 2.49 0.2
-9 7 -8 2.67 0.14
9 7 8 2.82 0.22
10 -7 8 0.16 0.11
10 -7 8 0.15 0.11
10 7 8 0.17 0.11
-11 8 8 2.17 0.31
-11 8 8 2.19 0.23
-11 8 8 2.82 0.27
-10 8 8 5.23 0.32
-10 8 8 5.12 0.32
-10 8 8 5.06 0.29
-9 8 8 14.89 0.49
-9 8 8 16.13 0.47
-9 8 8 15.37 0.5
-8 8 8 1.57 0.18
-8 8 8 1.49 0.19
-7 8 8 1.1 0.15
-7 8 8 1.24 0.16
-6 8 8 2.52 0.19
-6 8 8 2.22 0.18
-5 8 8 1.53 0.16
-5 8 8 1.46 0.16
-4 8 8 3.99 0.21
-4 8 8 4.19 0.21
-3 8 8 8.94 0.29
-3 8 8 8.78 0.28
-2 8 8 6.92 0.25
-2 8 8 7.29 0.14
-1 -8 8 7.25 0.26
-1 8 8 6.92 0.16
-1 8 8 6.87 0.24
0 -8 8 16.73 0.39
0 -8 8 16.99 0.41
0 -8 8 16.45 0.24
0 8 8 16.69 0.38
0 8 8 16.79 0.29
1 -8 8 7.86 0.27
1 -8 8 8.33 0.29
1 -8 8 8.2 0.2
1 8 8 8.28 0.22
1 8 8 8.21 0.27
2 -8 8 1.82 0.12
2 -8 8 1.59 0.15
2 -8 8 1.82 0.16
-2 -8 -8 1.92 0.16
2 8 8 1.45 0.14
2 8 8 1.86 0.13
3 -8 8 0.5 0.1
3 -8 8 0.48 0.09
-3 -8 -8 0.78 0.11
3 -8 8 0.66 0.12
3 8 8 0.83 0.11
3 8 8 0.69 0.11
4 -8 8 8.59 0.32
4 -8 8 8.88 0.28
4 -8 8 8.7 0.33
-4 -8 -8 8.9 0.28
4 8 8 8.91 0.28
4 8 8 9 0.3
-4 8 -8 8.73 0.27
5 -8 8 13.59 0.41
-5 -8 -8 13.62 0.34
5 -8 8 13.67 0.42
5 -8 8 12.64 0.36
5 8 8 12.81 0.37
5 8 8 13.73 0.35
-5 8 -8 13.44 0.35
6 -8 8 12.45 0.37
6 -8 8 12.16 0.41
6 -8 8 12.12 0.41
-6 -8 -8 12.3 0.31
6 8 8 11.43 0.36
-6 8 -8 12.19 0.33
7 -8 8 2.94 0.21
7 -8 8 3.19 0.25
7 -8 8 3.72 0.25
-7 -8 -8 3.22 0.15
7 8 8 3.3 0.23
-7 8 -8 3.22 0.19
8 -8 8 1.31 0.19
8 -8 8 1.24 0.16
8 -8 8 1 0.17
8 8 8 1.3 0.17
-8 8 -8 1.03 0.11
9 -8 8 6.88 0.34
9 -8 8 6.68 0.34
-9 8 -8 6.32 0.19
9 8 8 6.5 0.31
10 -8 8 0.88 0.17
10 -8 8 0.53 0.14
10 8 8 0.78 0.16
-10 9 8 2.94 0.24
-10 9 8 2.86 0.27
-10 9 8 2.87 0.28
-9 9 8 3.61 0.26
-9 9 8 3.81 0.28
-9 9 8 4.03 0.3
-8 9 8 9.77 0.4
-8 9 8 8.75 0.35
-8 9 8 9.46 0.39
-7 9 8 12.4 0.4
-7 9 8 13.34 0.44
-6 9 8 0.73 0.13
-6 9 8 1 0.16
-5 9 8 0.38 0.1
-5 9 8 0.47 0.12
-4 9 8 6 0.25
-4 9 8 5.73 0.26
-3 9 8 7.25 0.29
-2 9 8 10.34 0.18
-2 9 8 10.64 0.33
-1 9 8 1.18 0.09
-1 9 8 1.69 0.16
0 -9 8 1.7 0.16
0 9 8 1.5 0.14
0 9 8 1.46 0.11
1 -9 8 6.31 0.27
1 -9 8 6.39 0.26
1 -9 8 6.38 0.18
-1 -9 -8 6.13 0.39
1 9 8 6.78 0.21
1 9 8 6.64 0.26
-2 -9 -8 17.96 0.42
2 -9 8 18.17 0.35
2 -9 8 18.25 0.46
2 -9 8 18.02 0.44
2 9 8 18.15 0.43
2 9 8 18.27 0.37
3 -9 8 0.99 0.14
-3 -9 -8 1.02 0.14
3 -9 8 1.23 0.13
3 -9 8 1.15 0.15
3 9 8 1.1 0.12
3 9 8 1.08 0.14
4 -9 8 3.64 0.2
4 -9 8 3.61 0.23
4 -9 8 3.77 0.24
-4 -9 -8 3.67 0.21
4 9 8 3.61 0.2
-4 9 -8 3.93 0.21
4 9 8 3.67 0.22
5 -9 8 5.14 0.28
5 -9 8 5.26 0.25
5 -9 8 5.27 0.28
-5 -9 -8 5.76 0.24
5 9 8 5.97 0.25
5 9 8 5.47 0.27
-5 9 -8 5.77 0.25
6 -9 8 0.74 0.14
6 -9 8 1.04 0.16
-6 -9 -8 0.92 0.11
6 -9 8 0.94 0.13
-6 9 -8 0.72 0.11
6 9 8 0.8 0.14
7 -9 8 1.7 0.2
7 -9 8 1.66 0.2
7 -9 8 2.2 0.19
-7 -9 -8 1.9 0.12
-7 -9 -8 1.91 0.13
-7 9 -8 1.94 0.17
7 9 8 1.58 0.18
8 -9 8 0.24 0.1
8 -9 8 0.32 0.12
8 -9 8 0.43 0.13
-8 9 -8 0.4 0.09
8 9 8 0.33 0.12
9 -9 8 2.42 0.24
9 -9 8 2.26 0.24
9 9 8 1.96 0.21
-9 10 8 1.15 0.18
-9 10 8 0.8 0.18
-9 10 8 1.06 0.19
-8 10 8 4.2 0.27
-8 10 8 4.89 0.3
-8 10 8 4.21 0.3
-7 10 8 1.69 0.2
-7 10 8 1.52 0.18
-7 10 8 1.79 0.21
-6 10 8 2.95 0.24
-6 10 8 2.59 0.21
-5 10 8 0.85 0.14
-5 10 8 0.84 0.15
-4 10 8 0.46 0.12
-3 10 8 6.47 0.28
-2 10 8 3.16 0.21
-2 10 8 3.53 0.11
-1 10 8 3.56 0.21
-1 10 8 3.27 0.13
0 -10 8 7.07 0.36
0 10 8 6.56 0.19
0 10 8 6.39 0.27
-1 -10 -8 5.75 0.26
1 -10 8 5.92 0.27
1 -10 8 6 0.16
1 10 8 6.17 0.27
1 10 8 6.08 0.2
2 -10 8 1.74 0.18
2 -10 8 1.72 0.18
2 -10 8 1.41 0.12
-2 -10 -8 1.32 0.15
2 10 8 1.89 0.18
2 10 8 1.33 0.13
3 -10 8 17.86 0.38
-3 -10 -8 18.07 0.43
3 -10 8 17.64 0.48
3 -10 8 17.95 0.47
3 10 8 17.29 0.38
3 10 8 16.93 0.44
-4 -10 -8 3.67 0.22
4 -10 8 4.09 0.25
4 -10 8 3.78 0.2
4 -10 8 4.09 0.25
4 10 8 3.56 0.2
-4 10 -8 3.86 0.21
4 10 8 3.98 0.24
5 -10 8 0.5 0.12
-5 -10 -8 0.52 0.1
5 -10 8 0.4 0.11
5 -10 8 0.47 0.11
-5 10 -8 0.47 0.1
5 10 8 0.52 0.12
5 10 8 0.52 0.11
6 -10 8 9.83 0.38
6 -10 8 9.27 0.33
6 -10 8 8.64 0.37
-6 -10 -8 9.01 0.26
-6 -10 -8 9.15 0.26
6 10 8 9.45 0.35
-6 10 -8 8.95 0.3
7 -10 8 3.22 0.22
7 -10 8 2.63 0.25
7 -10 8 3.05 0.26
7 10 8 3.19 0.25
-7 10 -8 2.78 0.19
8 -10 8 0.29 0.12
8 -10 8 0.15 0.11
8 10 8 0.01 0.1
-8 11 8 8.22 0.4
-8 11 8 8.57 0.36
-7 11 8 3.42 0.25
-7 11 8 3.71 0.28
-6 11 8 1.34 0.16
-6 11 8 1.37 0.2
-5 11 8 0.52 0.14
-4 11 8 1.18 0.16
-3 11 8 3.79 0.25
-2 11 8 2.35 0.22
-1 11 8 6.33 0.3
-1 11 8 6.6 0.17
0 11 8 0.07 0.05
0 11 8 0.04 0.09
-1 -11 -8 0.24 0.1
1 11 8 0.44 0.12
1 11 8 0.39 0.08
2 -11 8 3.96 0.25
-2 -11 -8 4.1 0.23
2 -11 8 3.8 0.15
2 11 8 4.13 0.24
2 11 8 3.69 0.18
3 -11 8 0.8 0.14
-3 -11 -8 0.88 0.13
3 -11 8 0.77 0.14
3 -11 8 0.63 0.09
3 11 8 0.66 0.11
3 11 8 0.81 0.14
4 -11 8 1.36 0.14
4 -11 8 1.37 0.17
-4 -11 -8 1.33 0.14
4 -11 8 1.54 0.19
4 11 8 1.11 0.16
4 11 8 1.15 0.13
-4 11 -8 1.13 0.13
-5 -11 -8 3.1 0.18
5 -11 8 3.54 0.25
-5 -11 -8 2.91 0.19
5 -11 8 3.3 0.2
5 -11 8 2.69 0.24
-5 11 -8 3.61 0.21
5 11 8 2.85 0.23
5 11 8 3.42 0.2
6 -11 8 5.68 0.31
6 -11 8 5.87 0.31
6 11 8 6.09 0.31
6 11 8 5.22 0.32
-6 12 8 7.45 0.37
-5 12 8 0.55 0.15
-4 12 8 6.08 0.32
-3 12 8 3.09 0.25
-2 12 8 -0.02 0.09
-1 12 8 1.58 0.09
-1 12 8 1.32 0.17
0 -12 -8 1.77 0.18
0 12 8 1.82 0.19
0 12 8 1.7 0.11
-1 -12 -8 2.11 0.19
1 12 8 1.95 0.14
1 12 8 2.12 0.2
-2 -12 -8 1.23 0.15
-2 -12 -8 1.78 0.17
2 12 8 1.62 0.14
2 12 8 1.63 0.19
3 -12 8 0.78 0.14
-3 -12 -8 0.83 0.15
3 -12 8 1.06 0.11
-3 -12 -8 0.72 0.14
-3 12 -8 0.96 0.15
3 12 8 0.91 0.13
3 12 8 0.93 0.15
4 -12 8 0.14 0.1
4 -12 8 0.15 0.09
4 12 8 0.14 0.11
-2 13 8 1.14 0.18
-1 13 8 1.41 0.18
0 13 8 2.78 0.24
1 13 8 2.48 0.22
-9 0 9 13.07 0.35
-8 0 9 6.32 0.24
-7 0 9 5.78 0.23
-6 0 9 1.09 0.12
-5 0 9 11.93 0.31
-5 0 9 12.38 0.32
-4 0 9 37.46 0.59
-4 0 9 35.83 0.58
-3 0 9 36.79 0.57
-3 0 9 35.82 0.57
-2 0 9 7.08 0.23
-2 0 9 7.2 0.23
-1 0 9 47.85 0.67
-1 0 9 47.01 0.66
0 0 9 102.84 1.16
0 0 9 104.74 1.04
0 0 9 101.74 0.94
0 0 9 106.03 1.17
1 0 9 50.54 0.59
1 0 9 49.31 0.69
1 0 9 49.61 0.55
1 0 9 50.25 0.69
2 0 9 18.82 0.31
2 0 9 18.6 0.37
2 0 9 18.97 0.38
2 0 9 18.3 0.31
3 0 9 0.17 0.06
3 0 9 0.19 0.05
3 0 9 0.2 0.06
3 0 9 0.17 0.05
4 0 9 0.19 0.06
4 0 9 0.18 0.06
4 0 9 0.35 0.06
-4 0 -9 0.17 0.06
4 0 9 0.16 0.06
-5 0 -9 0.12 0.06
5 0 9 0.07 0.05
5 0 9 0.13 0.06
5 0 9 0.09 0.05
-6 0 -9 0.65 0.1
6 0 9 0.62 0.09
6 0 9 0.63 0.09
7 0 9 1.5 0.13
-7 0 -9 1.61 0.13
-8 0 -9 6.62 0.21
8 0 9 6.05 0.23
-9 0 -9 11.45 0.26
9 0 9 10.64 0.31
10 0 9 -0.02 0.07
11 0 9 4.72 0.24
12 0 9 1.75 0.17
-11 1 9 4.04 0.24
-10 1 9 5.61 0.25
-10 1 9 5.52 0.26
-9 1 9 12.25 0.35
-8 -1 9 9.2 0.29
-8 1 9 9.44 0.3
-7 -1 9 5.51 0.22
-7 1 9 5.45 0.22
-6 -1 9 0.8 0.1
-6 1 9 0.66 0.1
-5 -1 9 7.34 0.24
-5 -1 9 7.6 0.24
-5 1 9 7.35 0.24
-4 -1 9 14.02 0.33
-4 -1 9 13.89 0.33
-4 1 9 13.85 0.33
-4 1 9 13.71 0.33
-3 -1 9 14.83 0.34
-3 -1 9 15.47 0.35
-3 1 9 15.09 0.34
-3 1 9 14.58 0.34
-2 -1 9 27.29 0.47
-2 -1 9 27.91 0.48
-2 1 9 27.58 0.48
-2 1 9 27.95 0.48
-1 -1 9 21.4 0.41
-1 -1 9 21.84 0.41
-1 1 9 21.37 0.41
-1 1 9 21.73 0.41
0 -1 9 45.36 0.65
0 -1 9 46.44 0.65
0 -1 9 44.89 0.44
0 1 9 46.44 0.65
0 1 9 41 0.63
0 1 9 45.37 0.46
1 -1 9 16.27 0.25
1 -1 9 15.91 0.34
1 -1 9 16.4 0.35
1 -1 9 16.74 0.29
1 1 9 16.35 0.26
1 1 9 16.45 0.35
1 1 9 17.28 0.27
1 1 9 16.8 0.35
2 -1 9 21.3 0.41
2 -1 9 21.13 0.33
2 -1 9 21.26 0.35
2 -1 9 21.08 0.41
2 1 9 21.36 0.4
2 1 9 21.46 0.4
2 1 9 21.92 0.33
2 1 9 21.71 0.34
3 -1 9 19.19 0.39
3 -1 9 18.91 0.39
3 -1 9 19.44 0.34
3 -1 9 19.34 0.33
3 1 9 19.11 0.38
3 1 9 18.98 0.34
3 1 9 19.09 0.32
3 1 9 18.99 0.38
4 -1 9 2.03 0.13
-4 -1 -9 2.17 0.14
4 -1 9 2.02 0.13
4 -1 9 1.92 0.11
4 -1 9 1.76 0.12
-4 1 -9 1.98 0.13
4 1 9 1.68 0.12
4 1 9 1.94 0.11
4 1 9 2.14 0.13
5 -1 9 2.77 0.16
5 -1 9 2.72 0.14
5 -1 9 2.53 0.15
-5 -1 -9 2.62 0.15
5 -1 9 2.72 0.15
5 1 9 2.75 0.15
-5 1 -9 2.9 0.16
5 1 9 2.7 0.13
6 -1 9 4.5 0.18
6 -1 9 4.15 0.19
6 -1 9 4.3 0.19
-6 -1 -9 4.24 0.18
-6 1 -9 4.7 0.19
6 1 9 4.57 0.2
6 1 9 4.41 0.18
6 1 9 4.31 0.17
7 -1 9 5.67 0.24
7 -1 9 5.56 0.21
-7 -1 -9 5.74 0.21
7 1 9 5.78 0.22
-7 1 -9 5.54 0.21
7 1 9 5.23 0.2
-8 -1 -9 1.23 0.11
8 -1 9 1.14 0.12
-8 1 -9 1.26 0.12
8 1 9 1.15 0.13
8 1 9 1.32 0.14
9 -1 9 0.41 0.09
-9 -1 -9 0.37 0.07
9 1 9 0.55 0.11
9 1 9 0.35 0.09
-9 1 -9 0.24 0.07
10 -1 9 1.77 0.16
10 1 9 1.9 0.16
10 1 9 2.26 0.19
11 -1 9 0.5 0.11
11 1 9 0.59 0.12
11 1 9 0.71 0.12
12 -1 9 0.99 0.14
12 1 9 1.29 0.15
12 1 9 0.97 0.15
-13 2 9 0.37 0.1
-12 2 9 17.31 0.49
-11 2 9 2.06 0.18
-11 2 9 2.29 0.22
-11 2 9 1.9 0.2
-10 2 9 6.35 0.26
-10 2 9 5.69 0.27
-9 2 9 14.81 0.4
-9 2 9 13.77 0.38
-8 2 9 22.48 0.47
-8 2 9 23.04 0.48
-7 -2 9 0.14 0.06
-7 2 9 0.15 0.06
-7 2 9 0.17 0.07
-6 -2 9 1.7 0.14
-6 -2 9 1.7 0.13
-6 2 9 1.7 0.12
-6 2 9 1.73 0.14
-5 -2 9 2.69 0.15
-5 -2 9 2.87 0.15
-5 2 9 2.74 0.16
-5 2 9 2.78 0.14
-4 -2 9 2.94 0.16
-4 -2 9 2.54 0.14
-4 2 9 2.87 0.16
-4 2 9 2.56 0.13
-3 -2 9 14 0.32
-3 -2 9 14.48 0.33
-3 2 9 14.24 0.34
-3 2 9 14 0.34
-3 2 9 14.84 0.3
-2 -2 9 22.91 0.43
-2 -2 9 23.69 0.44
-2 2 9 23.61 0.44
-2 2 9 23.87 0.37
-2 2 9 23.02 0.43
-1 -2 9 39.47 0.6
-1 -2 9 39.48 0.59
-1 2 9 39.79 0.6
-1 2 9 39.32 0.6
-1 2 9 40.32 0.5
0 -2 9 11.92 0.3
0 -2 9 12.11 0.3
0 -2 9 11.85 0.16
0 2 9 11.89 0.29
0 2 9 12.47 0.3
0 2 9 11.97 0.18
0 2 9 12.47 0.23
1 -2 9 26.03 0.34
1 -2 9 26.33 0.47
1 -2 9 26.89 0.47
1 2 9 26.43 0.36
1 2 9 26.72 0.46
1 2 9 26.51 0.38
1 2 9 26.49 0.46
2 -2 9 4.47 0.14
2 -2 9 4.17 0.18
2 -2 9 4.28 0.15
2 -2 9 4.4 0.18
2 2 9 4.76 0.18
2 2 9 3.65 0.16
2 2 9 4.38 0.15
2 2 9 4.33 0.15
2 2 9 4.36 0.13
-3 -2 -9 12.65 0.32
3 -2 9 12.89 0.27
3 -2 9 12.76 0.32
3 -2 9 13.11 0.32
3 -2 9 13.18 0.28
3 2 9 13.28 0.25
3 2 9 13.22 0.27
3 2 9 13.13 0.27
3 2 9 12.62 0.31
4 -2 9 6.88 0.24
4 -2 9 6.27 0.23
-4 -2 -9 6.21 0.21
4 -2 9 6.8 0.21
4 -2 9 6.17 0.19
4 2 9 6.32 0.18
4 2 9 6.52 0.2
4 2 9 6.32 0.2
-4 2 -9 6.39 0.21
5 -2 9 2.11 0.13
-5 -2 -9 2.04 0.14
5 -2 9 2.14 0.15
5 -2 9 2.11 0.14
5 -2 9 2.17 0.14
-5 2 -9 2.28 0.14
5 2 9 2.02 0.12
5 2 9 2.09 0.13
5 2 9 2.32 0.14
6 -2 9 2.03 0.15
6 -2 9 2.09 0.15
6 -2 9 2.06 0.14
6 -2 9 2.24 0.15
-6 -2 -9 2.14 0.15
6 2 9 2.1 0.14
-6 2 -9 2.09 0.15
6 2 9 2.11 0.15
6 2 9 2.14 0.13
7 -2 9 6.91 0.26
-7 -2 -9 7.93 0.24
7 -2 9 7.68 0.25
7 -2 9 7.98 0.27
7 2 9 7.81 0.24
7 2 9 7.9 0.26
-7 2 -9 7.86 0.24
8 -2 9 0.43 0.09
-8 -2 -9 0.31 0.08
-8 2 -9 0.56 0.09
8 2 9 0.38 0.1
8 2 9 0.6 0.1
9 -2 9 7.45 0.27
-9 -2 -9 7.28 0.2
9 2 9 7.96 0.3
9 2 9 7.26 0.26
-9 2 -9 7.71 0.22
10 -2 9 3.61 0.21
10 2 9 3.5 0.23
10 2 9 3.55 0.21
11 -2 9 5.19 0.25
11 2 9 5.03 0.25
11 2 9 5.48 0.28
12 -2 9 1.62 0.17
12 2 9 1.95 0.2
12 2 9 2.04 0.19
-13 3 9 0.09 0.09
-13 3 9 0.06 0.09
-12 3 9 8.26 0.32
-12 3 9 7.64 0.34
-12 3 9 8.29 0.36
-11 3 9 4.49 0.26
-11 3 9 4.86 0.28
-11 3 9 4.38 0.24
-10 3 9 0.2 0.08
-10 3 9 0.09 0.08
-9 3 9 3.21 0.21
-9 3 9 3.35 0.21
-8 3 9 5.07 0.23
-8 3 9 5.25 0.23
-7 3 9 1.99 0.15
-7 3 9 2.03 0.15
-6 -3 9 1.17 0.12
-6 -3 9 1.25 0.12
-6 3 9 1.2 0.12
-6 3 9 1.36 0.14
-5 -3 9 2.54 0.15
-5 -3 9 2.74 0.15
-5 3 9 2.65 0.14
-5 3 9 2.8 0.17
-4 -3 9 31.55 0.52
-4 3 9 32.4 0.49
-4 3 9 32.37 0.55
-3 -3 9 4.12 0.17
-3 -3 9 3.99 0.18
-3 3 9 4.09 0.15
-3 3 9 3.79 0.18
-2 -3 9 2.69 0.15
-2 -3 9 2.66 0.15
-2 3 9 2.51 0.14
-2 3 9 2.72 0.12
-2 3 9 2.63 0.16
-1 -3 9 0.57 0.08
-1 -3 9 0.51 0.08
-1 3 9 0.9 0.1
-1 3 9 0.72 0.07
-1 3 9 0.65 0.09
0 -3 9 8.31 0.25
0 -3 9 8.5 0.25
0 -3 9 8.75 0.12
0 3 9 8.5 0.16
0 3 9 8.67 0.25
0 3 9 9.21 0.25
0 3 9 8.65 0.2
1 -3 9 1.66 0.12
1 -3 9 1.59 0.12
1 -3 9 1.64 0.08
1 3 9 1.59 0.11
1 3 9 1.6 0.09
1 3 9 1.58 0.1
1 3 9 1.75 0.12
2 -3 9 7.03 0.2
2 -3 9 6.91 0.23
2 -3 9 6.92 0.24
2 -3 9 6.97 0.18
2 3 9 6.89 0.2
2 3 9 6.89 0.19
-3 -3 -9 6.08 0.2
3 -3 9 6.23 0.19
3 -3 9 6.09 0.23
3 -3 9 6.15 0.23
3 -3 9 6.04 0.19
3 3 9 6.35 0.19
3 3 9 6.42 0.22
3 3 9 6.15 0.19
-4 -3 -9 19.8 0.38
4 -3 9 19.9 0.38
4 -3 9 19.61 0.37
4 -3 9 20 0.43
4 -3 9 20.11 0.43
4 3 9 20.4 0.34
-4 3 -9 20.36 0.38
4 3 9 20.21 0.38
4 3 9 19.27 0.37
5 -3 9 1.68 0.13
5 -3 9 1.53 0.13
5 -3 9 1.51 0.14
-5 -3 -9 1.64 0.13
5 -3 9 1.51 0.14
5 3 9 1.8 0.13
5 3 9 1.33 0.13
-5 3 -9 1.58 0.13
5 3 9 1.5 0.11
6 -3 9 4.05 0.21
6 -3 9 3.71 0.2
6 -3 9 3.77 0.18
-6 -3 -9 3.65 0.18
6 -3 9 3.7 0.19
-6 3 -9 3.71 0.18
6 3 9 3.69 0.19
6 3 9 3.77 0.19
6 3 9 3.64 0.16
7 -3 9 1.19 0.14
7 -3 9 1.3 0.14
-7 -3 -9 1.28 0.12
7 -3 9 1.22 0.13
7 -3 9 1.36 0.15
-7 3 -9 1.14 0.12
7 3 9 1.32 0.13
7 3 9 1.24 0.14
-8 -3 -9 5.24 0.19
8 -3 9 4.65 0.22
8 -3 9 5.17 0.24
8 3 9 4.87 0.24
8 3 9 5.41 0.22
-8 3 -9 5.24 0.2
-9 -3 -9 6.54 0.18
9 -3 9 6.02 0.25
9 3 9 6.41 0.28
-9 3 -9 6.4 0.2
9 3 9 6.28 0.25
10 -3 9 3.37 0.21
10 3 9 3.61 0.23
10 3 9 3.31 0.2
11 -3 9 0.73 0.13
11 3 9 0.96 0.15
11 3 9 0.6 0.12
-13 4 9 1.45 0.19
-13 4 9 1.08 0.15
-13 4 9 1.56 0.28
-12 4 9 5.7 0.31
-12 4 9 5.51 0.3
-12 4 9 6.33 0.29
-11 4 9 0.56 0.12
-11 4 9 0.72 0.14
-11 4 9 0.43 0.12
-10 4 9 3.84 0.26
-10 4 9 3.95 0.24
-10 4 9 3.68 0.23
-9 4 9 16.09 0.43
-9 4 9 15.57 0.44
-8 4 9 0.59 0.11
-8 4 9 0.51 0.11
-7 4 9 1.97 0.16
-7 4 9 2.26 0.16
-6 4 9 1.01 0.12
-6 4 9 1.13 0.13
-5 -4 9 3.31 0.17
-5 -4 9 3.21 0.16
-5 4 9 3.51 0.17
-5 4 9 3.48 0.18
-4 -4 9 4.42 0.18
-4 -4 9 4.42 0.19
-4 4 9 4.5 0.2
-4 4 9 4.69 0.18
-3 -4 9 18.51 0.38
-3 -4 9 18.04 0.39
-3 4 9 18.42 0.35
-3 4 9 18.32 0.4
-2 -4 9 22.96 0.43
-2 -4 9 22.86 0.44
-2 4 9 23.43 0.44
-2 4 9 23.57 0.39
-1 -4 9 5.08 0.2
-1 -4 9 5.26 0.2
-1 4 9 5.05 0.17
-1 4 9 5.02 0.19
-1 4 9 4.94 0.09
0 -4 9 4.6 0.19
0 -4 9 4.34 0.18
0 4 9 4.37 0.12
0 4 9 4.41 0.18
0 4 9 4.34 0.15
0 4 9 4.23 0.18
1 -4 9 10.84 0.29
1 -4 9 11.05 0.2
1 -4 9 10.74 0.3
1 4 9 10.94 0.22
1 4 9 11.08 0.25
2 -4 9 9 0.28
2 -4 9 8.69 0.21
2 -4 9 8.73 0.27
2 4 9 8.43 0.21
2 4 9 8.74 0.23
3 -4 9 2.13 0.14
3 -4 9 1.99 0.12
-3 -4 -9 1.89 0.13
3 -4 9 1.93 0.14
3 -4 9 2.11 0.15
3 4 9 1.91 0.12
3 4 9 2.17 0.13
4 -4 9 3.69 0.19
4 -4 9 3.92 0.17
4 -4 9 3.91 0.17
4 -4 9 3.76 0.2
-4 -4 -9 4 0.18
-4 4 -9 3.94 0.18
4 4 9 4.04 0.18
4 4 9 3.58 0.17
5 -4 9 0.04 0.06
5 -4 9 0.14 0.07
-5 -4 -9 0.29 0.08
5 -4 9 0.02 0.05
5 -4 9 0.05 0.06
5 4 9 0.13 0.06
5 4 9 0.11 0.06
5 4 9 0.03 0.05
-5 4 -9 0.05 0.07
6 -4 9 5.86 0.25
6 -4 9 6.25 0.23
6 -4 9 6.12 0.26
-6 -4 -9 6.47 0.23
6 -4 9 6.27 0.24
6 4 9 6.37 0.24
-6 4 -9 6.13 0.23
6 4 9 6.07 0.23
7 -4 9 1.73 0.18
7 -4 9 2.21 0.17
7 -4 9 2.04 0.18
7 -4 9 1.74 0.14
-7 -4 -9 1.98 0.15
-7 4 -9 1.68 0.14
7 4 9 1.87 0.16
8 -4 9 0.24 0.09
8 -4 9 0.45 0.11
-8 -4 -9 0.25 0.07
8 -4 9 0.29 0.09
8 4 9 0.31 0.1
-8 4 -9 0.31 0.08
-9 -4 -9 1.51 0.1
9 -4 9 1.35 0.16
9 -4 9 1.53 0.16
-9 4 -9 1.08 0.11
9 4 9 1.38 0.16
10 -4 9 7.22 0.28
10 4 9 6.54 0.3
11 -4 9 16.94 0.44
11 4 9 17.46 0.48
11 4 9 17.51 0.44
-13 5 9 0.79 0.16
-13 5 9 0.88 0.15
-12 5 9 4.86 0.3
-12 5 9 4.47 0.29
-12 5 9 4.54 0.26
-11 5 9 0.82 0.15
-11 5 9 0.75 0.15
-11 5 9 0.97 0.15
-10 5 9 9.88 0.38
-10 5 9 10.71 0.37
-10 5 9 10.62 0.4
-9 5 9 27.49 0.6
-9 5 9 27.74 0.58
-8 5 9 1.65 0.17
-8 5 9 1.66 0.17
-7 5 9 6.27 0.26
-7 5 9 6.42 0.26
-6 5 9 10.19 0.32
-6 5 9 10.36 0.31
-5 5 9 2.18 0.15
-5 5 9 2.65 0.17
-4 -5 9 47.84 0.69
-4 -5 9 48.18 0.7
-4 5 9 48.52 0.73
-4 5 9 48.28 0.68
-3 -5 9 66 0.86
-3 -5 9 66.91 0.88
-3 5 9 66.19 0.83
-3 5 9 66.78 0.89
-2 -5 9 6.71 0.24
-2 -5 9 6.7 0.23
-2 5 9 6.99 0.24
-2 5 9 7.14 0.22
-1 -5 9 3.47 0.18
-1 -5 9 3.19 0.16
-1 5 9 3.14 0.16
-1 5 9 3.42 0.08
-1 5 9 3.62 0.15
0 -5 9 5.07 0.2
0 -5 9 5.1 0.21
0 5 9 5.26 0.13
0 5 9 4.97 0.18
1 -5 9 17.39 0.4
1 -5 9 17.74 0.4
1 -5 9 17.92 0.28
1 5 9 18.51 0.3
1 5 9 17.86 0.35
2 -5 9 0.42 0.06
2 -5 9 0.39 0.08
2 -5 9 0.6 0.1
2 5 9 0.48 0.08
2 5 9 0.5 0.07
-3 -5 -9 0.88 0.1
3 -5 9 1.03 0.13
3 -5 9 0.81 0.11
3 -5 9 0.98 0.1
3 5 9 0.83 0.1
3 5 9 0.97 0.1
4 -5 9 3.33 0.2
4 -5 9 3.52 0.17
4 -5 9 3.72 0.2
-4 -5 -9 3.62 0.18
-4 5 -9 3.31 0.17
4 5 9 3.79 0.18
4 5 9 3.47 0.17
5 -5 9 9.08 0.31
-5 -5 -9 8.98 0.27
5 -5 9 9.38 0.28
5 -5 9 9.33 0.28
5 -5 9 8.8 0.31
5 5 9 9.12 0.27
5 5 9 9.15 0.28
-5 5 -9 9.45 0.28
6 -5 9 6.45 0.24
6 -5 9 6.33 0.28
-6 -5 -9 6.28 0.23
6 -5 9 6.39 0.28
6 -5 9 6.38 0.25
6 5 9 6.07 0.25
6 5 9 6.35 0.24
-6 5 -9 6.46 0.24
7 -5 9 0.17 0.08
7 -5 9 0.06 0.08
7 -5 9 0.19 0.09
7 -5 9 0.14 0.09
-7 -5 -9 0.05 0.07
-7 5 -9 0.08 0.08
7 5 9 0.14 0.08
-8 -5 -9 0.15 0.06
8 -5 9 0.25 0.09
8 -5 9 0.13 0.09
8 -5 9 0.18 0.09
8 -5 9 0.13 0.09
-8 5 -9 0.15 0.07
8 5 9 0.28 0.1
9 -5 9 0.19 0.1
9 -5 9 0.14 0.09
9 -5 9 0.12 0.1
9 5 9 0.14 0.09
-9 5 -9 0.13 0.07
10 -5 9 3.59 0.25
10 -5 9 3.88 0.24
10 5 9 4 0.25
11 -5 9 3.52 0.23
11 5 9 3.06 0.24
-12 6 9 0.8 0.15
-12 6 9 0.77 0.16
-11 6 9 0.06 0.1
-11 6 9 0.28 0.1
-11 6 9 0.16 0.1
-10 6 9 9.45 0.36
-10 6 9 10.03 0.4
-10 6 9 10.13 0.4
-9 6 9 17.54 0.49
-9 6 9 16.98 0.46
-8 6 9 31.33 0.63
-8 6 9 32.44 0.65
-7 6 9 2.51 0.19
-7 6 9 2.51 0.19
-6 6 9 3.63 0.2
-6 6 9 3.48 0.2
-5 6 9 15.36 0.38
-5 6 9 14.87 0.39
-4 -6 9 1.9 0.23
-4 6 9 2.01 0.14
-4 6 9 1.93 0.15
-3 -6 9 9.57 0.28
-3 -6 9 9.59 0.28
-3 6 9 9.73 0.27
-3 6 9 9.12 0.28
-2 -6 9 0.73 0.1
-2 -6 9 0.93 0.11
-2 6 9 0.74 0.1
-2 6 9 0.92 0.1
-1 -6 9 2.16 0.15
-1 -6 9 1.98 0.14
-1 6 9 2.27 0.08
-1 6 9 2.2 0.13
0 -6 9 19.98 0.44
0 -6 9 19.16 0.42
0 6 9 20.29 0.3
0 6 9 19.18 0.38
1 -6 9 10.06 0.31
1 -6 9 10.37 0.2
1 -6 9 10.52 0.31
1 6 9 10.33 0.27
1 6 9 10.4 0.23
2 -6 9 0.74 0.08
2 -6 9 0.84 0.12
2 -6 9 0.87 0.12
2 6 9 0.66 0.09
2 6 9 0.91 0.09
3 -6 9 3.18 0.16
-3 -6 -9 3.3 0.18
3 -6 9 3.5 0.2
3 -6 9 3.28 0.2
3 6 9 3.29 0.17
3 6 9 3.45 0.16
-4 -6 -9 0.37 0.09
4 -6 9 0.46 0.08
4 -6 9 0.34 0.09
4 -6 9 0.42 0.1
4 6 9 0.52 0.09
-4 6 -9 0.34 0.09
4 6 9 0.41 0.09
5 -6 9 10.76 0.35
5 -6 9 10.69 0.31
5 -6 9 10.12 0.35
-5 -6 -9 10.96 0.3
5 6 9 10.27 0.31
-5 6 -9 11.12 0.31
5 6 9 10.43 0.3
6 -6 9 7.81 0.31
6 -6 9 7.28 0.28
-6 -6 -9 7.23 0.25
6 -6 9 7.28 0.3
-6 6 -9 7.18 0.27
6 6 9 7.35 0.27
6 6 9 7.19 0.28
7 -6 9 2.03 0.17
7 -6 9 2.1 0.2
7 -6 9 2.2 0.2
-7 -6 -9 2.08 0.15
7 -6 9 2.23 0.19
-7 6 -9 2.26 0.18
7 6 9 1.84 0.17
8 -6 9 0.63 0.13
8 -6 9 0.74 0.13
-8 -6 -9 0.7 0.09
8 -6 9 0.77 0.15
8 -6 9 0.85 0.13
-8 6 -9 0.73 0.11
8 6 9 0.74 0.13
9 -6 9 3.12 0.23
9 -6 9 3.32 0.25
9 -6 9 3.51 0.23
9 6 9 3.4 0.23
-9 6 -9 2.88 0.16
10 -6 9 2.94 0.24
10 -6 9 2.69 0.21
10 -6 9 2.57 0.24
10 6 9 2.15 0.21
-11 7 9 1.11 0.18
-11 7 9 1.25 0.2
-11 7 9 1.15 0.17
-10 7 9 0.13 0.1
-10 7 9 0.01 0.08
-10 7 9 0.11 0.11
-9 7 9 1.05 0.16
-9 7 9 1.07 0.16
-8 7 9 12.16 0.39
-8 7 9 12.01 0.41
-7 7 9 5.79 0.27
-7 7 9 5.15 0.27
-6 7 9 4.81 0.24
-6 7 9 5.09 0.25
-5 7 9 0.05 0.07
-5 7 9 0.04 0.07
-4 7 9 1.92 0.16
-4 7 9 2 0.16
-4 7 9 2.03 0.24
-3 -7 9 11.33 0.33
-3 7 9 11.61 0.32
-3 7 9 11.1 0.32
-3 7 9 11.36 0.3
-2 -7 9 17.56 0.41
-2 -7 9 17.24 0.39
-2 7 9 18.57 0.4
-2 7 9 17.39 0.37
-2 7 9 17.01 0.44
-1 -7 9 8.03 0.28
-1 -7 9 8.31 0.27
-1 7 9 7.91 0.24
-1 7 9 8.29 0.26
-1 7 9 8.3 0.16
0 -7 9 2.54 0.17
0 -7 9 2.86 0.18
0 7 9 2.6 0.16
0 7 9 2.65 0.14
0 7 9 2.89 0.12
1 -7 9 0.42 0.09
1 -7 9 0.47 0.06
1 -7 9 0.42 0.09
1 7 9 0.51 0.08
1 7 9 0.42 0.07
1 7 9 0.55 0.09
2 -7 9 0.69 0.11
2 -7 9 0.84 0.09
2 -7 9 0.74 0.12
-2 -7 -9 0.75 0.14
2 7 9 0.92 0.11
2 7 9 1.05 0.1
2 7 9 0.98 0.15
3 -7 9 14.68 0.41
-3 -7 -9 15.82 0.37
3 -7 9 15.37 0.33
3 -7 9 15 0.41
3 7 9 15.21 0.33
3 7 9 15.67 0.38
4 -7 9 0.29 0.1
-4 -7 -9 0.21 0.08
4 -7 9 0.22 0.07
4 -7 9 0.38 0.1
4 7 9 0.1 0.07
-4 7 -9 0.11 0.08
4 7 9 -0.06 0.07
5 -7 9 0.95 0.12
5 -7 9 0.64 0.13
-5 -7 -9 0.91 0.12
5 -7 9 1 0.15
-5 7 -9 1.03 0.13
5 7 9 0.89 0.12
5 7 9 0.79 0.13
6 -7 9 8.81 0.31
-6 -7 -9 9.16 0.28
6 -7 9 9.17 0.35
6 -7 9 8.48 0.34
6 7 9 8.61 0.32
6 7 9 9.15 0.31
-6 7 -9 8.41 0.29
7 -7 9 0.7 0.12
7 -7 9 0.55 0.13
-7 -7 -9 0.49 0.09
7 -7 9 0.61 0.14
-7 7 -9 0.72 0.12
7 7 9 0.4 0.11
8 -7 9 0.64 0.12
8 -7 9 0.53 0.13
-8 -7 -9 0.42 0.07
8 -7 9 0.85 0.15
8 7 9 0.3 0.11
-8 7 -9 0.3 0.09
9 -7 9 0.42 0.12
9 -7 9 0.6 0.12
9 -7 9 0.7 0.14
9 7 9 0.49 0.13
-9 7 -9 0.51 0.08
10 -7 9 4.99 0.3
10 -7 9 4.7 0.29
10 7 9 4.57 0.27
-11 8 9 0.71 0.15
-11 8 9 0.71 0.14
-10 8 9 1.93 0.23
-10 8 9 2.18 0.23
-10 8 9 1.83 0.22
-9 8 9 12.27 0.42
-9 8 9 12.27 0.45
-9 8 9 11.8 0.44
-8 8 9 8.82 0.37
-8 8 9 8.65 0.35
-7 8 9 1.13 0.16
-7 8 9 1.04 0.16
-6 8 9 6.77 0.29
-6 8 9 7.11 0.3
-5 8 9 6.57 0.28
-5 8 9 6.62 0.27
-4 8 9 1.37 0.15
-4 8 9 1.33 0.15
-3 8 9 2.4 0.17
-3 8 9 2.17 0.16
-2 -8 9 10.15 0.31
-2 8 9 10.51 0.31
-1 -8 9 6.77 0.26
-1 -8 9 6.82 0.26
-1 8 9 6.8 0.25
-1 8 9 7.04 0.15
0 -8 9 1.07 0.13
0 -8 9 1.27 0.14
0 8 9 1.06 0.09
0 8 9 0.99 0.12
1 -8 9 3.54 0.12
1 -8 9 3.68 0.21
1 -8 9 3.58 0.21
1 8 9 3.84 0.15
1 8 9 3.91 0.2
2 -8 9 4.12 0.16
2 -8 9 4.51 0.24
-2 -8 -9 4.45 0.22
2 -8 9 4.29 0.23
2 8 9 4.54 0.18
2 8 9 4.82 0.22
3 -8 9 13.94 0.42
-3 -8 -9 13.59 0.36
3 -8 9 13.71 0.32
3 -8 9 13.75 0.41
3 8 9 13.7 0.32
3 8 9 13.56 0.37
4 -8 9 16.01 0.38
-4 -8 -9 15.84 0.39
4 -8 9 16.2 0.45
4 -8 9 15.84 0.45
4 8 9 15.57 0.36
-4 8 -9 15.16 0.38
4 8 9 16.15 0.42
5 -8 9 16.37 0.47
5 -8 9 15.6 0.39
-5 -8 -9 16.2 0.39
5 -8 9 15.69 0.46
5 8 9 15.77 0.38
5 8 9 15.58 0.42
-5 8 -9 16.33 0.39
6 -8 9 7.03 0.33
-6 -8 -9 7.16 0.25
6 -8 9 7.01 0.33
6 -8 9 7.45 0.29
6 8 9 7.44 0.3
6 8 9 7.44 0.28
-6 8 -9 6.91 0.27
7 -8 9 1.07 0.17
7 -8 9 1.57 0.19
-7 -8 -9 2 0.14
7 -8 9 1.28 0.15
7 8 9 1.86 0.19
-7 8 -9 1.47 0.15
8 -8 9 0.15 0.08
8 -8 9 0.08 0.1
8 -8 9 -0.01 0.1
-8 8 -9 0.07 0.08
8 8 9 -0.02 0.09
9 -8 9 0.18 0.11
9 -8 9 0.32 0.12
9 8 9 0.14 0.1
-10 9 9 0.23 0.11
-10 9 9 0.39 0.14
-9 9 9 1.44 0.19
-9 9 9 1.54 0.21
-9 9 9 1.74 0.21
-8 9 9 4.42 0.29
-8 9 9 4.63 0.27
-7 9 9 5.53 0.29
-7 9 9 4.87 0.29
-6 9 9 1.31 0.16
-6 9 9 0.7 0.14
-5 9 9 0.71 0.14
-5 9 9 1.01 0.14
-4 9 9 1.67 0.17
-4 9 9 1.64 0.17
-3 9 9 14.08 0.39
-2 9 9 9.34 0.31
-1 -9 9 1.61 0.16
-1 9 9 1.24 0.14
-1 9 9 1.81 0.09
0 -9 9 4.54 0.23
0 -9 9 4.26 0.23
0 9 9 4.42 0.22
0 9 9 4.32 0.15
1 -9 9 4.55 0.24
1 -9 9 4.55 0.23
1 9 9 4.34 0.17
1 9 9 4.67 0.23
2 -9 9 11.6 0.26
2 -9 9 12.12 0.38
-2 -9 -9 11.59 0.35
2 -9 9 12.22 0.39
2 9 9 12.07 0.35
2 9 9 11.55 0.29
3 -9 9 1.69 0.19
3 -9 9 1.66 0.18
3 -9 9 1.71 0.13
-3 -9 -9 1.37 0.15
3 9 9 1.55 0.16
3 9 9 1.59 0.14
-4 -9 -9 1.92 0.17
4 -9 9 2.13 0.21
4 -9 9 2.09 0.21
4 -9 9 1.88 0.15
4 9 9 2.05 0.18
4 9 9 2.18 0.17
-4 9 -9 1.89 0.16
5 -9 9 0.34 0.09
-5 -9 -9 0.3 0.1
5 -9 9 0.25 0.11
5 -9 9 0.35 0.11
5 9 9 0.19 0.1
-5 9 -9 0.16 0.09
5 9 9 0.33 0.09
6 -9 9 2.77 0.24
6 -9 9 3.06 0.24
6 -9 9 3.22 0.21
-6 -9 -9 3.1 0.19
-6 9 -9 3.2 0.21
6 9 9 2.88 0.22
6 9 9 3.03 0.2
7 -9 9 0.9 0.16
-7 -9 -9 0.76 0.09
7 -9 9 1.08 0.17
7 -9 9 0.95 0.13
-7 9 -9 0.92 0.13
7 9 9 0.81 0.15
8 -9 9 0.3 0.13
8 -9 9 0.42 0.13
8 9 9 0.17 0.11
-9 10 9 0.18 0.12
-9 10 9 0.3 0.12
-8 10 9 6.27 0.33
-8 10 9 6.19 0.34
-8 10 9 6.62 0.32
-7 10 9 3.96 0.25
-7 10 9 3.84 0.27
-6 10 9 0.76 0.14
-6 10 9 1.02 0.17
-5 10 9 0.58 0.14
-5 10 9 0.14 0.08
-4 10 9 0.59 0.13
-3 10 9 1.27 0.16
-2 10 9 3.25 0.23
-1 10 9 1.81 0.09
-1 10 9 1.93 0.18
0 -10 9 4.08 0.23
0 10 9 4.14 0.15
0 10 9 4.4 0.24
1 -10 9 1.42 0.17
1 -10 9 1.29 0.17
1 10 9 1.58 0.12
1 10 9 1.67 0.17
2 -10 9 3.47 0.23
2 -10 9 3.23 0.21
-2 -10 -9 4.06 0.23
2 -10 9 3.67 0.14
2 10 9 3.29 0.17
2 10 9 3.81 0.23
3 -10 9 1.45 0.13
3 -10 9 1.8 0.19
3 -10 9 1.39 0.18
-3 -10 -9 1.57 0.16
3 10 9 1.6 0.17
3 10 9 1.27 0.13
4 -10 9 0.36 0.11
-4 -10 -9 0.49 0.11
4 -10 9 0.48 0.09
4 -10 9 0.27 0.1
4 10 9 0.41 0.09
4 10 9 0.52 0.12
-4 10 -9 0.36 0.1
5 -10 9 0.71 0.15
5 -10 9 0.98 0.16
5 -10 9 0.96 0.12
-5 -10 -9 1.03 0.13
5 10 9 0.83 0.12
-5 10 -9 0.94 0.13
5 10 9 1.01 0.16
6 -10 9 6.02 0.32
6 -10 9 6.23 0.32
-6 -10 -9 6.23 0.23
6 -10 9 6.52 0.27
6 10 9 6.42 0.31
-6 10 -9 6.69 0.28
6 10 9 6.12 0.26
7 -10 9 9.81 0.4
7 -10 9 8.81 0.39
7 10 9 8.71 0.36
-7 11 9 0.63 0.16
-7 11 9 0.61 0.14
-6 11 9 1.59 0.21
-5 11 9 4.07 0.27
-4 11 9 3.46 0.26
-3 11 9 5.42 0.29
-2 11 9 4.55 0.27
-1 11 9 0.4 0.05
-1 11 9 0.37 0.12
0 11 9 -0.04 0.04
0 11 9 0.13 0.09
1 -11 9 1.44 0.17
-1 -11 -9 1.45 0.16
1 11 9 1.4 0.17
1 11 9 1.26 0.11
2 -11 9 0.45 0.11
-2 -11 -9 0.46 0.12
2 11 9 0.42 0.12
2 11 9 0.64 0.09
3 -11 9 2.44 0.13
-3 -11 -9 2.36 0.19
3 -11 9 2.4 0.22
3 -11 9 2.37 0.23
3 11 9 2.37 0.16
3 11 9 2.03 0.2
4 -11 9 2.12 0.14
4 -11 9 1.86 0.21
4 -11 9 1.92 0.21
-4 -11 -9 1.32 0.15
4 11 9 1.69 0.19
4 11 9 1.94 0.16
-4 11 -9 1.72 0.16
5 -11 9 0.6 0.14
5 -11 9 0.5 0.13
5 11 9 0.42 0.12
-5 12 9 2.22 0.24
-4 12 9 0.35 0.13
-3 12 9 0.43 0.14
-2 12 9 2.88 0.24
-1 12 9 0.86 0.16
0 12 9 3.54 0.25
0 12 9 3.37 0.13
-1 -12 -9 0.48 0.11
1 12 9 0.45 0.13
1 12 9 0.49 0.09
2 -12 9 0.31 0.12
2 12 9 0.28 0.11
3 -12 9 0 0.09
3 12 9 0.19 0.1
-10 0 10 0.7 0.12
-9 0 10 1 0.14
-8 0 10 0.14 0.08
-7 0 10 13.43 0.37
-6 0 10 1.32 0.13
-5 0 10 2.95 0.17
-5 0 10 2.87 0.17
-4 0 10 0.35 0.08
-4 0 10 0.52 0.09
-3 0 10 0.24 0.07
-3 0 10 0.3 0.07
-2 0 10 5.22 0.21
-2 0 10 5.03 0.21
-1 0 10 1.86 0.16
-1 0 10 1.27 0.12
0 0 10 68.15 0.89
0 0 10 67.67 0.89
1 0 10 8.04 0.2
1 0 10 8.05 0.25
1 0 10 8.05 0.17
1 0 10 7.82 0.25
2 0 10 29.01 0.52
2 0 10 28.86 0.51
2 0 10 29.56 0.41
2 0 10 29.83 0.43
3 0 10 16.77 0.38
3 0 10 16.75 0.32
3 0 10 16.75 0.32
3 0 10 16.93 0.38
-4 0 -10 21.67 0.41
4 0 10 21.74 0.38
4 0 10 21.5 0.39
4 0 10 21.79 0.44
4 0 10 21.76 0.44
5 0 10 0.09 0.06
5 0 10 0.27 0.07
-5 0 -10 0.2 0.08
5 0 10 0.21 0.07
6 0 10 0.2 0.07
6 0 10 0.24 0.08
-6 0 -10 0.23 0.08
7 0 10 7.99 0.26
-7 0 -10 8.1 0.26
7 0 10 7.62 0.27
8 0 10 13.05 0.34
-8 0 -10 13.12 0.32
-9 0 -10 4.32 0.18
9 0 10 4.39 0.22
10 0 10 0.06 0.08
11 0 10 0.43 0.11
-11 1 10 8.37 0.33
-10 1 10 1.45 0.16
-9 -1 10 4.37 0.22
-9 1 10 4.27 0.22
-8 -1 10 16.92 0.41
-8 1 10 17.26 0.42
-7 -1 10 5.53 0.24
-7 1 10 5.54 0.24
-6 -1 10 2.96 0.17
-6 1 10 2.55 0.17
-5 -1 10 1.61 0.13
-5 -1 10 1.37 0.13
-5 1 10 1.57 0.15
-4 -1 10 4.13 0.2
-4 -1 10 4.34 0.2
-4 1 10 4.1 0.2
-4 1 10 4.25 0.2
-3 -1 10 40.39 0.64
-3 -1 10 39.83 0.63
-3 1 10 39.75 0.64
-3 1 10 39.89 0.64
-2 -1 10 17.77 0.39
-2 -1 10 16.9 0.38
-2 1 10 17.13 0.39
-2 1 10 17.07 0.39
-1 -1 10 10.33 0.29
-1 -1 10 9.96 0.29
-1 1 10 9.99 0.29
-1 1 10 10.01 0.29
0 -1 10 16.7 0.37
0 -1 10 16.76 0.38
0 1 10 17.3 0.38
0 1 10 17.09 0.38
0 1 10 16.86 0.2
1 -1 10 96.46 1.14
1 -1 10 95.78 1.03
1 -1 10 96.85 1.15
1 -1 10 95.74 0.93
1 1 10 95.7 1.13
1 1 10 95.18 0.99
1 1 10 97.31 0.94
1 1 10 94.13 1.13
2 -1 10 0.3 0.08
2 -1 10 0.21 0.05
2 -1 10 0.09 0.06
2 -1 10 0.26 0.06
2 1 10 0.28 0.07
2 1 10 0.28 0.06
2 1 10 0.33 0.07
2 1 10 0.23 0.05
3 -1 10 18.86 0.34
3 -1 10 19.02 0.41
3 -1 10 18.77 0.41
3 -1 10 19.06 0.35
3 1 10 18.54 0.39
3 1 10 18.6 0.34
3 1 10 18.46 0.4
3 1 10 18.58 0.33
4 -1 10 3.03 0.17
-4 -1 -10 3.02 0.16
4 -1 10 3.04 0.18
4 -1 10 3.4 0.16
4 -1 10 3.31 0.15
-4 1 -10 3.2 0.18
4 1 10 3.29 0.16
4 1 10 3.35 0.15
4 1 10 2.79 0.16
5 -1 10 15.53 0.33
5 -1 10 15.4 0.35
5 -1 10 14.49 0.37
5 -1 10 14.72 0.37
-5 -1 -10 15.04 0.34
5 1 10 14.72 0.31
5 1 10 15.77 0.35
-5 1 -10 15 0.35
6 -1 10 1.91 0.16
6 -1 10 1.88 0.14
-6 -1 -10 1.91 0.16
6 -1 10 1.91 0.15
6 1 10 2.03 0.15
6 1 10 1.81 0.13
-6 1 -10 1.91 0.16
7 -1 10 1.43 0.14
7 -1 10 1.29 0.13
-7 -1 -10 1.26 0.13
7 1 10 1.17 0.13
-7 1 -10 1.38 0.13
7 1 10 1.47 0.13
8 -1 10 1.56 0.15
-8 -1 -10 1.59 0.13
-8 1 -10 1.66 0.14
8 1 10 1.57 0.14
-9 -1 -10 4.75 0.18
9 -1 10 4.78 0.23
-9 1 -10 4.81 0.19
9 1 10 4.69 0.23
10 -1 10 7.34 0.29
-10 1 -10 7.09 0.28
10 1 10 7.03 0.27
11 -1 10 1.25 0.16
11 1 10 0.9 0.14
-12 2 10 1.35 0.18
-11 2 10 2.32 0.19
-11 2 10 2.51 0.23
-10 2 10 0.69 0.12
-9 2 10 18.48 0.46
-8 -2 10 6.57 0.26
-8 2 10 6.41 0.27
-7 -2 10 12.9 0.35
-7 2 10 13.91 0.38
-6 -2 10 4.18 0.2
-6 -2 10 3.8 0.19
-6 2 10 4.03 0.21
-5 -2 10 0.03 0.05
-5 -2 10 0.01 0.05
-5 2 10 -0.01 0.05
-4 -2 10 4.23 0.19
-4 -2 10 4.04 0.19
-4 2 10 3.94 0.19
-3 -2 10 0.05 0.05
-3 -2 10 0.08 0.06
-3 2 10 -0.02 0.05
-3 2 10 0 0.06
-2 -2 10 0.1 0.06
-2 -2 10 -0.03 0.04
-2 2 10 -0.02 0.04
-2 2 10 0.05 0.06
-1 -2 10 3.09 0.17
-1 -2 10 2.88 0.16
-1 2 10 3.2 0.17
-1 2 10 3.15 0.17
0 -2 10 3.58 0.18
0 -2 10 3.52 0.17
0 2 10 3.42 0.17
0 2 10 3.55 0.17
0 2 10 3.52 0.09
1 -2 10 7.64 0.25
1 -2 10 7.76 0.26
1 -2 10 7.75 0.16
1 2 10 7.85 0.25
1 2 10 7.55 0.17
1 2 10 7.3 0.24
2 -2 10 38.67 0.63
2 -2 10 39.73 0.5
2 -2 10 38.9 0.63
2 -2 10 39.29 0.55
2 2 10 38.92 0.61
2 2 10 39.91 0.62
2 2 10 39.5 0.51
3 -2 10 26.44 0.42
3 -2 10 26.7 0.51
3 -2 10 26.01 0.5
3 -2 10 26.53 0.44
3 2 10 26.45 0.41
3 2 10 29.07 0.68
3 2 10 26.38 0.42
4 -2 10 0.52 0.09
4 -2 10 0.71 0.09
4 -2 10 0.76 0.11
4 -2 10 0.7 0.09
-4 -2 -10 0.73 0.1
4 2 10 0.65 0.09
-4 2 -10 0.46 0.11
4 2 10 0.58 0.08
5 -2 10 4.13 0.18
-5 -2 -10 4.03 0.19
5 -2 10 4.19 0.21
5 -2 10 3.86 0.19
5 -2 10 4.01 0.2
5 2 10 4 0.19
5 2 10 4.23 0.17
-5 2 -10 4.28 0.2
5 2 10 4.33 0.22
6 -2 10 0.11 0.07
-6 -2 -10 0.04 0.08
6 -2 10 0.07 0.06
6 -2 10 0.08 0.07
6 -2 10 0.14 0.07
6 2 10 0.19 0.06
6 2 10 0.07 0.07
-6 2 -10 0.04 0.08
6 2 10 0.11 0.06
-7 -2 -10 1.62 0.14
7 -2 10 1.47 0.15
7 -2 10 1.41 0.14
7 -2 10 1.54 0.15
7 2 10 1.48 0.13
-7 2 -10 1.57 0.15
7 2 10 1.62 0.15
7 2 10 1.71 0.16
8 -2 10 0.94 0.13
8 -2 10 0.85 0.13
-8 -2 -10 0.82 0.1
8 2 10 0.83 0.11
-8 2 -10 0.98 0.12
8 2 10 0.92 0.13
9 -2 10 3.28 0.21
-9 -2 -10 3.51 0.16
9 2 10 3.49 0.2
-9 2 -10 3.92 0.18
9 2 10 3.7 0.22
10 -2 10 1.14 0.15
10 2 10 1.39 0.16
10 2 10 1.52 0.17
-10 2 -10 1.04 0.1
11 -2 10 0.72 0.12
11 2 10 0.72 0.13
11 2 10 0.48 0.11
-12 3 10 8.05 0.32
-12 3 10 7.31 0.34
-11 3 10 7.3 0.3
-11 3 10 6.56 0.32
-10 3 10 1.2 0.18
-10 3 10 1.07 0.15
-9 3 10 0.61 0.12
-9 3 10 0.69 0.12
-8 3 10 20.43 0.47
-8 3 10 20.34 0.48
-7 -3 10 7.07 0.26
-7 3 10 7.52 0.28
-7 3 10 7.25 0.26
-6 -3 10 2.44 0.16
-6 -3 10 2.56 0.16
-6 3 10 2.45 0.17
-6 3 10 2.35 0.15
-5 -3 10 1.37 0.13
-5 -3 10 1.25 0.13
-5 3 10 1.39 0.14
-5 3 10 1.33 0.11
-4 -3 10 10.02 0.29
-4 -3 10 9.5 0.29
-4 3 10 10.02 0.31
-4 3 10 9.93 0.25
-3 -3 10 8.76 0.28
-3 -3 10 7.9 0.26
-3 3 10 8.53 0.22
-3 3 10 8.65 0.28
-2 -3 10 0.3 0.07
-2 -3 10 0.36 0.08
-2 3 10 0.42 0.06
-2 3 10 0.4 0.09
-2 3 10 0.39 0.08
-1 -3 10 4.92 0.2
-1 -3 10 5.17 0.21
-1 3 10 5.03 0.2
-1 3 10 5.39 0.17
-1 3 10 5.21 0.21
0 -3 10 1.28 0.13
0 -3 10 1.31 0.12
0 3 10 1.11 0.06
0 3 10 1.31 0.09
0 3 10 1.38 0.13
0 3 10 1.35 0.13
1 -3 10 12.84 0.34
1 -3 10 12.69 0.21
1 -3 10 12.57 0.34
1 3 10 12.55 0.23
1 3 10 12.48 0.32
1 3 10 12.71 0.32
1 3 10 12.57 0.27
2 -3 10 4.87 0.22
2 -3 10 5.05 0.16
2 -3 10 5.14 0.22
2 3 10 5.06 0.16
2 3 10 5.12 0.17
3 -3 10 7.8 0.22
3 -3 10 7.97 0.28
3 -3 10 7.85 0.24
3 -3 10 7.83 0.27
3 3 10 8.15 0.22
3 3 10 8.33 0.23
4 -3 10 4.82 0.22
4 -3 10 4.47 0.21
-4 -3 -10 4.84 0.2
4 -3 10 4.9 0.19
4 -3 10 4.74 0.19
4 3 10 4.62 0.19
4 3 10 4.7 0.19
4 3 10 4.69 0.17
5 -3 10 4.19 0.19
5 -3 10 4 0.19
5 -3 10 4.12 0.21
-5 -3 -10 4.32 0.2
5 -3 10 3.99 0.21
5 3 10 4.21 0.17
5 3 10 4.03 0.19
5 3 10 4.15 0.19
-5 3 -10 4.19 0.2
6 -3 10 0.39 0.09
-6 -3 -10 0.43 0.09
6 -3 10 0.4 0.09
6 -3 10 0.32 0.08
6 -3 10 0.4 0.09
6 3 10 0.63 0.1
6 3 10 0.58 0.1
-6 3 -10 0.42 0.1
6 3 10 0.5 0.08
-7 -3 -10 0.66 0.1
7 -3 10 0.79 0.12
7 -3 10 0.66 0.11
7 -3 10 0.53 0.1
7 -3 10 0.61 0.11
7 3 10 0.81 0.12
-7 3 -10 0.68 0.11
7 3 10 0.61 0.11
7 3 10 0.68 0.1
8 -3 10 1.07 0.14
8 -3 10 0.96 0.13
8 -3 10 0.81 0.12
-8 -3 -10 0.88 0.1
-8 3 -10 0.89 0.12
8 3 10 1.24 0.15
8 3 10 1.11 0.13
9 -3 10 2.73 0.2
-9 -3 -10 2.46 0.13
9 3 10 2.84 0.21
9 3 10 2.96 0.19
-9 3 -10 2.65 0.16
10 -3 10 1.3 0.16
-10 3 -10 1.06 0.1
10 3 10 1.3 0.16
10 3 10 1.12 0.14
11 -3 10 3.96 0.23
11 3 10 4.11 0.25
11 3 10 3.88 0.23
-13 4 10 8.34 0.34
-13 4 10 8.37 0.37
-12 4 10 4.13 0.26
-12 4 10 4.76 0.29
-12 4 10 4.62 0.28
-11 4 10 1.94 0.22
-11 4 10 1.68 0.2
-11 4 10 1.61 0.18
-10 4 10 3.84 0.23
-10 4 10 3.7 0.23
-9 4 10 19.09 0.48
-9 4 10 19.61 0.5
-8 4 10 26.4 0.56
-8 4 10 26.44 0.57
-7 4 10 19.34 0.45
-7 4 10 19.38 0.46
-6 -4 10 0.22 0.08
-6 4 10 0.43 0.09
-6 4 10 0.23 0.08
-5 -4 10 2.37 0.16
-5 -4 10 2.25 0.15
-5 4 10 2.11 0.14
-5 4 10 2.3 0.17
-4 -4 10 2.34 0.16
-4 -4 10 2.26 0.15
-4 4 10 2.61 0.17
-4 4 10 2.46 0.14
-3 -4 10 13.73 0.35
-3 -4 10 13.86 0.35
-3 4 10 14.3 0.31
-3 4 10 14.14 0.36
-2 -4 10 2.17 0.15
-2 -4 10 2.17 0.15
-2 4 10 2.21 0.15
-2 4 10 2.25 0.13
-1 -4 10 0.48 0.09
-1 -4 10 0.45 0.08
-1 4 10 0.61 0.08
-1 4 10 0.55 0.09
0 -4 10 1.64 0.14
0 -4 10 1.62 0.13
0 4 10 1.71 0.13
0 4 10 1.71 0.11
0 4 10 1.65 0.15
0 4 10 1.77 0.08
1 -4 10 3.84 0.19
1 -4 10 3.85 0.19
1 -4 10 3.81 0.11
1 4 10 3.57 0.15
1 4 10 3.73 0.13
2 -4 10 28.6 0.55
2 -4 10 29.1 0.41
2 -4 10 28.45 0.54
2 4 10 29.74 0.48
2 4 10 29.04 0.43
3 -4 10 5.46 0.24
3 -4 10 5.68 0.24
3 -4 10 5.92 0.19
3 4 10 5.81 0.2
3 4 10 5.9 0.21
4 -4 10 2.1 0.15
4 -4 10 2.21 0.14
4 -4 10 1.76 0.16
4 -4 10 1.85 0.17
-4 -4 -10 2.03 0.16
4 4 10 1.82 0.14
4 4 10 1.86 0.14
5 -4 10 0.53 0.1
-5 -4 -10 0.52 0.1
5 -4 10 0.56 0.1
5 -4 10 0.56 0.1
5 -4 10 0.72 0.12
-5 4 -10 0.76 0.11
5 4 10 0.69 0.1
5 4 10 0.5 0.1
6 -4 10 10.74 0.35
6 -4 10 11.16 0.36
-6 -4 -10 10.97 0.3
6 -4 10 10.39 0.31
6 -4 10 11.11 0.32
6 4 10 10.93 0.32
6 4 10 10.77 0.28
-6 4 -10 10.75 0.31
6 4 10 10.31 0.31
7 -4 10 3 0.2
7 -4 10 3.18 0.22
7 -4 10 3.29 0.2
-7 -4 -10 3.15 0.19
7 -4 10 3.03 0.21
7 4 10 3.27 0.2
-7 4 -10 3.21 0.2
7 4 10 3.19 0.17
7 4 10 3.4 0.2
8 -4 10 5.36 0.27
8 -4 10 5.59 0.25
8 -4 10 5.85 0.26
8 -4 10 5.63 0.28
-8 -4 -10 5.63 0.2
8 4 10 5.51 0.26
-8 4 -10 5.65 0.23
8 4 10 5.74 0.23
9 -4 10 -0.03 0.08
-9 -4 -10 0.01 0.05
9 -4 10 0.04 0.09
9 4 10 0.02 0.08
9 4 10 -0.04 0.07
-9 4 -10 0.01 0.06
10 -4 10 1.75 0.18
10 4 10 1.65 0.16
10 4 10 1.85 0.19
-10 4 -10 1.75 0.13
-12 5 10 0.91 0.17
-12 5 10 1.23 0.16
-12 5 10 0.62 0.2
-11 5 10 6.8 0.31
-11 5 10 7.25 0.36
-11 5 10 6.65 0.33
-10 5 10 1.58 0.19
-10 5 10 1.38 0.17
-9 5 10 3.22 0.22
-9 5 10 2.7 0.21
-8 5 10 2.03 0.2
-8 5 10 1.8 0.18
-7 5 10 7.9 0.3
-7 5 10 7.93 0.31
-6 5 10 0.32 0.08
-6 5 10 0.44 0.1
-5 -5 10 4.65 0.21
-5 5 10 4.95 0.23
-5 5 10 4.93 0.21
-4 -5 10 3.37 0.18
-4 -5 10 3.8 0.19
-4 5 10 3.52 0.18
-4 5 10 3.6 0.2
-3 -5 10 8.79 0.28
-3 -5 10 8.77 0.28
-3 5 10 8.77 0.25
-3 5 10 8.67 0.29
-2 -5 10 0.22 0.07
-2 -5 10 0.29 0.08
-2 5 10 0.3 0.08
-2 5 10 0.19 0.06
-1 -5 10 0.97 0.11
-1 -5 10 0.72 0.1
-1 5 10 1.01 0.12
-1 5 10 0.86 0.09
0 -5 10 0.44 0.09
0 -5 10 0.85 0.11
0 5 10 0.85 0.09
0 5 10 0.69 0.06
1 -5 10 9.42 0.18
1 -5 10 9.84 0.31
1 -5 10 9.68 0.31
1 5 10 9.36 0.26
1 5 10 9.62 0.21
2 -5 10 1.02 0.13
2 -5 10 1 0.09
2 -5 10 1.7 0.16
2 5 10 0.95 0.1
2 5 10 1.05 0.1
3 -5 10 6.29 0.27
3 -5 10 6.06 0.2
3 -5 10 6.07 0.26
-3 -5 -10 5.92 0.23
3 5 10 6.25 0.23
3 5 10 6.09 0.2
4 -5 10 0.83 0.1
4 -5 10 0.77 0.12
4 -5 10 1.07 0.14
-4 -5 -10 1 0.12
4 5 10 0.94 0.11
4 5 10 0.95 0.11
-5 -5 -10 0.4 0.1
5 -5 10 0.34 0.09
5 -5 10 0.37 0.1
5 -5 10 0.25 0.09
5 -5 10 0.28 0.09
-5 5 -10 0.22 0.09
5 5 10 0.23 0.08
5 5 10 0.23 0.08
6 -5 10 0.9 0.13
6 -5 10 0.79 0.12
6 -5 10 0.7 0.13
-6 -5 -10 0.87 0.12
6 -5 10 0.87 0.14
6 5 10 0.79 0.12
6 5 10 0.91 0.12
-6 5 -10 0.69 0.12
7 -5 10 2.92 0.22
7 -5 10 2.85 0.2
7 -5 10 2.52 0.21
7 -5 10 2.93 0.2
-7 -5 -10 2.85 0.18
7 5 10 2.72 0.19
7 5 10 2.48 0.19
-7 5 -10 3.14 0.2
8 -5 10 0.53 0.12
-8 -5 -10 0.65 0.09
8 -5 10 0.71 0.12
8 -5 10 0.7 0.14
8 -5 10 0.61 0.13
8 5 10 0.72 0.12
8 5 10 0.67 0.13
-8 5 -10 0.56 0.1
9 -5 10 3.72 0.25
-9 -5 -10 3.33 0.17
9 -5 10 3.73 0.24
9 -5 10 3.59 0.22
9 -5 10 3.35 0.24
9 5 10 3.84 0.21
9 5 10 3.82 0.24
-9 5 -10 3.74 0.18
10 -5 10 5.05 0.29
10 -5 10 5.27 0.28
10 5 10 4.9 0.24
10 5 10 5.01 0.27
-12 6 10 5.46 0.29
-12 6 10 5.4 0.32
-11 6 10 4.69 0.28
-11 6 10 4.45 0.3
-11 6 10 4.41 0.28
-10 6 10 1.28 0.19
-10 6 10 0.98 0.15
-10 6 10 1.27 0.18
-9 6 10 1.39 0.18
-9 6 10 1.16 0.16
-8 6 10 14.06 0.43
-8 6 10 13.68 0.42
-7 6 10 10.8 0.36
-7 6 10 10.73 0.36
-6 6 10 6.57 0.28
-6 6 10 6.34 0.26
-5 6 10 6.11 0.25
-5 6 10 6.16 0.26
-4 -6 10 12.05 0.34
-4 6 10 11.86 0.32
-4 6 10 12.11 0.35
-3 -6 10 13.03 0.36
-3 -6 10 13 0.34
-3 6 10 12.38 0.34
-3 6 10 12.86 0.33
-2 -6 10 19.96 0.45
-2 -6 10 19.77 0.43
-2 6 10 19.62 0.4
-2 6 10 19.79 0.43
-1 -6 10 8.21 0.28
-1 -6 10 7.32 0.27
-1 6 10 7.88 0.25
0 -6 10 18.89 0.44
0 -6 10 17.92 0.43
0 6 10 18.94 0.39
0 6 10 18.96 0.28
1 -6 10 0.67 0.11
1 -6 10 0.82 0.06
1 -6 10 0.91 0.12
1 6 10 0.68 0.1
1 6 10 0.81 0.08
2 -6 10 1.77 0.1
2 -6 10 1.49 0.15
2 -6 10 2.21 0.19
2 6 10 1.77 0.12
2 6 10 1.64 0.13
3 -6 10 3.45 0.21
-3 -6 -10 3.19 0.19
3 -6 10 3.45 0.22
3 -6 10 3.37 0.16
3 6 10 3.21 0.16
3 6 10 2.95 0.18
-4 -6 -10 11.53 0.33
4 -6 10 11.48 0.37
4 -6 10 10.97 0.3
4 -6 10 11.41 0.38
4 6 10 11.53 0.3
4 6 10 12 0.34
5 -6 10 7.27 0.26
-5 -6 -10 6.86 0.26
5 -6 10 7.21 0.31
5 -6 10 7.51 0.31
5 6 10 7.43 0.28
5 6 10 6.82 0.26
-5 6 -10 7.4 0.27
6 -6 10 5.9 0.29
-6 -6 -10 6.44 0.25
6 -6 10 6.31 0.26
6 -6 10 6.4 0.3
6 6 10 6.04 0.27
-6 6 -10 6.48 0.26
6 6 10 6.23 0.26
-7 -6 -10 9.9 0.29
7 -6 10 9.81 0.37
7 -6 10 10.05 0.33
7 -6 10 10.13 0.38
7 6 10 10.47 0.35
7 6 10 10.15 0.32
-7 6 -10 10.12 0.31
8 -6 10 3.27 0.25
8 -6 10 3.04 0.23
8 -6 10 3.16 0.22
8 -6 10 3.18 0.21
-8 -6 -10 3.06 0.16
8 6 10 3.02 0.22
-8 6 -10 3.26 0.2
9 -6 10 1.59 0.2
9 -6 10 1.43 0.18
9 -6 10 1.51 0.17
9 -6 10 1.61 0.19
9 6 10 1.42 0.18
-9 6 -10 1.32 0.12
10 -6 10 0.76 0.15
10 -6 10 1.1 0.16
10 6 10 1.08 0.16
-11 7 10 1.71 0.21
-11 7 10 2.14 0.22
-10 7 10 1.6 0.19
-10 7 10 2.13 0.24
-10 7 10 1.59 0.2
-9 7 10 6.53 0.32
-9 7 10 6.64 0.33
-8 7 10 1.14 0.17
-8 7 10 0.63 0.13
-7 7 10 4.02 0.24
-7 7 10 3.6 0.23
-6 7 10 3.14 0.21
-6 7 10 3.2 0.22
-5 7 10 1.76 0.17
-5 7 10 2.31 0.18
-4 7 10 4.2 0.21
-4 7 10 3.77 0.21
-3 -7 10 16.84 0.41
-3 7 10 15.75 0.4
-3 7 10 15.64 0.38
-2 -7 10 13.32 0.37
-2 -7 10 12.85 0.35
-2 7 10 13.08 0.34
-1 -7 10 3.37 0.19
-1 -7 10 3.6 0.21
-1 7 10 3.73 0.19
-1 7 10 3.57 0.1
0 -7 10 1.51 0.15
0 -7 10 1.33 0.15
0 7 10 1.36 0.13
0 7 10 1.52 0.09
1 -7 10 6.39 0.27
1 -7 10 6.84 0.28
1 7 10 6.47 0.18
1 7 10 6.35 0.24
2 -7 10 14.85 0.41
2 -7 10 14.27 0.41
2 -7 10 14.48 0.27
2 7 10 14.33 0.37
2 7 10 14.17 0.3
-3 -7 -10 12.27 0.34
3 -7 10 11.82 0.38
3 -7 10 12.17 0.28
3 -7 10 12.1 0.39
3 7 10 11.74 0.34
3 7 10 11.7 0.29
4 -7 10 1.94 0.19
4 -7 10 1.85 0.19
4 -7 10 1.84 0.15
-4 -7 -10 2.21 0.19
4 7 10 2.05 0.18
4 7 10 1.96 0.16
-5 -7 -10 12.03 0.34
5 -7 10 12 0.41
5 -7 10 11.81 0.4
5 -7 10 11.52 0.33
5 7 10 11.42 0.35
5 7 10 11.46 0.32
-5 7 -10 11.52 0.34
-6 -7 -10 0.34 0.1
6 -7 10 0.36 0.1
6 -7 10 0.22 0.11
6 -7 10 0.45 0.13
6 7 10 0.42 0.1
6 7 10 0.37 0.11
-6 7 -10 0.29 0.1
7 -7 10 0.23 0.11
7 -7 10 0.15 0.1
-7 -7 -10 0.27 0.08
7 -7 10 0.15 0.09
-7 7 -10 0.06 0.09
7 7 10 0.05 0.07
7 7 10 0.22 0.1
8 -7 10 1.5 0.17
8 -7 10 1.67 0.2
8 -7 10 1.52 0.19
-8 -7 -10 1.79 0.12
8 7 10 1.73 0.19
-8 7 -10 1.5 0.15
9 -7 10 0.51 0.13
9 -7 10 0.3 0.11
9 7 10 0.53 0.13
-10 8 10 0.61 0.14
-10 8 10 0.87 0.17
-9 8 10 4.65 0.29
-9 8 10 4.97 0.29
-8 8 10 2.2 0.23
-8 8 10 2.63 0.24
-7 8 10 1.92 0.2
-7 8 10 1.78 0.2
-6 8 10 2.25 0.21
-6 8 10 2.22 0.21
-5 8 10 2.04 0.19
-5 8 10 2 0.19
-4 8 10 0.6 0.11
-4 8 10 0.63 0.11
-3 8 10 1.84 0.17
-2 -8 10 6.86 0.28
-2 8 10 7.45 0.27
-1 -8 10 3.76 0.21
-1 -8 10 3.99 0.22
-1 8 10 3.72 0.2
0 -8 10 2.36 0.18
0 -8 10 2.09 0.18
0 8 10 2.22 0.17
0 8 10 2.16 0.1
1 -8 10 8.81 0.32
1 -8 10 8.94 0.33
1 8 10 8.78 0.22
1 8 10 8.51 0.29
2 -8 10 2.2 0.2
2 -8 10 1.75 0.18
2 -8 10 1.98 0.11
2 8 10 2.24 0.14
2 8 10 2.07 0.17
3 -8 10 9.68 0.35
3 -8 10 9.78 0.37
-3 -8 -10 9.39 0.32
3 -8 10 10.01 0.26
3 8 10 9.81 0.33
3 8 10 9.52 0.27
4 -8 10 7.99 0.26
-4 -8 -10 8.21 0.3
4 -8 10 8.42 0.35
4 -8 10 8 0.34
4 8 10 7.89 0.3
4 8 10 7.84 0.26
5 -8 10 1.98 0.16
5 -8 10 1.79 0.19
-5 -8 -10 1.66 0.16
5 -8 10 1.73 0.19
-5 8 -10 1.79 0.16
5 8 10 1.58 0.15
5 8 10 1.69 0.17
6 -8 10 0.2 0.11
6 -8 10 0.3 0.09
-6 -8 -10 0.2 0.09
6 -8 10 0.19 0.11
6 8 10 0.16 0.08
-6 8 -10 0.38 0.1
6 8 10 0.25 0.1
7 -8 10 3.2 0.21
7 -8 10 3.08 0.25
-7 -8 -10 3.63 0.18
7 -8 10 4.09 0.28
7 8 10 3.58 0.21
7 8 10 3.85 0.24
-7 8 -10 3.56 0.22
8 -8 10 2.39 0.24
8 -8 10 2.55 0.25
8 8 10 2.61 0.23
-9 9 10 3.66 0.27
-9 9 10 3.14 0.26
-8 9 10 -0.03 0.09
-8 9 10 0.03 0.1
-7 9 10 3.64 0.26
-7 9 10 2.98 0.23
-6 9 10 0.1 0.09
-6 9 10 0.19 0.1
-5 9 10 1.27 0.17
-5 9 10 1.31 0.17
-4 9 10 0.38 0.11
-3 9 10 4.52 0.25
-2 9 10 5.14 0.25
-1 -9 10 8.93 0.33
-1 9 10 9.35 0.32
0 -9 10 4.6 0.24
0 -9 10 4.5 0.25
0 9 10 4.67 0.23
0 9 10 4.58 0.14
1 -9 10 0.42 0.11
1 -9 10 0.63 0.12
1 9 10 0.84 0.13
1 9 10 0.59 0.08
2 -9 10 1.11 0.08
-2 -9 -10 0.83 0.13
2 -9 10 1.17 0.16
2 -9 10 0.94 0.14
2 9 10 0.97 0.14
2 9 10 0.88 0.1
3 -9 10 0.47 0.11
3 -9 10 0.5 0.08
-3 -9 -10 0.51 0.12
3 -9 10 0.54 0.12
3 9 10 0.51 0.09
3 9 10 0.65 0.12
-4 -9 -10 0.68 0.12
4 -9 10 0.58 0.13
4 -9 10 0.6 0.13
4 -9 10 0.62 0.1
4 9 10 0.57 0.1
4 9 10 0.62 0.12
-5 -9 -10 0.81 0.12
5 -9 10 0.77 0.11
5 -9 10 0.84 0.15
5 -9 10 0.98 0.16
5 9 10 0.67 0.13
5 9 10 1.04 0.13
-5 9 -10 0.73 0.12
6 -9 10 6.13 0.32
6 -9 10 6.24 0.33
6 -9 10 6.01 0.26
-6 -9 -10 6.08 0.24
-6 9 -10 6.37 0.28
6 9 10 6.05 0.29
6 9 10 6.22 0.26
7 -9 10 3.23 0.25
7 -9 10 3.17 0.26
7 9 10 3.4 0.24
-8 10 10 1.47 0.19
-8 10 10 1.72 0.21
-7 10 10 1.72 0.2
-7 10 10 2.09 0.23
-6 10 10 8.72 0.34
-6 10 10 8.64 0.37
-5 10 10 1.35 0.18
-4 10 10 3.29 0.24
-3 10 10 2.25 0.21
-2 10 10 6.8 0.3
-1 10 10 4.48 0.25
0 -10 10 1.62 0.18
0 10 10 1.53 0.17
0 10 10 1.57 0.09
1 -10 10 6.05 0.29
1 -10 10 5.69 0.28
1 10 10 5.53 0.18
1 10 10 5.82 0.28
2 -10 10 2.15 0.2
-2 -10 -10 1.87 0.17
2 -10 10 1.89 0.19
2 10 10 1.99 0.13
2 10 10 1.72 0.18
3 -10 10 0.25 0.09
3 -10 10 0.25 0.05
-3 -10 -10 0.18 0.1
3 -10 10 0.2 0.1
3 10 10 0.14 0.06
3 10 10 0.28 0.11
-4 -10 -10 3.42 0.22
4 -10 10 2.64 0.15
4 -10 10 2.14 0.22
4 -10 10 3.08 0.24
4 10 10 2.58 0.17
4 10 10 2.29 0.21
-4 10 -10 2.52 0.23
5 -10 10 -0.06 0.08
5 -10 10 0.06 0.06
-5 -10 -10 -0.14 0.1
5 -10 10 -0.03 0.09
5 10 10 0.05 0.07
5 10 10 -0.14 0.08
-5 10 -10 0.05 0.09
6 -10 10 5.24 0.31
6 -10 10 5.93 0.32
6 10 10 5.76 0.29
-6 11 10 1.36 0.2
-5 11 10 11 0.42
-4 11 10 2.95 0.26
-3 11 10 3.04 0.24
-2 11 10 1.28 0.18
-1 11 10 2.23 0.22
0 11 10 1.52 0.18
0 11 10 1.4 0.08
-1 -11 -10 1 0.15
1 -11 10 1 0.15
1 11 10 1.27 0.17
1 11 10 1.12 0.1
2 -11 10 0.46 0.12
-2 -11 -10 0.35 0.1
2 -11 10 0.49 0.19
2 11 10 0.59 0.08
2 11 10 0.49 0.12
3 -11 10 1.46 0.18
3 -11 10 1.37 0.17
3 11 10 1.5 0.18
4 -11 10 1.5 0.19
4 -11 10 1.73 0.2
4 11 10 1.6 0.18
-3 12 10 1.78 0.21
-2 12 10 7.33 0.34
-1 12 10 0.64 0.14
0 12 10 1.79 0.2
-10 0 11 0 0.07
-9 0 11 10.74 0.35
-8 0 11 8.13 0.3
-7 0 11 12.73 0.37
-6 0 11 3.59 0.2
-5 0 11 0.15 0.07
-5 0 11 0.02 0.06
-4 0 11 1.01 0.13
-4 0 11 0.88 0.12
-3 0 11 1.84 0.15
-3 0 11 1.81 0.17
-2 0 11 10.81 0.32
-2 0 11 10.52 0.32
-1 0 11 1.03 0.12
-1 0 11 0.99 0.12
0 0 11 0.19 0.07
0 0 11 0.14 0.07
1 0 11 0.2 0.07
1 0 11 0.09 0.03
1 0 11 0.07 0.06
1 0 11 0.03 0.05
2 0 11 11.1 0.23
2 0 11 11.25 0.26
2 0 11 11.84 0.33
2 0 11 11.02 0.32
3 0 11 5.78 0.24
3 0 11 5.71 0.19
3 0 11 5.83 0.24
3 0 11 5.92 0.19
4 0 11 31.15 0.5
4 0 11 30.3 0.57
4 0 11 31.18 0.49
4 0 11 30.13 0.57
5 0 11 -0.01 0.06
5 0 11 -0.06 0.05
5 0 11 -0.08 0.06
-5 0 -11 0.13 0.08
-6 0 -11 2.55 0.19
6 0 11 2.09 0.15
6 0 11 2.26 0.17
-7 0 -11 0.95 0.12
7 0 11 1.04 0.13
7 0 11 1.05 0.14
8 0 11 0.38 0.09
-8 0 -11 0.41 0.1
8 0 11 0.51 0.11
9 0 11 0.03 0.08
-9 0 -11 -0.03 0.06
10 0 11 0 0.08
-10 0 -11 0.16 0.1
-11 1 11 9.63 0.35
-10 1 11 2.19 0.2
-9 -1 11 2.94 0.2
-9 1 11 2.84 0.2
-8 -1 11 3.12 0.2
-8 1 11 3.37 0.21
-7 -1 11 0.15 0.08
-7 1 11 0.24 0.09
-6 -1 11 15.57 0.4
-6 1 11 15.2 0.4
-5 -1 11 3.79 0.2
-5 -1 11 3.55 0.2
-5 1 11 4.16 0.21
-4 -1 11 8.86 0.29
-4 -1 11 9.03 0.3
-4 1 11 9.26 0.3
-4 1 11 9.3 0.31
-3 -1 11 2.17 0.16
-3 -1 11 2.1 0.16
-3 1 11 2.21 0.16
-3 1 11 2.33 0.17
-2 -1 11 15.31 0.39
-2 -1 11 15.86 0.4
-2 1 11 16.09 0.39
-2 1 11 16.3 0.4
-1 -1 11 20.12 0.44
-1 -1 11 18.67 0.42
-1 1 11 19.28 0.43
-1 1 11 18.46 0.43
0 -1 11 4.94 0.22
0 -1 11 5.08 0.22
0 1 11 4.85 0.22
0 1 11 5.18 0.22
1 -1 11 18.02 0.42
1 -1 11 17.81 0.24
1 -1 11 16.65 0.4
1 1 11 16.91 0.4
1 1 11 17.18 0.25
2 -1 11 55.92 0.82
2 -1 11 56.01 0.64
2 -1 11 56.05 0.82
2 -1 11 56.01 0.72
2 1 11 55.47 0.65
2 1 11 56.11 0.69
2 1 11 54.87 0.8
2 1 11 55.49 0.81
3 -1 11 14.28 0.31
3 -1 11 13.59 0.37
3 -1 11 13.67 0.37
3 -1 11 14.19 0.29
3 1 11 13.94 0.36
3 1 11 13.67 0.36
3 1 11 14.15 0.29
3 1 11 14 0.3
4 -1 11 6.62 0.26
4 -1 11 6.81 0.22
4 -1 11 7 0.22
4 -1 11 6.89 0.27
-4 -1 -11 7.07 0.38
4 1 11 7.04 0.22
4 1 11 7.13 0.37
4 1 11 6.99 0.22
5 -1 11 14.73 0.39
5 -1 11 14.06 0.34
5 -1 11 14.17 0.39
-5 -1 -11 14.66 0.36
5 -1 11 14.65 0.34
5 1 11 15.02 0.33
5 1 11 14.5 0.34
-5 1 -11 15.31 0.36
6 -1 11 6.31 0.24
6 -1 11 6.06 0.26
6 -1 11 5.72 0.23
-6 -1 -11 6.51 0.25
6 1 11 6.14 0.23
-6 1 -11 6.7 0.26
6 1 11 6.38 0.25
7 -1 11 4.61 0.22
-7 -1 -11 4.82 0.23
7 -1 11 4.63 0.23
7 1 11 4.84 0.21
7 1 11 4.51 0.23
-7 1 -11 5.3 0.24
-8 -1 -11 1.7 0.14
8 -1 11 1.82 0.17
8 -1 11 1.54 0.15
-8 1 -11 1.58 0.14
8 1 11 1.82 0.17
8 1 11 1.58 0.15
9 -1 11 0.09 0.09
-9 -1 -11 0.27 0.08
9 -1 11 0.4 0.11
-9 1 -11 0.23 0.08
9 1 11 0.18 0.09
10 -1 11 5.9 0.27
10 1 11 6.05 0.26
-10 1 -11 5.64 0.18
-12 2 11 6.5 0.31
-12 2 11 6.69 0.46
-11 2 11 12.09 0.42
-11 2 11 13.1 0.41
-10 2 11 4.29 0.24
-9 2 11 11.62 0.38
-8 -2 11 8.71 0.31
-8 2 11 8.96 0.33
-7 -2 11 12.98 0.37
-7 2 11 12.66 0.38
-6 -2 11 4.44 0.22
-6 -2 11 4.17 0.22
-6 2 11 4.63 0.23
-5 -2 11 1.49 0.15
-5 -2 11 1.35 0.14
-5 2 11 1.29 0.14
-4 -2 11 2.02 0.15
-4 -2 11 1.94 0.16
-4 2 11 2.13 0.17
-3 -2 11 5.13 0.22
-3 -2 11 5.24 0.23
-3 2 11 5.12 0.23
-3 2 11 5.11 0.23
-2 -2 11 6.24 0.24
-2 -2 11 5.53 0.24
-2 2 11 6.23 0.24
-2 2 11 6.06 0.24
-1 -2 11 0.26 0.08
-1 -2 11 0.16 0.07
-1 2 11 0.11 0.06
-1 2 11 0.24 0.08
0 -2 11 9.1 0.3
0 -2 11 8.65 0.29
0 2 11 8.63 0.29
0 2 11 8.54 0.28
1 -2 11 2.67 0.17
1 -2 11 2.57 0.17
1 -2 11 2.67 0.08
1 2 11 2.42 0.16
1 2 11 2.4 0.1
1 2 11 2.52 0.16
2 -2 11 10.9 0.33
2 -2 11 11.07 0.33
2 -2 11 11.05 0.23
2 2 11 10.58 0.23
2 2 11 11.29 0.32
2 2 11 10.4 0.31
3 -2 11 3.68 0.17
3 -2 11 3.92 0.16
3 -2 11 4.03 0.21
3 -2 11 3.59 0.2
3 2 11 3.77 0.16
4 -2 11 8.22 0.26
4 -2 11 8.49 0.3
4 -2 11 8.41 0.3
-4 -2 -11 8.52 0.27
4 -2 11 8.08 0.24
4 2 11 8.46 0.23
4 2 11 8.25 0.25
5 -2 11 0.44 0.09
5 -2 11 0.18 0.07
5 -2 11 0.08 0.07
-5 -2 -11 0.23 0.09
5 -2 11 0.24 0.08
-5 2 -11 0.17 0.08
5 2 11 0.04 0.06
5 2 11 0.2 0.06
6 -2 11 1.65 0.14
6 -2 11 1.7 0.16
-6 -2 -11 1.64 0.15
6 -2 11 1.48 0.16
6 -2 11 1.9 0.18
6 2 11 1.85 0.16
-6 2 -11 1.74 0.16
6 2 11 1.77 0.14
7 -2 11 0 0.07
7 -2 11 -0.05 0.06
7 -2 11 -0.02 0.07
-7 -2 -11 0.24 0.09
7 2 11 -0.07 0.06
-7 2 -11 0.01 0.08
7 2 11 -0.08 0.05
-8 -2 -11 0.38 0.09
8 -2 11 0.26 0.09
8 -2 11 0.41 0.1
8 2 11 0.38 0.09
-8 2 -11 0.5 0.1
8 2 11 0.26 0.09
9 -2 11 2.24 0.19
9 -2 11 2.21 0.19
-9 -2 -11 2.08 0.14
9 2 11 2.06 0.18
-9 2 -11 2.21 0.15
10 -2 11 0.13 0.09
-10 2 -11 0.06 0.05
10 2 11 0.13 0.08
-12 3 11 4.25 0.25
-12 3 11 3.86 0.27
-11 3 11 1.81 0.21
-11 3 11 1.57 0.18
-10 3 11 10.47 0.37
-9 3 11 11.89 0.39
-8 3 11 13.19 0.4
-7 -3 11 5.1 0.24
-7 3 11 4.74 0.25
-6 -3 11 2 0.16
-6 -3 11 2.16 0.17
-6 3 11 2.04 0.18
-5 -3 11 9.35 0.31
-5 -3 11 8.78 0.3
-5 3 11 8.69 0.31
-4 -3 11 16.48 0.41
-4 -3 11 15.97 0.41
-4 3 11 17.25 0.43
-3 -3 11 7.24 0.26
-3 -3 11 7.31 0.27
-3 3 11 7.36 0.28
-2 -3 11 4.42 0.21
-2 -3 11 4.54 0.21
-2 3 11 4.77 0.22
-2 3 11 4.23 0.21
-1 -3 11 4.42 0.22
-1 -3 11 4.86 0.22
-1 3 11 4.92 0.22
-1 3 11 4.49 0.21
0 -3 11 0.45 0.1
0 -3 11 0.43 0.09
0 3 11 0.56 0.1
0 3 11 0.68 0.1
1 -3 11 2.79 0.18
1 -3 11 2.78 0.18
1 -3 11 2.92 0.08
1 3 11 2.84 0.11
1 3 11 2.77 0.17
1 3 11 2.83 0.17
2 -3 11 4.12 0.14
2 -3 11 4.05 0.21
2 -3 11 4.7 0.23
2 3 11 4.31 0.15
3 -3 11 9.25 0.32
3 -3 11 9.23 0.27
3 -3 11 9.22 0.31
3 -3 11 9.46 0.23
3 3 11 9.09 0.24
4 -3 11 9.23 0.25
-4 -3 -11 9.21 0.29
4 -3 11 8.82 0.31
4 -3 11 8.6 0.31
4 -3 11 8.87 0.27
4 3 11 9.13 0.26
5 -3 11 0.54 0.1
-5 -3 -11 0.63 0.11
5 -3 11 0.57 0.1
5 -3 11 0.63 0.12
5 -3 11 0.74 0.12
5 3 11 0.51 0.09
5 3 11 0.7 0.12
5 3 11 0.71 0.12
-5 3 -11 0.53 0.11
6 -3 11 1.52 0.15
6 -3 11 1.41 0.16
6 -3 11 1.68 0.16
-6 -3 -11 1.56 0.15
6 -3 11 1.34 0.16
6 3 11 1.46 0.15
-6 3 -11 1.36 0.14
6 3 11 1.19 0.13
6 3 11 1.24 0.12
7 -3 11 1.36 0.15
7 -3 11 1.53 0.17
-7 -3 -11 1.18 0.13
7 -3 11 1.17 0.15
7 -3 11 1.36 0.15
7 3 11 1.36 0.15
7 3 11 1.3 0.13
7 3 11 1.14 0.14
-7 3 -11 1.15 0.14
8 -3 11 1.19 0.16
8 -3 11 1.44 0.16
-8 -3 -11 1.19 0.13
8 -3 11 1.26 0.15
8 3 11 1.49 0.16
8 3 11 1.39 0.14
-8 3 -11 1.3 0.14
8 3 11 1.2 0.15
-9 -3 -11 2.34 0.14
9 -3 11 2.73 0.2
9 -3 11 2.24 0.19
-9 3 -11 2.22 0.16
9 3 11 2.73 0.19
9 3 11 2.54 0.2
10 -3 11 1.25 0.16
10 3 11 1.31 0.21
10 3 11 1.18 0.14
-10 3 -11 0.87 0.09
-12 4 11 8.64 0.35
-11 4 11 6.36 0.3
-11 4 11 5.96 0.32
-10 4 11 0.86 0.14
-9 4 11 6.44 0.3
-9 4 11 6.29 0.31
-8 4 11 1.93 0.19
-8 4 11 1.9 0.18
-7 4 11 13.98 0.41
-7 4 11 13.8 0.38
-6 -4 11 14.69 0.39
-6 4 11 14.25 0.41
-6 4 11 14.12 0.37
-5 -4 11 9.97 0.32
-5 -4 11 10.26 0.33
-5 4 11 10.25 0.34
-5 4 11 9.55 0.29
-4 -4 11 10.06 0.32
-4 4 11 9.97 0.32
-4 4 11 9.31 0.27
-3 -4 11 8.4 0.29
-3 -4 11 8.45 0.3
-3 4 11 8.71 0.3
-3 4 11 8.75 0.25
-2 -4 11 11.25 0.34
-2 -4 11 10.92 0.33
-2 4 11 11.38 0.33
-2 4 11 11.04 0.27
-1 -4 11 0.54 0.09
-1 -4 11 0.48 0.1
-1 4 11 0.58 0.1
-1 4 11 0.61 0.08
0 -4 11 1.79 0.15
0 -4 11 2.07 0.16
0 4 11 1.81 0.16
0 4 11 1.78 0.14
0 4 11 2 0.07
0 4 11 2.06 0.12
1 -4 11 3.51 0.2
1 -4 11 3.67 0.21
1 4 11 3.76 0.12
1 4 11 3.69 0.16
2 -4 11 3.25 0.2
2 -4 11 2.74 0.12
2 -4 11 2.4 0.18
2 4 11 2.8 0.13
2 4 11 2.75 0.15
3 -4 11 1.9 0.18
3 -4 11 1.62 0.11
3 -4 11 1.77 0.18
3 4 11 1.67 0.13
3 4 11 1.74 0.14
4 -4 11 0.43 0.11
4 -4 11 0.42 0.11
4 -4 11 0.46 0.08
-4 -4 -11 0.25 0.09
4 4 11 0.59 0.09
4 4 11 0.28 0.08
5 -4 11 5.05 0.26
5 -4 11 5.07 0.23
5 -4 11 5.49 0.22
5 -4 11 5.44 0.26
-5 -4 -11 5.15 0.23
5 4 11 5.53 0.23
-5 4 -11 5.73 0.24
5 4 11 5.4 0.22
6 -4 11 2.01 0.19
6 -4 11 1.79 0.19
-6 -4 -11 2.19 0.18
6 -4 11 1.7 0.16
6 -4 11 2.15 0.17
6 4 11 2.12 0.17
6 4 11 1.93 0.17
-6 4 -11 2.07 0.17
-7 -4 -11 3.11 0.2
7 -4 11 2.75 0.22
7 -4 11 2.74 0.22
7 -4 11 3.27 0.21
7 -4 11 2.85 0.2
7 4 11 2.85 0.23
7 4 11 2.91 0.2
7 4 11 2.74 0.19
-7 4 -11 3.01 0.21
8 -4 11 1.14 0.16
8 -4 11 1.6 0.17
8 -4 11 2.06 0.32
8 -4 11 1.34 0.15
-8 -4 -11 1.3 0.12
8 4 11 1.6 0.15
8 4 11 1.37 0.15
-8 4 -11 1.22 0.14
8 4 11 1.61 0.17
9 -4 11 0.82 0.13
-9 -4 -11 1.21 0.1
9 -4 11 0.95 0.14
9 -4 11 1.13 0.16
-9 4 -11 0.79 0.1
9 4 11 1.12 0.15
9 4 11 0.81 0.12
10 -4 11 6.24 0.29
10 4 11 5.94 0.29
10 4 11 5.94 0.26
-12 5 11 6.06 0.32
-12 5 11 5.89 0.3
-11 5 11 9.24 0.36
-11 5 11 8.61 0.38
-11 5 11 8.47 0.37
-10 5 11 7.96 0.34
-10 5 11 7.71 0.33
-9 5 11 0.08 0.09
-9 5 11 -0.05 0.07
-8 5 11 24.19 0.56
-8 5 11 23.97 0.56
-7 5 11 8.06 0.33
-7 5 11 7.64 0.3
-6 5 11 2.62 0.18
-6 5 11 2.74 0.2
-5 -5 11 0.47 0.1
-5 5 11 0.44 0.11
-5 5 11 0.48 0.09
-4 -5 11 7.53 0.28
-4 -5 11 7.21 0.28
-4 5 11 6.98 0.28
-4 5 11 7.4 0.25
-3 -5 11 0.79 0.11
-3 -5 11 0.93 0.12
-3 5 11 0.79 0.12
-3 5 11 0.8 0.1
-2 -5 11 32.83 0.6
-2 -5 11 32.75 0.62
-2 5 11 32.94 0.54
-2 5 11 32.72 0.6
-1 -5 11 15.86 0.41
-1 -5 11 15.53 0.4
-1 5 11 15.95 0.35
-1 5 11 15.61 0.39
0 -5 11 0.32 0.09
0 -5 11 0.18 0.08
0 5 11 0.25 0.04
0 5 11 0.19 0.06
1 -5 11 2.97 0.2
1 -5 11 2.92 0.19
1 5 11 2.94 0.12
1 5 11 2.9 0.16
2 -5 11 5.5 0.15
2 -5 11 5.4 0.25
2 -5 11 5.46 0.25
2 5 11 5.22 0.17
2 5 11 5.17 0.21
3 -5 11 0.08 0.07
3 -5 11 0.19 0.09
3 -5 11 0.15 0.06
3 5 11 0.29 0.07
3 5 11 0.31 0.08
-4 -5 -11 7.29 0.27
4 -5 11 7.21 0.31
4 -5 11 7.52 0.31
4 -5 11 6.96 0.23
4 5 11 7.08 0.24
4 5 11 7.1 0.26
-5 -5 -11 0.43 0.11
5 -5 11 0.43 0.12
5 -5 11 0.29 0.08
5 -5 11 0.62 0.13
5 5 11 0.53 0.11
-5 5 -11 0.37 0.1
5 5 11 0.54 0.1
6 -5 11 9.1 0.36
6 -5 11 9.3 0.32
6 -5 11 9.14 0.35
6 -5 11 9.33 0.31
-6 -5 -11 9.87 0.31
6 5 11 8.91 0.3
6 5 11 9.19 0.31
-6 5 -11 9.34 0.31
7 -5 11 8.95 0.31
-7 -5 -11 9.24 0.29
7 -5 11 8.88 0.36
7 -5 11 8.47 0.35
7 -5 11 8.95 0.32
-7 5 -11 9 0.31
7 5 11 8.76 0.32
7 5 11 9.19 0.31
-8 -5 -11 2.4 0.16
8 -5 11 2.45 0.23
8 -5 11 2.38 0.23
8 -5 11 2.51 0.19
8 -5 11 2.56 0.21
8 5 11 2.33 0.19
-8 5 -11 2.67 0.19
8 5 11 2.21 0.19
9 -5 11 1.63 0.17
9 -5 11 1.89 0.19
9 -5 11 1.72 0.2
-9 -5 -11 1.65 0.11
-9 5 -11 1.38 0.15
9 5 11 1.96 0.19
-11 6 11 1.16 0.17
-11 6 11 1.25 0.19
-10 6 11 0.39 0.11
-10 6 11 0.58 0.13
-9 6 11 3.09 0.24
-9 6 11 3.36 0.23
-8 6 11 1.3 0.17
-8 6 11 1.37 0.17
-7 6 11 3.97 0.23
-7 6 11 4.46 0.26
-6 6 11 1.59 0.18
-6 6 11 1.29 0.15
-5 6 11 0.26 0.08
-5 6 11 0.43 0.1
-4 -6 11 0.89 0.12
-4 6 11 0.83 0.12
-4 6 11 0.97 0.12
-3 -6 11 14.8 0.39
-3 -6 11 14.52 0.4
-3 6 11 13.19 0.38
-3 6 11 13.26 0.35
-2 -6 11 16.47 0.42
-2 -6 11 16.9 0.43
-2 6 11 16.32 0.38
-2 6 11 16.4 0.41
-1 -6 11 1.1 0.14
-1 -6 11 1.1 0.13
-1 6 11 1.28 0.13
0 -6 11 4.38 0.23
0 -6 11 4.49 0.24
0 6 11 4.52 0.11
0 6 11 4.42 0.2
1 -6 11 4.83 0.25
1 -6 11 4.85 0.24
1 6 11 4.79 0.15
1 6 11 4.88 0.21
2 -6 11 8.62 0.32
2 -6 11 8.62 0.32
2 -6 11 8.87 0.19
2 6 11 8.65 0.28
2 6 11 8.5 0.22
3 -6 11 9.47 0.24
3 -6 11 8.95 0.33
3 -6 11 8.79 0.34
3 6 11 9.25 0.3
3 6 11 9.38 0.26
4 -6 11 20.26 0.4
4 -6 11 19.71 0.52
-4 -6 -11 20.32 0.45
4 -6 11 20.13 0.52
4 6 11 20.68 0.46
4 6 11 20.23 0.41
5 -6 11 3.27 0.24
5 -6 11 2.91 0.18
5 -6 11 3.62 0.25
-5 -6 -11 2.9 0.2
5 6 11 3 0.2
5 6 11 2.68 0.18
-5 6 -11 2.99 0.21
6 -6 11 0.85 0.12
-6 -6 -11 0.8 0.12
6 -6 11 0.92 0.16
6 -6 11 0.83 0.15
6 6 11 1.04 0.14
6 6 11 0.93 0.13
-6 6 -11 1.09 0.14
7 -6 11 0.54 0.13
7 -6 11 0.61 0.14
-7 -6 -11 0.41 0.1
7 -6 11 0.62 0.11
-7 6 -11 0.4 0.11
7 6 11 0.55 0.12
7 6 11 0.43 0.11
8 -6 11 3.51 0.26
-8 -6 -11 3.36 0.17
8 -6 11 3.41 0.25
8 -6 11 3.73 0.22
8 6 11 3.65 0.22
8 6 11 3.64 0.23
-8 6 -11 3.81 0.21
9 -6 11 0.42 0.12
9 -6 11 0.41 0.12
9 6 11 0.2 0.1
-10 7 11 4.63 0.27
-10 7 11 4.91 0.29
-9 7 11 0.21 0.11
-9 7 11 0.14 0.11
-8 7 11 3.5 0.24
-8 7 11 4.01 0.26
-7 7 11 2.19 0.22
-7 7 11 1.72 0.19
-6 7 11 6.93 0.3
-6 7 11 6.52 0.29
-5 7 11 2.46 0.2
-5 7 11 2.64 0.2
-4 7 11 3 0.19
-4 7 11 3.2 0.21
-3 -7 11 7.66 0.29
-3 7 11 7.92 0.29
-3 7 11 7.33 0.28
-2 -7 11 8.1 0.3
-2 -7 11 7.91 0.3
-2 7 11 8.05 0.28
-1 -7 11 0.78 0.12
-1 -7 11 0.92 0.13
-1 7 11 0.77 0.11
0 -7 11 0.46 0.1
0 -7 11 0.28 0.09
0 7 11 0.22 0.08
0 7 11 0.32 0.04
1 -7 11 8.45 0.33
1 -7 11 8.62 0.33
1 7 11 8.32 0.2
1 7 11 7.82 0.27
2 -7 11 8.89 0.34
2 -7 11 8.83 0.33
2 -7 11 8.7 0.18
2 7 11 8.36 0.22
2 7 11 8.56 0.29
3 -7 11 5.82 0.19
3 -7 11 5.59 0.28
-3 -7 -11 5.48 0.26
3 -7 11 5.61 0.29
3 7 11 5.87 0.21
3 7 11 5.8 0.25
4 -7 11 0.97 0.15
4 -7 11 1.06 0.11
-4 -7 -11 0.94 0.13
4 -7 11 0.91 0.15
4 7 11 0.82 0.11
4 7 11 0.91 0.13
5 -7 11 4.72 0.28
-5 -7 -11 5.1 0.25
5 -7 11 5.96 0.31
5 -7 11 5.18 0.22
-5 7 -11 4.99 0.25
5 7 11 5.23 0.23
5 7 11 5.66 0.27
6 -7 11 2.98 0.25
6 -7 11 3.35 0.26
6 -7 11 2.76 0.19
-6 -7 -11 3.04 0.2
6 7 11 3.28 0.22
-6 7 -11 2.71 0.2
6 7 11 2.88 0.19
-7 -7 -11 5.85 0.23
7 -7 11 5.24 0.3
7 -7 11 5.23 0.25
7 -7 11 6.1 0.32
-7 7 -11 5.51 0.26
7 7 11 5.74 0.25
7 7 11 5.27 0.27
8 -7 11 0.26 0.12
8 -7 11 0.19 0.1
8 7 11 0.12 0.09
-9 8 11 0.74 0.15
-9 8 11 0.85 0.15
-8 8 11 5.48 0.3
-8 8 11 5.21 0.29
-7 8 11 0.18 0.1
-7 8 11 0.39 0.12
-6 8 11 1.17 0.16
-6 8 11 0.95 0.15
-5 8 11 3.45 0.23
-5 8 11 3.55 0.23
-4 8 11 0.64 0.12
-4 8 11 0.82 0.13
-3 8 11 3.05 0.2
-2 -8 11 6.92 0.29
-2 8 11 6.3 0.27
-1 -8 11 16.97 0.45
-1 -8 11 16.62 0.46
-1 8 11 16.4 0.42
0 -8 11 4.29 0.25
0 -8 11 3.78 0.23
0 8 11 3.93 0.21
0 8 11 3.86 0.11
1 -8 11 0.42 0.11
1 -8 11 0.22 0.09
1 8 11 0.37 0.06
1 8 11 0.2 0.08
2 -8 11 3.61 0.24
2 -8 11 3.06 0.23
2 8 11 3.22 0.2
2 8 11 2.96 0.14
3 -8 11 2.01 0.2
-3 -8 -11 2.27 0.19
3 -8 11 1.93 0.11
3 -8 11 2.24 0.22
3 8 11 2.04 0.18
3 8 11 2.12 0.14
-4 -8 -11 0.67 0.12
4 -8 11 0.48 0.08
4 -8 11 0.49 0.13
4 -8 11 0.61 0.13
4 8 11 0.42 0.11
4 8 11 0.51 0.09
-5 -8 -11 1.38 0.15
5 -8 11 1.4 0.18
5 -8 11 1.82 0.21
5 -8 11 1.24 0.13
5 8 11 1.59 0.15
5 8 11 1.32 0.16
-5 8 -11 1.66 0.16
6 -8 11 0.55 0.11
-6 -8 -11 0.41 0.11
6 -8 11 0.61 0.15
6 -8 11 0.63 0.13
6 8 11 0.54 0.12
-6 8 -11 0.45 0.11
6 8 11 0.64 0.11
7 -8 11 4.42 0.29
7 -8 11 4.01 0.29
7 8 11 4.21 0.26
-8 9 11 5.87 0.31
-8 9 11 6.29 0.34
-7 9 11 0.36 0.12
-7 9 11 0.62 0.13
-6 9 11 9.86 0.38
-6 9 11 8.87 0.35
-5 9 11 1.66 0.19
-5 9 11 1.7 0.19
-4 9 11 11.05 0.38
-3 9 11 4.86 0.26
-2 9 11 3.65 0.23
-1 -9 11 11.75 0.39
-1 9 11 12.17 0.37
0 -9 11 1.61 0.18
0 -9 11 1.44 0.17
0 9 11 1.46 0.16
1 -9 11 1.4 0.18
1 -9 11 1.9 0.2
1 9 11 1.54 0.16
1 9 11 1.64 0.1
2 -9 11 0.83 0.14
2 -9 11 0.97 0.15
2 9 11 1 0.1
2 9 11 1 0.14
3 -9 11 4.07 0.27
-3 -9 -11 3.98 0.23
3 -9 11 4.06 0.26
3 9 11 3.94 0.23
3 9 11 3.81 0.17
-4 -9 -11 0 0.08
4 -9 11 0.03 0.09
4 -9 11 0.06 0.05
4 -9 11 -0.1 0.07
4 9 11 0.13 0.09
4 9 11 0.09 0.06
-5 -9 -11 0.35 0.1
5 -9 11 0.45 0.13
5 -9 11 0.34 0.11
5 -9 11 0.33 0.08
5 9 11 0.44 0.12
5 9 11 0.33 0.09
-5 9 -11 0.46 0.11
6 -9 11 0.91 0.17
6 -9 11 1.22 0.18
6 9 11 0.94 0.15
-7 10 11 0.4 0.13
-7 10 11 0.69 0.15
-6 10 11 3.49 0.26
-6 10 11 2.92 0.23
-5 10 11 3.37 0.26
-4 10 11 7.66 0.34
-3 10 11 6.52 0.31
-2 10 11 4.37 0.26
-1 10 11 0.16 0.1
0 -10 11 0.73 0.13
0 10 11 0.35 0.11
1 -10 11 0.82 0.14
1 -10 11 0.42 0.11
1 10 11 0.58 0.13
1 10 11 0.61 0.07
2 -10 11 0.66 0.13
-2 -10 -11 0.63 0.12
2 -10 11 0.76 0.15
2 10 11 0.72 0.08
2 10 11 0.62 0.13
3 -10 11 1.06 0.16
-3 -10 -11 0.77 0.12
3 -10 11 0.74 0.15
3 10 11 0.73 0.13
3 10 11 1.08 0.11
4 -10 11 1.48 0.12
4 -10 11 1.24 0.17
4 -10 11 0.85 0.15
4 10 11 1.27 0.16
-4 11 11 -0.08 0.08
-3 11 11 0.69 0.14
-2 11 11 4.33 0.27
-1 11 11 1.67 0.19
0 11 11 0.35 0.11
1 -11 11 0.26 0.11
1 11 11 0.41 0.12
2 -11 11 0.2 0.1
2 -11 11 0.19 0.11
2 11 11 0.39 0.11
-10 0 12 0.23 0.09
-9 0 12 4.63 0.25
-8 0 12 1.58 0.18
-7 0 12 8.7 0.33
-6 0 12 2.33 0.19
-5 0 12 3 0.2
-5 0 12 2.77 0.19
-4 0 12 0.16 0.08
-4 0 12 0.19 0.09
-3 0 12 0.11 0.07
-3 0 12 0.09 0.07
-2 0 12 0.1 0.07
-2 0 12 0.06 0.07
-1 0 12 1 0.13
-1 0 12 0.8 0.12
0 0 12 4.5 0.22
1 0 12 0.55 0.1
1 0 12 0.64 0.11
2 0 12 4.93 0.19
2 0 12 4.59 0.23
2 0 12 4.45 0.14
2 0 12 4.2 0.22
3 0 12 28.1 0.57
3 0 12 28.73 0.48
3 0 12 28.36 0.43
3 0 12 28.93 0.57
4 0 12 10.43 0.28
4 0 12 10.71 0.27
4 0 12 10.69 0.42
4 0 12 10.76 0.34
5 0 12 0.08 0.07
-5 0 -12 0.28 0.1
5 0 12 0.07 0.06
6 0 12 7.37 0.26
-6 0 -12 7.56 0.29
6 0 12 7.26 0.26
7 0 12 4.52 0.23
-7 0 -12 4.51 0.24
7 0 12 4.52 0.22
-8 0 -12 0.06 0.09
8 0 12 -0.05 0.07
8 0 12 -0.01 0.08
-9 0 -12 0.74 0.1
9 0 12 0.67 0.12
9 0 12 0.83 0.13
10 0 12 0.05 0.09
-11 1 12 4.64 0.26
-10 1 12 13.57 0.42
-9 -1 12 1.33 0.16
-9 1 12 1.59 0.18
-8 -1 12 5.35 0.26
-8 1 12 4.83 0.26
-7 -1 12 10.01 0.35
-7 1 12 9.85 0.35
-6 -1 12 6.2 0.28
-6 1 12 6.32 0.28
-5 -1 12 7.47 0.29
-5 -1 12 7.41 0.29
-5 1 12 7.6 0.3
-4 -1 12 9.75 0.33
-4 -1 12 9.61 0.33
-4 1 12 10.13 0.34
-4 1 12 10.1 0.34
-3 -1 12 13.67 0.38
-3 -1 12 13.71 0.39
-3 1 12 13.39 0.38
-3 1 12 13.79 0.39
-2 -1 12 11.15 0.34
-2 -1 12 10.74 0.34
-2 1 12 11.56 0.35
-2 1 12 11.3 0.35
-1 -1 12 3.04 0.2
-1 -1 12 2.87 0.19
-1 1 12 2.7 0.18
-1 1 12 2.71 0.18
0 -1 12 0.72 0.12
0 -1 12 0.49 0.1
0 1 12 0.51 0.1
0 1 12 0.58 0.11
1 -1 12 11.96 0.36
1 -1 12 11.45 0.35
1 1 12 12.04 0.18
1 1 12 11.71 0.35
1 1 12 10.98 0.34
2 -1 12 9.32 0.32
2 -1 12 9.48 0.2
2 -1 12 9.21 0.32
2 1 12 9.54 0.2
2 1 12 9.32 0.31
3 -1 12 6.7 0.28
3 -1 12 6.63 0.28
3 -1 12 6.4 0.23
3 -1 12 6.78 0.2
3 1 12 6.35 0.2
3 1 12 6.87 0.27
3 1 12 6.82 0.22
3 1 12 6.28 0.3
4 -1 12 1.91 0.15
4 -1 12 1.64 0.16
4 -1 12 1.63 0.17
4 -1 12 1.95 0.14
4 1 12 1.92 0.13
4 1 12 1.73 0.14
5 -1 12 1.62 0.17
-5 -1 -12 1.5 0.15
5 -1 12 1.68 0.15
5 -1 12 1.59 0.14
5 1 12 1.61 0.14
5 1 12 1.77 0.14
-5 1 -12 1.75 0.16
6 -1 12 2.19 0.17
6 -1 12 2.3 0.17
-6 -1 -12 2.01 0.17
-6 1 -12 2.27 0.18
6 1 12 1.98 0.16
6 1 12 2.14 0.17
-7 -1 -12 0.31 0.1
7 -1 12 0.46 0.1
7 -1 12 0.51 0.11
7 1 12 0.43 0.1
-7 1 -12 0.4 0.11
7 1 12 0.46 0.1
-8 -1 -12 1.76 0.15
8 -1 12 1.96 0.18
8 -1 12 2.04 0.18
8 1 12 2.07 0.17
8 1 12 1.64 0.16
-8 1 -12 1.91 0.16
9 -1 12 2.72 0.2
-9 -1 -12 2.78 0.17
9 -1 12 2.91 0.2
-9 1 -12 2.58 0.17
9 1 12 2.82 0.2
9 1 12 2.51 0.19
10 -1 12 0.59 0.13
10 1 12 0.65 0.13
-12 2 12 0.8 0.13
-11 2 12 1.52 0.18
-11 2 12 1.5 0.19
-10 2 12 8.63 0.34
-9 2 12 4.22 0.24
-8 -2 12 21.37 0.51
-8 2 12 21.99 0.53
-7 -2 12 38.6 0.7
-7 2 12 38.92 0.72
-6 -2 12 10.11 0.34
-6 -2 12 9.44 0.33
-6 2 12 9.86 0.35
-5 -2 12 3.37 0.21
-5 -2 12 3.77 0.22
-5 2 12 4.07 0.23
-4 -2 12 10.73 0.35
-4 -2 12 10.83 0.34
-4 2 12 11.21 0.36
-3 -2 12 5.65 0.25
-3 -2 12 6 0.26
-3 2 12 5.65 0.26
-3 2 12 5.48 0.25
-2 -2 12 4.26 0.22
-2 -2 12 3.86 0.22
-2 2 12 3.83 0.21
-2 2 12 3.8 0.21
-1 -2 12 4.43 0.22
-1 -2 12 4.55 0.24
-1 2 12 4.35 0.22
-1 2 12 4.65 0.23
0 -2 12 7.04 0.28
0 -2 12 6.36 0.27
0 2 12 6.8 0.27
0 2 12 6.42 0.26
1 -2 12 9.27 0.32
1 -2 12 9.05 0.32
1 2 12 9.26 0.31
1 2 12 9.18 0.31
1 2 12 9.37 0.16
2 -2 12 10.75 0.21
2 -2 12 10.51 0.34
2 -2 12 10.91 0.35
2 2 12 10.03 0.33
2 2 12 10.81 0.22
2 2 12 10.17 0.33
3 -2 12 0.72 0.08
3 -2 12 0.69 0.12
3 -2 12 0.64 0.11
3 -2 12 0.57 0.1
3 2 12 0.61 0.09
4 -2 12 7.71 0.26
4 -2 12 7.39 0.3
4 -2 12 7.79 0.31
4 -2 12 7.55 0.23
4 2 12 7.86 0.24
-5 -2 -12 0.17 0.09
5 -2 12 0.29 0.1
5 -2 12 0.29 0.08
5 -2 12 0.19 0.08
5 -2 12 0.29 0.1
-5 2 -12 0.34 0.1
5 2 12 0.29 0.08
5 2 12 0.29 0.09
6 -2 12 1.01 0.13
6 -2 12 1.12 0.13
-6 -2 -12 1.26 0.14
6 -2 12 1.18 0.15
6 2 12 1.23 0.14
6 2 12 1.31 0.13
-6 2 -12 1.25 0.14
7 -2 12 0.88 0.13
7 -2 12 1.09 0.14
7 -2 12 1.03 0.21
-7 -2 -12 0.97 0.13
7 2 12 1.37 0.15
-7 2 -12 1.27 0.15
7 2 12 1.04 0.13
8 -2 12 6.27 0.27
-8 -2 -12 6.41 0.25
8 -2 12 5.82 0.26
8 2 12 6.2 0.25
-8 2 -12 5.92 0.25
8 2 12 6.47 0.27
9 -2 12 0.42 0.11
-9 -2 -12 0.22 0.07
9 -2 12 0.22 0.09
9 2 12 0.28 0.1
-9 2 -12 0.38 0.09
9 2 12 0.57 0.12
-12 3 12 0.83 0.14
-11 3 12 21.41 0.55
-11 3 12 20.21 0.56
-10 3 12 9.8 0.37
-9 3 12 0.92 0.15
-8 3 12 11.05 0.38
-7 -3 12 6.88 0.29
-7 3 12 6.89 0.3
-6 -3 12 10.5 0.34
-6 -3 12 10.31 0.35
-6 3 12 10.83 0.37
-5 -3 12 10.45 0.34
-5 -3 12 11.55 0.36
-5 3 12 10.88 0.37
-4 -3 12 6.34 0.27
-4 -3 12 6.82 0.28
-4 3 12 6.49 0.28
-3 -3 12 11.83 0.36
-3 3 12 10.7 0.35
-2 -3 12 1.17 0.14
-2 -3 12 0.83 0.12
-2 3 12 1.1 0.14
-2 3 12 0.91 0.12
-1 -3 12 16.91 0.43
-1 -3 12 16.81 0.44
-1 3 12 17.55 0.43
-1 3 12 17.05 0.42
0 -3 12 5.49 0.26
0 -3 12 5.49 0.25
0 3 12 5.03 0.23
0 3 12 5.26 0.24
1 -3 12 8.18 0.31
1 -3 12 8.55 0.31
1 3 12 8.89 0.16
1 3 12 8.09 0.29
1 3 12 8.8 0.3
2 -3 12 5.19 0.26
2 -3 12 5.5 0.26
2 -3 12 5.45 0.14
2 3 12 5.27 0.16
3 -3 12 28.89 0.43
3 -3 12 28.89 0.6
3 -3 12 29.29 0.61
3 3 12 28.53 0.45
4 -3 12 3.6 0.22
4 -3 12 3.72 0.23
4 -3 12 3.18 0.16
4 -3 12 3.17 0.19
-4 -3 -12 3.53 0.28
4 3 12 3.64 0.18
5 -3 12 4.42 0.22
-5 -3 -12 4.58 0.24
5 -3 12 4.77 0.26
5 -3 12 4.24 0.25
5 -3 12 4.38 0.2
5 3 12 4.32 0.2
-5 3 -12 4.61 0.24
6 -3 12 0.09 0.09
-6 -3 -12 0.07 0.09
6 -3 12 0.26 0.1
6 -3 12 0.12 0.08
6 -3 12 0.35 0.1
-6 3 -12 0.23 0.1
6 3 12 0.17 0.08
7 -3 12 5.44 0.26
-7 -3 -12 5.94 0.26
7 -3 12 6.02 0.3
7 -3 12 6.21 0.26
-7 3 -12 6.26 0.27
7 3 12 5.71 0.25
7 3 12 5.85 0.24
8 -3 12 4.94 0.24
-8 -3 -12 5.14 0.23
8 -3 12 5.41 0.26
8 3 12 4.84 0.23
8 3 12 5.16 0.25
-8 3 -12 4.93 0.24
9 -3 12 2.98 0.24
9 -3 12 2.44 0.21
-9 -3 -12 2.76 0.2
9 3 12 2.68 0.2
9 3 12 3.09 0.2
-11 4 12 3.55 0.24
-11 4 12 3.19 0.29
-10 4 12 0.15 0.1
-9 4 12 1.15 0.17
-8 4 12 15.73 0.46
-7 4 12 11.18 0.38
-6 -4 12 2.07 0.19
-6 -4 12 2.14 0.19
-6 4 12 2.07 0.2
-5 -4 12 1.62 0.17
-5 -4 12 1.27 0.15
-5 4 12 1.37 0.16
-4 -4 12 2 0.19
-4 -4 12 1.57 0.17
-4 4 12 1.23 0.15
-3 -4 12 1.18 0.14
-3 -4 12 1.07 0.14
-3 4 12 1.07 0.14
-2 -4 12 0.66 0.12
-2 -4 12 0.78 0.13
-2 4 12 0.69 0.12
-1 -4 12 0.97 0.13
-1 -4 12 0.94 0.13
-1 4 12 1.09 0.14
0 -4 12 2.88 0.2
0 -4 12 2.71 0.2
0 4 12 2.44 0.19
0 4 12 2.93 0.19
1 -4 12 7.45 0.3
1 -4 12 7.36 0.3
1 4 12 7.34 0.15
2 -4 12 0.8 0.07
2 -4 12 0.72 0.13
2 -4 12 1.1 0.15
2 4 12 0.93 0.09
3 -4 12 4.92 0.26
3 -4 12 5.22 0.27
3 -4 12 5.06 0.17
3 4 12 4.95 0.18
-4 -4 -12 1.6 0.16
4 -4 12 1.71 0.18
4 -4 12 1.46 0.17
4 -4 12 1.54 0.13
4 4 12 1.87 0.15
-5 -4 -12 12.54 0.36
5 -4 12 11.82 0.4
5 -4 12 11.62 0.31
5 -4 12 11.72 0.4
5 4 12 11.32 0.32
-5 4 -12 12.49 0.36
6 -4 12 5.16 0.26
6 -4 12 5.14 0.28
6 -4 12 5.29 0.23
-6 -4 -12 5.21 0.25
6 -4 12 5.16 0.28
-6 4 -12 5.31 0.26
6 4 12 5.14 0.23
7 -4 12 1.73 0.18
-7 -4 -12 1.76 0.16
7 -4 12 1.9 0.21
7 -4 12 1.93 0.2
7 -4 12 1.88 0.17
7 4 12 1.57 0.16
-7 4 -12 1.6 0.16
8 -4 12 2.77 0.22
-8 -4 -12 2.62 0.18
8 -4 12 3.11 0.24
8 -4 12 2.78 0.2
-8 4 -12 2.71 0.2
8 4 12 2.58 0.2
9 -4 12 1.87 0.19
9 4 12 2.01 0.21
-11 5 12 3.46 0.24
-10 5 12 4.36 0.27
-9 5 12 3.73 0.25
-8 5 12 1.77 0.2
-7 5 12 9.93 0.37
-7 5 12 9.24 0.36
-6 5 12 4.88 0.27
-6 5 12 5.22 0.25
-5 -5 12 1.78 0.17
-5 -5 12 1.89 0.18
-5 5 12 1.89 0.15
-5 5 12 1.69 0.18
-4 -5 12 2.04 0.19
-4 -5 12 2.05 0.19
-4 5 12 1.7 0.17
-4 5 12 1.93 0.15
-3 -5 12 14 0.41
-3 -5 12 13.66 0.39
-3 5 12 12.93 0.34
-3 5 12 13.68 0.39
-2 -5 12 2.98 0.2
-2 -5 12 2.76 0.2
-2 5 12 3.08 0.2
-2 5 12 2.48 0.16
-1 -5 12 3.23 0.21
-1 -5 12 3.29 0.22
-1 5 12 3.18 0.2
-1 5 12 3.39 0.18
0 -5 12 0.3 0.1
0 -5 12 0.1 0.08
0 5 12 0.29 0.07
1 -5 12 1.13 0.16
1 -5 12 1.28 0.15
1 5 12 1.31 0.08
1 5 12 1.42 0.13
2 -5 12 4.59 0.25
2 -5 12 4.52 0.25
2 5 12 4.6 0.16
2 5 12 4.74 0.21
3 -5 12 9.9 0.36
3 -5 12 9.25 0.22
3 -5 12 9.54 0.36
3 5 12 9.59 0.25
3 5 12 9.65 0.3
-4 -5 -12 6.72 0.28
4 -5 12 7.01 0.32
4 -5 12 6.53 0.21
4 -5 12 7.25 0.32
4 5 12 6.59 0.23
4 5 12 6.72 0.26
-5 -5 -12 3.14 0.22
5 -5 12 3.03 0.24
5 -5 12 3.19 0.17
5 -5 12 3.13 0.24
-5 5 -12 3.05 0.21
5 5 12 3.03 0.2
5 5 12 3.06 0.19
6 -5 12 5.81 0.24
6 -5 12 6.17 0.31
-6 -5 -12 5.76 0.27
6 -5 12 5.55 0.31
-6 5 -12 5.85 0.27
6 5 12 5.87 0.25
6 5 12 5.95 0.27
7 -5 12 0.05 0.07
7 -5 12 0.1 0.09
-7 -5 -12 0.14 0.09
7 -5 12 0.16 0.1
7 5 12 0.12 0.08
7 5 12 0.22 0.09
-7 5 -12 0.17 0.1
8 -5 12 0.95 0.16
-8 -5 -12 1.03 0.14
8 -5 12 1.04 0.16
8 -5 12 0.94 0.15
-8 5 -12 0.89 0.17
8 5 12 0.94 0.13
8 5 12 1.01 0.14
-10 6 12 0.97 0.17
-10 6 12 0.82 0.15
-9 6 12 2.25 0.22
-9 6 12 1.9 0.2
-8 6 12 1.1 0.16
-8 6 12 1.26 0.18
-7 6 12 14.17 0.43
-7 6 12 14.52 0.45
-6 6 12 2.27 0.21
-6 6 12 2.04 0.2
-5 6 12 6.08 0.27
-5 6 12 5.86 0.28
-4 -6 12 0.54 0.12
-4 -6 12 0.42 0.11
-4 6 12 0.41 0.11
-4 6 12 0.48 0.1
-3 -6 12 1.23 0.14
-3 -6 12 1.34 0.16
-3 6 12 1.23 0.15
-3 6 12 1.14 0.13
-2 -6 12 1.15 0.15
-2 -6 12 1.35 0.16
-2 6 12 1.39 0.14
-2 6 12 1.03 0.14
-1 -6 12 0.36 0.11
-1 -6 12 0.46 0.11
-1 6 12 0.26 0.07
0 -6 12 1.18 0.15
0 -6 12 1 0.14
0 6 12 1.29 0.13
1 -6 12 3.49 0.23
1 -6 12 3.59 0.23
1 6 12 3.71 0.19
1 6 12 3.33 0.11
2 -6 12 4.2 0.25
2 -6 12 4.79 0.26
2 6 12 4.42 0.16
2 6 12 4.26 0.21
3 -6 12 0.74 0.08
3 -6 12 0.57 0.13
3 -6 12 0.68 0.14
3 6 12 0.82 0.12
3 6 12 0.47 0.08
4 -6 12 6.09 0.2
-4 -6 -12 5.93 0.27
4 -6 12 6.3 0.32
4 -6 12 6.29 0.31
4 6 12 5.94 0.22
4 6 12 5.92 0.25
5 -6 12 0.1 0.06
5 -6 12 0.15 0.1
5 -6 12 0.44 0.13
-5 -6 -12 0.23 0.1
5 6 12 0.1 0.08
5 6 12 0.27 0.08
-5 6 -12 0.31 0.11
-6 -6 -12 0.61 0.12
6 -6 12 0.58 0.13
6 -6 12 0.55 0.14
6 -6 12 0.49 0.1
6 6 12 0.61 0.11
6 6 12 0.74 0.13
-6 6 -12 0.48 0.12
7 -6 12 1.09 0.14
-7 -6 -12 1.12 0.13
7 -6 12 0.65 0.15
7 -6 12 0.84 0.15
7 6 12 0.79 0.13
-7 6 -12 0.87 0.14
7 6 12 0.94 0.12
8 -6 12 1.68 0.2
8 -6 12 1.58 0.2
8 6 12 1.66 0.18
-9 7 12 3.57 0.26
-9 7 12 3.26 0.25
-8 7 12 3.23 0.24
-8 7 12 3.2 0.25
-7 7 12 1.1 0.16
-7 7 12 1.36 0.17
-6 7 12 0.24 0.1
-6 7 12 0.09 0.09
-5 7 12 2.34 0.2
-5 7 12 2.52 0.21
-4 7 12 0.5 0.12
-4 7 12 0.3 0.09
-3 -7 12 1.92 0.19
-3 7 12 1.99 0.18
-3 7 12 1.61 0.17
-2 -7 12 2.58 0.2
-2 -7 12 2.43 0.2
-2 7 12 2.44 0.19
-1 -7 12 18.05 0.48
-1 -7 12 18.86 0.5
-1 7 12 18.55 0.44
0 -7 12 8.75 0.34
0 -7 12 8.83 0.35
0 7 12 8.7 0.3
1 -7 12 1.15 0.16
1 -7 12 1.16 0.16
1 7 12 1.08 0.14
1 7 12 1.22 0.08
2 -7 12 0.43 0.12
2 -7 12 0.41 0.12
2 7 12 0.31 0.09
2 7 12 0.35 0.06
3 -7 12 1.5 0.18
3 -7 12 1.66 0.1
-3 -7 -12 1.71 0.24
3 -7 12 1.71 0.19
3 7 12 1.83 0.13
3 7 12 1.87 0.17
4 -7 12 0.34 0.07
4 -7 12 0.27 0.11
-4 -7 -12 0.15 0.1
4 -7 12 0.17 0.11
4 7 12 0.25 0.08
4 7 12 0.26 0.1
5 -7 12 0.9 0.1
5 -7 12 1.1 0.17
-5 -7 -12 1.14 0.14
5 -7 12 1.16 0.18
5 7 12 1.02 0.12
5 7 12 1.05 0.14
-5 7 -12 0.8 0.13
-6 -7 -12 0.33 0.11
6 -7 12 0.41 0.13
6 -7 12 0.3 0.12
6 -7 12 0.34 0.09
6 7 12 0.29 0.09
-6 7 -12 0.49 0.11
6 7 12 0.27 0.1
7 -7 12 0.32 0.12
7 -7 12 0.26 0.12
7 7 12 0.42 0.11
-8 8 12 5.96 0.32
-8 8 12 6.39 0.32
-7 8 12 2.41 0.23
-7 8 12 2.77 0.24
-6 8 12 1.08 0.16
-6 8 12 1.01 0.15
-5 8 12 4.08 0.26
-5 8 12 4.19 0.25
-4 8 12 4.4 0.25
-4 8 12 4 0.24
-3 8 12 4 0.23
-2 -8 12 13.63 0.43
-2 8 12 13.51 0.39
-1 -8 12 4.66 0.27
-1 -8 12 4.63 0.26
-1 8 12 4.77 0.24
0 -8 12 0.08 0.09
0 -8 12 -0.01 0.09
0 8 12 0.06 0.08
1 -8 12 1.11 0.16
1 -8 12 1.12 0.16
1 8 12 1.09 0.14
1 8 12 1.03 0.07
2 -8 12 1.15 0.17
2 -8 12 1.16 0.17
2 8 12 1.07 0.14
2 8 12 1.13 0.1
-3 -8 -12 2.15 0.19
3 -8 12 2.17 0.22
3 -8 12 2.03 0.21
3 8 12 2.1 0.13
3 8 12 2.27 0.18
-4 -8 -12 0.49 0.11
4 -8 12 0.78 0.15
4 -8 12 0.52 0.07
4 -8 12 0.44 0.12
4 8 12 0.65 0.1
4 8 12 0.83 0.13
5 -8 12 1.33 0.11
-5 -8 -12 1.34 0.15
5 -8 12 1.01 0.17
5 -8 12 1.07 0.18
-5 8 -12 1.16 0.15
5 8 12 1.12 0.12
5 8 12 1.06 0.16
6 -8 12 0.66 0.15
6 -8 12 0.71 0.16
6 8 12 0.65 0.13
-7 9 12 2.06 0.21
-7 9 12 1.88 0.22
-6 9 12 0.03 0.09
-6 9 12 0.09 0.09
-5 9 12 8.24 0.35
-5 9 12 8.06 0.33
-4 9 12 14.6 0.44
-3 9 12 1.23 0.17
-2 9 12 6.41 0.29
-1 -9 12 5 0.28
-1 9 12 5.45 0.27
0 -9 12 0.35 0.11
0 -9 12 0.04 0.08
0 9 12 0.05 0.08
1 -9 12 0.94 0.15
1 -9 12 0.95 0.15
1 9 12 1.04 0.14
2 -9 12 4.95 0.29
2 -9 12 4.81 0.28
2 9 12 4.69 0.26
2 9 12 4.61 0.15
-3 -9 -12 0.51 0.11
3 -9 12 0.7 0.14
3 -9 12 0.57 0.14
3 9 12 0.65 0.13
3 9 12 0.48 0.08
4 -9 12 0.98 0.16
4 -9 12 1.07 0.17
4 9 12 1.16 0.16
5 -9 12 0.52 0.13
5 -9 12 0.58 0.14
5 9 12 0.73 0.13
-5 10 12 2.58 0.24
-4 10 12 2.75 0.24
-3 10 12 5.83 0.3
-2 10 12 1.56 0.18
-1 10 12 9.44 0.36
0 -10 12 0.8 0.14
0 10 12 0.8 0.15
1 -10 12 2.5 0.23
1 -10 12 3.02 0.24
1 10 12 2.59 0.22
2 -10 12 2.3 0.23
2 -10 12 2.45 0.23
2 10 12 1.73 0.18
3 -10 12 0.67 0.14
3 -10 12 0.51 0.13
3 10 12 0.75 0.14
-10 0 13 -0.03 0.07
-9 0 13 0.04 0.08
-8 0 13 12.74 0.41
-7 0 13 7.87 0.33
-6 0 13 25.07 0.58
-5 0 13 4.28 0.26
-5 0 13 4.64 0.25
-4 0 13 -0.01 0.07
-4 0 13 -0.02 0.07
-3 0 13 4.34 0.24
-3 0 13 3.83 0.23
-2 0 13 0.35 0.1
-2 0 13 0.39 0.1
-1 0 13 3.88 0.23
-1 0 13 3.91 0.23
0 0 13 0.98 0.14
0 0 13 1.31 0.17
1 0 13 0.34 0.1
1 0 13 0.35 0.1
2 0 13 0.3 0.1
2 0 13 0.17 0.09
2 0 13 0.11 0.04
3 0 13 4.73 0.16
3 0 13 4.62 0.24
3 0 13 4.85 0.21
3 0 13 4.56 0.25
4 0 13 2.9 0.15
4 0 13 3.17 0.18
4 0 13 3.11 0.21
-5 0 -13 11.56 0.35
5 0 13 10.66 0.31
5 0 13 10.66 0.29
6 0 13 0.71 0.11
6 0 13 0.55 0.1
-6 0 -13 0.74 0.13
7 0 13 0.46 0.1
-7 0 -13 0.56 0.12
7 0 13 0.69 0.12
8 0 13 0.05 0.08
8 0 13 -0.02 0.07
-8 0 -13 0.03 0.08
9 0 13 1.91 0.18
-11 1 13 1.08 0.15
-10 1 13 2.16 0.22
-9 -1 13 1.02 0.15
-9 1 13 1 0.15
-8 -1 13 1.62 0.18
-8 1 13 1.63 0.19
-7 -1 13 7.72 0.32
-7 1 13 7.29 0.32
-6 -1 13 28.16 0.61
-6 1 13 27.6 0.61
-5 -1 13 9.55 0.35
-5 -1 13 9.73 0.35
-5 1 13 9.08 0.34
-4 -1 13 0.06 0.07
-4 -1 13 0.06 0.08
-4 1 13 -0.05 0.07
-4 1 13 0.06 0.08
-3 -1 13 6.38 0.28
-3 -1 13 6.47 0.29
-3 1 13 6.64 0.29
-3 1 13 6.23 0.29
-2 -1 13 5.45 0.27
-2 -1 13 5.05 0.26
-2 1 13 4.9 0.25
-2 1 13 4.9 0.25
-1 -1 13 1.68 0.17
-1 -1 13 1.39 0.16
-1 1 13 1.26 0.16
-1 1 13 1.23 0.15
0 -1 13 1.03 0.14
0 -1 13 1.09 0.14
0 1 13 0.86 0.13
0 1 13 1.03 0.14
1 -1 13 0.04 0.08
1 -1 13 -0.01 0.07
1 1 13 0.08 0.07
1 1 13 0.05 0.07
2 -1 13 6.67 0.15
2 -1 13 6.62 0.29
2 -1 13 7.23 0.3
2 1 13 6.82 0.29
2 1 13 6.65 0.28
2 1 13 6.92 0.16
3 -1 13 10.07 0.3
3 -1 13 10.09 0.23
3 -1 13 10.87 0.37
3 -1 13 10.26 0.36
3 1 13 9.87 0.35
3 1 13 10.1 0.23
4 -1 13 5.42 0.27
4 -1 13 5.6 0.27
4 -1 13 5.18 0.23
4 -1 13 4.88 0.19
4 1 13 5.14 0.19
4 1 13 5.48 0.22
5 -1 13 1.55 0.14
-5 -1 -13 1.57 0.16
5 -1 13 1.57 0.15
5 -1 13 1.45 0.17
5 1 13 1.63 0.14
5 1 13 1.5 0.14
-5 1 -13 1.27 0.16
-6 -1 -13 2.43 0.19
6 -1 13 3.2 0.19
6 -1 13 2.71 0.2
6 1 13 3.12 0.19
6 1 13 2.85 0.18
-6 1 -13 2.88 0.23
-7 -1 -13 0.66 0.12
7 -1 13 0.29 0.09
7 -1 13 0.34 0.1
7 1 13 0.44 0.1
7 1 13 0.41 0.1
-7 1 -13 0.65 0.13
-8 -1 -13 1.25 0.14
8 -1 13 1.61 0.16
8 -1 13 1.41 0.16
8 1 13 1.31 0.15
-8 1 -13 1.34 0.14
8 1 13 1.34 0.15
9 -1 13 0.86 0.14
9 1 13 0.76 0.13
-11 2 13 3.51 0.24
-10 2 13 6.69 0.32
-9 2 13 0.94 0.16
-8 -2 13 0.13 0.08
-8 2 13 0.34 0.11
-7 -2 13 0.75 0.13
-7 2 13 0.88 0.15
-6 -2 13 1.82 0.19
-6 -2 13 2.12 0.2
-6 2 13 1.87 0.2
-5 -2 13 8.92 0.34
-5 -2 13 9.34 0.34
-5 2 13 9.15 0.35
-4 -2 13 4.91 0.26
-4 -2 13 4.86 0.26
-4 2 13 4.98 0.26
-3 -2 13 11.31 0.38
-3 -2 13 11.55 0.38
-3 2 13 11.82 0.38
-3 2 13 12.25 0.39
-2 -2 13 3.88 0.23
-2 -2 13 4.36 0.25
-2 2 13 4.07 0.23
-2 2 13 4.12 0.23
-1 -2 13 8.37 0.32
-1 -2 13 8.54 0.32
-1 2 13 8.15 0.31
-1 2 13 7.56 0.31
0 -2 13 4.68 0.25
0 -2 13 4.45 0.25
0 2 13 4.31 0.23
0 2 13 4.32 0.24
1 -2 13 5.64 0.27
1 -2 13 5.61 0.27
1 2 13 5.57 0.26
1 2 13 5.27 0.25
2 -2 13 0.32 0.1
2 -2 13 0.25 0.1
2 2 13 0.33 0.05
2 2 13 0.34 0.1
3 -2 13 8.06 0.2
3 -2 13 7.58 0.32
3 -2 13 7.95 0.33
3 2 13 7.75 0.21
4 -2 13 8.23 0.33
4 -2 13 7.65 0.32
4 -2 13 7.16 0.22
4 -2 13 7.67 0.28
4 2 13 7.78 0.23
5 -2 13 8.52 0.3
-5 -2 -13 8.81 0.31
5 -2 13 8.93 0.35
5 -2 13 8.97 0.35
5 -2 13 8.36 0.26
-5 2 -13 8.44 0.41
5 2 13 8.49 0.27
-6 -2 -13 2.29 0.2
6 -2 13 2.29 0.17
6 -2 13 2.14 0.21
6 -2 13 2.83 0.2
6 2 13 2.56 0.18
6 2 13 2.63 0.18
-6 2 -13 2.32 0.19
7 -2 13 4.62 0.22
7 -2 13 4.53 0.25
-7 -2 -13 4.89 0.25
7 2 13 4.59 0.22
7 2 13 4.78 0.23
-7 2 -13 5.2 0.26
8 -2 13 -0.02 0.07
8 -2 13 -0.08 0.08
-8 -2 -13 0.25 0.1
-8 2 -13 0.21 0.1
8 2 13 -0.06 0.07
8 2 13 0.01 0.08
-11 3 13 0.42 0.11
-10 3 13 4.38 0.27
-9 3 13 8.36 0.35
-8 -3 13 0.38 0.15
-8 3 13 0.47 0.12
-7 -3 13 5.54 0.27
-7 3 13 6.5 0.3
-6 -3 13 23.96 0.55
-6 -3 13 23.47 0.54
-6 3 13 23.19 0.56
-5 -3 13 6.38 0.29
-5 -3 13 6.64 0.3
-5 3 13 6.89 0.31
-4 -3 13 0.35 0.1
-4 -3 13 0.35 0.11
-4 3 13 0.4 0.11
-3 -3 13 1.36 0.17
-3 -3 13 1.54 0.17
-3 3 13 1.42 0.17
-2 -3 13 13.7 0.42
-2 -3 13 13.89 0.41
-2 3 13 13.47 0.4
-1 -3 13 5.22 0.26
-1 -3 13 4.75 0.26
-1 3 13 4.71 0.24
-1 3 13 5.01 0.26
0 -3 13 1.51 0.17
0 -3 13 1.65 0.18
0 3 13 1.88 0.18
0 3 13 1.88 0.18
1 -3 13 0.19 0.09
1 -3 13 0.24 0.1
1 3 13 0.3 0.1
2 -3 13 22.4 0.55
2 -3 13 22.29 0.54
2 3 13 21.98 0.32
3 -3 13 5.51 0.28
3 -3 13 4.83 0.15
3 -3 13 4.86 0.27
3 3 13 4.94 0.17
4 -3 13 8.04 0.33
4 -3 13 8.36 0.34
4 -3 13 7.68 0.22
4 3 13 7.61 0.23
5 -3 13 0.16 0.09
5 -3 13 -0.03 0.08
-5 -3 -13 -0.02 0.09
5 -3 13 0.02 0.06
5 3 13 0.12 0.07
6 -3 13 6.18 0.31
6 -3 13 5.9 0.31
-6 -3 -13 6.49 0.28
6 -3 13 6.3 0.28
6 -3 13 5.84 0.24
6 3 13 5.94 0.24
-6 3 -13 5.75 0.27
7 -3 13 6.6 0.26
7 -3 13 6.91 0.3
7 -3 13 6.39 0.32
-7 -3 -13 7.05 0.28
7 3 13 6.93 0.27
-7 3 -13 7.02 0.29
8 -3 13 1.69 0.18
-10 4 13 5.8 0.31
-9 4 13 3.56 0.24
-8 4 13 0.71 0.14
-7 -4 13 0.64 0.15
-7 4 13 0.75 0.14
-6 -4 13 7.2 0.3
-6 -4 13 7.22 0.31
-6 4 13 7.11 0.32
-5 -4 13 1.5 0.17
-5 -4 13 1.5 0.18
-5 4 13 1.39 0.17
-4 -4 13 3.2 0.22
-4 -4 13 2.93 0.21
-4 4 13 3.31 0.23
-3 -4 13 1.37 0.16
-3 -4 13 1.68 0.18
-3 4 13 1.42 0.17
-2 -4 13 1.4 0.17
-2 -4 13 1.33 0.16
-2 4 13 1.36 0.16
-1 -4 13 0.27 0.1
-1 -4 13 0.23 0.1
-1 4 13 0.36 0.1
0 -4 13 8.49 0.33
0 -4 13 8.33 0.33
1 -4 13 2 0.2
1 -4 13 1.84 0.19
2 -4 13 2.63 0.21
2 -4 13 2.3 0.21
2 4 13 2.35 0.11
3 -4 13 0.83 0.14
3 -4 13 0.72 0.07
3 -4 13 0.73 0.14
3 4 13 0.85 0.09
4 -4 13 2.3 0.22
4 -4 13 2.08 0.13
4 -4 13 2.18 0.22
4 4 13 2.04 0.14
5 -4 13 9.67 0.38
5 -4 13 9.32 0.27
-5 -4 -13 9.71 0.33
5 -4 13 9.18 0.37
5 4 13 9.56 0.28
-6 -4 -13 0.38 0.11
6 -4 13 0.3 0.11
6 -4 13 0.46 0.13
6 -4 13 0.36 0.09
-6 4 -13 0.42 0.12
6 4 13 0.55 0.11
-7 -4 -13 0.02 0.1
7 -4 13 0.17 0.1
7 -4 13 0.13 0.08
7 -4 13 0.18 0.1
-7 4 -13 0.04 0.09
7 4 13 0.02 0.08
8 -4 13 1.31 0.17
8 -4 13 1.07 0.16
-10 5 13 7.21 0.33
-9 5 13 7.13 0.34
-8 5 13 0.43 0.13
-7 5 13 10.08 0.38
-6 -5 13 7.82 0.33
-6 5 13 8.31 0.35
-5 -5 13 8.12 0.33
-5 -5 13 7.18 0.31
-5 5 13 7.13 0.31
-4 -5 13 2.96 0.22
-4 -5 13 3.05 0.22
-4 5 13 3.12 0.23
-3 -5 13 1.08 0.15
-3 -5 13 0.85 0.14
-3 5 13 0.64 0.12
-2 -5 13 0.12 0.09
-2 -5 13 0.15 0.09
-2 5 13 0.12 0.08
-1 -5 13 4.36 0.25
-1 -5 13 3.74 0.24
0 -5 13 7.11 0.32
0 -5 13 7.4 0.31
1 -5 13 0.65 0.13
1 -5 13 0.77 0.14
2 -5 13 15.76 0.48
2 -5 13 16.9 0.48
2 5 13 15.83 0.27
3 -5 13 12.36 0.42
3 -5 13 12.03 0.42
3 5 13 12.12 0.27
4 -5 13 4.59 0.17
-4 -5 -13 5 0.26
4 -5 13 5.13 0.29
4 -5 13 4.55 0.28
4 5 13 4.94 0.19
5 -5 13 6.35 0.22
5 -5 13 6.11 0.32
-5 -5 -13 6.12 0.28
5 -5 13 6.65 0.33
5 5 13 6.69 0.24
6 -5 13 2.54 0.25
6 -5 13 2.69 0.17
-6 -5 -13 2.73 0.21
6 -5 13 3.23 0.25
6 5 13 2.77 0.18
-6 5 -13 3.09 0.22
7 -5 13 0.93 0.15
7 -5 13 1.11 0.17
-9 6 13 3.96 0.27
-8 6 13 0.41 0.12
-7 6 13 5.63 0.31
-6 6 13 5.01 0.28
-6 6 13 4.97 0.41
-5 -6 13 7.58 0.33
-5 6 13 7.03 0.31
-5 6 13 6.97 0.32
-4 -6 13 0.35 0.11
-4 -6 13 0.63 0.12
-4 6 13 0.57 0.12
-4 6 13 0.65 0.11
-3 -6 13 0.34 0.1
-3 -6 13 0.37 0.11
-3 6 13 0.27 0.09
-3 6 13 0.38 0.11
-2 -6 13 0.96 0.15
-2 -6 13 0.77 0.14
-2 6 13 1.13 0.13
-1 -6 13 5.2 0.28
-1 -6 13 5.41 0.29
-1 6 13 5.66 0.24
0 -6 13 7.43 0.33
0 -6 13 7.6 0.33
0 6 13 7.18 0.26
1 -6 13 3.27 0.23
1 -6 13 3.13 0.23
1 6 13 2.85 0.19
2 -6 13 1.72 0.19
2 -6 13 2.07 0.22
2 6 13 1.73 0.1
2 6 13 1.74 0.16
3 -6 13 6.57 0.32
3 -6 13 6.97 0.33
3 6 13 6.64 0.27
3 6 13 6.35 0.2
4 -6 13 4.14 0.15
-4 -6 -13 4.27 0.25
4 -6 13 4 0.28
4 -6 13 4.42 0.29
4 6 13 4.16 0.18
4 6 13 4.33 0.23
5 -6 13 0.27 0.07
-5 -6 -13 0.32 0.11
5 -6 13 0.23 0.11
5 -6 13 0.26 0.12
5 6 13 0.26 0.09
5 6 13 0.38 0.09
6 -6 13 -0.15 0.08
6 -6 13 0.03 0.06
6 -6 13 0.16 0.1
-6 -6 -13 0.21 0.11
6 6 13 0.15 0.09
6 6 13 0.05 0.08
-6 6 -13 0.08 0.09
-8 7 13 3.71 0.26
-8 7 13 3.51 0.26
-7 7 13 2.18 0.22
-7 7 13 2.42 0.24
-6 7 13 1.88 0.21
-6 7 13 2.03 0.2
-5 7 13 1.39 0.17
-5 7 13 1.53 0.18
-4 -7 13 1.99 0.21
-4 7 13 1.96 0.19
-4 7 13 2 0.2
-3 -7 13 8.9 0.36
-3 -7 13 8.99 0.35
-3 7 13 8.55 0.32
-2 -7 13 8.37 0.35
-2 -7 13 7.84 0.33
-2 7 13 8.55 0.31
-1 -7 13 2.89 0.24
-1 -7 13 3.33 0.24
-1 7 13 2.92 0.2
0 -7 13 2.98 0.25
0 -7 13 2.58 0.22
0 7 13 2.59 0.19
1 -7 13 0.58 0.14
1 -7 13 0.41 0.13
1 7 13 0.53 0.1
2 -7 13 0.48 0.13
2 -7 13 0.61 0.13
2 7 13 0.64 0.07
2 7 13 0.43 0.1
3 -7 13 2.46 0.24
3 -7 13 2.4 0.23
3 7 13 2.24 0.13
3 7 13 2.4 0.18
4 -7 13 5.71 0.31
4 -7 13 5.63 0.32
-4 -7 -13 5.68 0.27
4 7 13 5.76 0.2
4 7 13 5.81 0.26
5 -7 13 0.9 0.17
5 -7 13 0.65 0.08
-5 -7 -13 0.64 0.14
5 -7 13 0.8 0.16
5 7 13 0.64 0.13
-5 7 -13 0.78 0.17
5 7 13 0.77 0.13
6 -7 13 0.8 0.16
6 -7 13 1.19 0.19
6 7 13 0.87 0.14
-7 8 13 2.32 0.24
-7 8 13 1.77 0.21
-6 8 13 3.38 0.24
-6 8 13 3.4 0.24
-5 8 13 6.23 0.3
-5 8 13 6.22 0.3
-4 8 13 4.93 0.27
-3 -8 13 12.8 0.44
-3 8 13 13.22 0.4
-2 -8 13 2.39 0.31
-2 -8 13 2 0.2
-2 8 13 1.88 0.19
-1 -8 13 7.07 0.34
-1 -8 13 7.71 0.34
-1 8 13 7.85 0.31
0 -8 13 15.64 0.48
0 -8 13 14.94 0.46
0 8 13 14.42 0.41
1 -8 13 1.73 0.19
1 -8 13 1.81 0.21
1 8 13 2.05 0.19
2 -8 13 2.2 0.23
2 -8 13 2.3 0.23
2 8 13 2.37 0.2
2 8 13 2.26 0.1
-3 -8 -13 6.09 0.3
3 -8 13 5.52 0.32
3 -8 13 6.01 0.32
3 8 13 5.47 0.17
3 8 13 5.53 0.27
4 -8 13 0.17 0.11
4 -8 13 -0.03 0.09
4 8 13 0.03 0.07
-5 9 13 1.27 0.18
-4 9 13 1.9 0.2
-3 9 13 4.17 0.26
-2 -9 13 5.51 0.37
-2 9 13 6.81 0.3
-1 -9 13 1.06 0.16
-1 9 13 1.14 0.16
0 -9 13 7.46 0.34
0 -9 13 6.79 0.34
0 9 13 7.18 0.3
1 -9 13 0.57 0.14
1 -9 13 0.84 0.15
1 9 13 0.82 0.13
2 -9 13 -0.05 0.08
2 -9 13 0 0.09
2 9 13 0.07 0.08
3 -9 13 0.86 0.16
3 -9 13 1.09 0.17
3 9 13 0.88 0.14
-10 0 14 3.95 0.25
-9 0 14 7.35 0.33
-8 0 14 1.17 0.17
-7 0 14 11.1 0.4
-6 0 14 5.98 0.3
-5 0 14 0.62 0.13
-4 0 14 13.93 0.43
-4 0 14 13.95 0.44
-3 0 14 0.03 0.09
-3 0 14 -0.06 0.08
-2 0 14 22.44 0.56
-2 0 14 23.14 0.56
-1 0 14 0.08 0.09
-1 0 14 -0.04 0.07
0 0 14 1.25 0.16
0 0 14 0.93 0.14
1 0 14 -0.01 0.07
1 0 14 0.04 0.09
2 0 14 0.78 0.14
2 0 14 0.81 0.14
3 0 14 1.43 0.09
3 0 14 1.75 0.19
3 0 14 1.46 0.17
4 0 14 0.09 0.05
4 0 14 0.15 0.09
4 0 14 0.05 0.08
-5 0 -14 -0.06 0.15
5 0 14 -0.11 0.05
5 0 14 -0.09 0.06
6 0 14 0.42 0.09
-6 0 -14 0.4 0.12
6 0 14 0.73 0.13
7 0 14 1.41 0.16
-7 0 -14 1.51 0.17
7 0 14 1.5 0.16
-10 1 14 6.04 0.3
-9 -1 14 0.44 0.11
-9 1 14 0.26 0.11
-8 -1 14 1.21 0.17
-8 1 14 1.26 0.17
-7 -1 14 6.26 0.31
-7 1 14 6.08 0.31
-6 -1 14 2.25 0.22
-6 1 14 2.19 0.22
-5 -1 14 35.14 0.71
-5 -1 14 35.24 0.71
-5 1 14 35.13 0.72
-4 -1 14 6.7 0.31
-4 -1 14 6.44 0.31
-4 1 14 6.61 0.31
-3 -1 14 10.35 0.38
-3 -1 14 10.8 0.39
-3 1 14 10.41 0.37
-3 1 14 10.37 0.37
-2 -1 14 1.7 0.19
-2 -1 14 1.51 0.18
-2 1 14 1.98 0.21
-2 1 14 1.78 0.19
-1 -1 14 4.44 0.27
-1 -1 14 4.64 0.27
-1 1 14 5.06 0.27
-1 1 14 5.02 0.28
0 -1 14 4.52 0.26
0 -1 14 4.63 0.26
0 1 14 4.16 0.25
0 1 14 4.5 0.26
1 -1 14 2.17 0.21
1 -1 14 2.22 0.21
1 1 14 2.5 0.2
1 1 14 2.48 0.2
2 -1 14 1.61 0.18
2 -1 14 1.34 0.17
2 1 14 1.37 0.16
2 1 14 1.24 0.17
3 -1 14 1.73 0.19
3 -1 14 1.38 0.09
3 -1 14 1.51 0.18
3 1 14 1.69 0.19
3 1 14 1.55 0.09
4 -1 14 6.61 0.31
4 -1 14 6.98 0.32
4 -1 14 6.94 0.2
4 1 14 6.84 0.2
5 -1 14 0.19 0.1
5 -1 14 0.1 0.07
-5 -1 -14 -0.01 0.1
5 -1 14 0.1 0.09
5 1 14 0.22 0.15
5 1 14 0.15 0.07
6 -1 14 2.8 0.17
6 -1 14 2.67 0.2
-6 -1 -14 2.63 0.22
-6 1 -14 2.54 0.2
6 1 14 2.36 0.18
6 1 14 2.58 0.17
7 -1 14 3.48 0.22
-7 -1 -14 3.59 0.24
7 -1 14 3.41 0.22
-7 1 -14 3.16 0.24
7 1 14 3.54 0.26
7 1 14 3.76 0.22
-10 2 14 1.26 0.18
-9 -2 14 -0.03 0.08
-9 2 14 -0.01 0.09
-8 -2 14 1.8 0.2
-8 2 14 1.77 0.21
-7 -2 14 3.32 0.24
-7 2 14 3.47 0.24
-6 -2 14 4.39 0.26
-6 -2 14 4.57 0.28
-6 2 14 5.17 0.29
-5 -2 14 6.5 0.31
-5 -2 14 6.85 0.31
-5 2 14 6.54 0.32
-4 -2 14 18.04 0.5
-4 -2 14 18.88 0.51
-4 2 14 18.12 0.5
-3 -2 14 0.97 0.16
-3 -2 14 1.02 0.16
-3 2 14 1.12 0.16
-2 -2 14 1.11 0.16
-2 -2 14 0.91 0.14
-2 2 14 1.12 0.16
-2 2 14 1.46 0.18
-1 -2 14 4.55 0.27
-1 -2 14 3.99 0.26
-1 2 14 4.26 0.25
-1 2 14 3.87 0.24
0 -2 14 2.44 0.22
0 -2 14 2.75 0.23
0 2 14 2.98 0.23
0 2 14 2.54 0.2
1 -2 14 3.49 0.25
1 -2 14 4.34 0.26
1 2 14 3.83 0.23
1 2 14 3.66 0.24
2 -2 14 3.33 0.24
2 -2 14 3.45 0.25
2 2 14 3.63 0.23
3 -2 14 7.06 0.32
3 -2 14 6.16 0.31
3 2 14 6.36 0.17
4 -2 14 2.18 0.22
4 -2 14 2.15 0.12
4 -2 14 2.27 0.21
4 2 14 2.43 0.14
5 -2 14 2.38 0.15
-5 -2 -14 2.53 0.22
5 -2 14 2.4 0.23
5 -2 14 2.48 0.23
5 2 14 2.48 0.15
-6 -2 -14 4.94 0.26
6 -2 14 5.52 0.27
6 -2 14 4.94 0.21
6 -2 14 4.59 0.28
-6 2 -14 4.87 0.26
6 2 14 4.68 0.21
7 -2 14 3.64 0.24
-10 3 14 10.43 0.4
-9 3 14 9.25 0.37
-8 -3 14 0.8 0.14
-8 3 14 0.44 0.13
-7 -3 14 0.42 0.11
-7 3 14 0.25 0.11
-6 -3 14 3.18 0.23
-6 -3 14 2.88 0.23
-6 3 14 2.54 0.24
-5 -3 14 3.79 0.25
-5 -3 14 3.9 0.25
-5 3 14 3.89 0.26
-4 -3 14 0.08 0.08
-4 -3 14 0.03 0.09
-4 3 14 -0.11 0.07
-3 -3 14 0.09 0.09
-3 -3 14 0.06 0.09
-3 3 14 0.04 0.08
-2 -3 14 0.33 0.1
-2 -3 14 0.34 0.11
-2 3 14 0.38 0.12
-1 -3 14 1.9 0.2
-1 -3 14 1.82 0.19
-1 3 14 1.85 0.2
-1 3 14 1.7 0.18
0 -3 14 2.4 0.22
0 -3 14 2.76 0.22
0 3 14 2.8 0.22
0 3 14 2.69 0.2
1 -3 14 1.44 0.18
1 -3 14 1.36 0.18
1 3 14 1.76 0.19
2 -3 14 1.08 0.16
2 -3 14 1.16 0.17
3 -3 14 4 0.27
3 -3 14 4.53 0.28
3 3 14 3.87 0.14
4 -3 14 2.31 0.22
4 -3 14 1.9 0.11
4 -3 14 2.09 0.22
4 3 14 2.15 0.13
5 -3 14 2.41 0.14
5 -3 14 2.3 0.23
-5 -3 -14 2.77 0.22
5 -3 14 2.76 0.25
5 3 14 2.49 0.15
6 -3 14 5.29 0.21
6 -3 14 5.23 0.31
6 -3 14 5.19 0.3
-6 -3 -14 5.98 0.28
6 3 14 5.27 0.22
-6 3 -14 6.01 0.28
7 -3 14 2.79 0.25
-9 4 14 3.64 0.26
-8 4 14 0.31 0.11
-7 -4 14 3.81 0.24
-7 4 14 3.06 0.25
-6 -4 14 14.25 0.44
-6 -4 14 14.44 0.45
-6 4 14 14.14 0.46
-5 -4 14 1.56 0.18
-5 -4 14 1.36 0.18
-5 4 14 1.28 0.18
-4 -4 14 20.51 0.55
-4 -4 14 21.27 0.54
-4 4 14 21.08 0.54
-3 -4 14 3.21 0.23
-3 -4 14 3.27 0.24
-3 4 14 3.03 0.23
-2 -4 14 0.93 0.16
-2 -4 14 0.7 0.13
-2 4 14 0.43 0.11
-1 -4 14 1.7 0.19
-1 -4 14 1.93 0.2
-1 4 14 1.91 0.19
0 -4 14 3.83 0.25
0 -4 14 3.94 0.26
1 -4 14 1.49 0.18
1 -4 14 1.27 0.18
2 -4 14 0.62 0.14
2 -4 14 0.78 0.15
3 -4 14 9.61 0.38
3 -4 14 10.19 0.4
3 4 14 9.1 0.21
4 -4 14 11.73 0.43
4 -4 14 13.23 0.45
4 -4 14 12.42 0.26
4 4 14 12.25 0.28
-5 -4 -14 6.92 0.3
5 -4 14 7.03 0.21
5 -4 14 6.44 0.33
5 -4 14 7.24 0.35
5 4 14 6.86 0.23
6 -4 14 1.29 0.18
6 -4 14 0.75 0.11
-6 -4 -14 0.67 0.14
6 -4 14 1.05 0.17
-6 4 -14 0.82 0.13
6 4 14 0.99 0.15
-9 5 14 0.67 0.14
-8 5 14 4.03 0.27
-7 5 14 2.4 0.23
-6 -5 14 0.14 0.08
-6 5 14 0.19 0.11
-5 -5 14 1.33 0.18
-5 -5 14 1.12 0.16
-5 5 14 0.97 0.17
-4 -5 14 0.75 0.14
-4 -5 14 0.62 0.13
-4 5 14 0.63 0.14
-3 -5 14 1.62 0.19
-3 -5 14 1.72 0.19
-3 5 14 1.8 0.19
-2 -5 14 4.14 0.25
-2 -5 14 3.63 0.25
-2 5 14 4.59 0.26
-1 -5 14 1.61 0.19
-1 -5 14 1.63 0.19
0 -5 14 0.49 0.12
0 -5 14 0.69 0.14
1 -5 14 3.5 0.26
1 -5 14 3.13 0.24
2 -5 14 0.76 0.15
2 -5 14 0.73 0.15
3 -5 14 2.64 0.24
3 -5 14 3.01 0.25
3 5 14 2.87 0.12
4 -5 14 5.24 0.31
4 -5 14 5.3 0.31
4 5 14 5.34 0.19
5 -5 14 0.72 0.16
5 -5 14 0.58 0.14
5 -5 14 0.43 0.07
-5 -5 -14 0.49 0.12
5 5 14 0.61 0.09
6 -5 14 0.53 0.15
6 -5 14 0.43 0.14
-8 6 14 3.21 0.25
-7 6 14 2.61 0.25
-6 6 14 0.78 0.15
-5 -6 14 3.87 0.25
-5 6 14 3.37 0.24
-4 -6 14 7.52 0.34
-4 -6 14 7.95 0.34
-4 6 14 7.87 0.33
-3 -6 14 6.22 0.31
-3 -6 14 5.85 0.31
-3 6 14 6.32 0.3
-2 -6 14 16.48 0.5
-2 -6 14 16.66 0.49
-1 -6 14 4.33 0.28
-1 -6 14 4.56 0.28
0 -6 14 0.63 0.14
0 -6 14 0.59 0.14
1 -6 14 9.33 0.38
1 -6 14 8.54 0.38
2 -6 14 0.36 0.13
2 -6 14 0.39 0.12
3 -6 14 1.22 0.18
3 -6 14 0.84 0.16
3 6 14 1.18 0.09
4 -6 14 2.83 0.27
-4 -6 -14 2.88 0.22
4 -6 14 2.81 0.26
4 6 14 2.73 0.14
5 -6 14 1.29 0.2
5 -6 14 1.54 0.2
-7 7 14 0.06 0.1
-6 7 14 1.69 0.19
-5 7 14 0.47 0.13
-4 -7 14 8.53 0.35
-4 7 14 7.96 0.34
-3 -7 14 3.55 0.25
-3 -7 14 3.47 0.25
-3 7 14 3.33 0.28
-2 -7 14 1.65 0.19
-2 -7 14 2.04 0.22
-2 7 14 1.72 0.18
-1 -7 14 1.97 0.21
-1 -7 14 1.57 0.19
-1 7 14 1.87 0.18
0 -7 14 0.35 0.11
0 -7 14 0.3 0.11
0 7 14 0.21 0.09
1 -7 14 0.69 0.14
1 -7 14 0.78 0.16
1 7 14 0.81 0.13
2 -7 14 0.1 0.1
2 -7 14 0.05 0.1
2 7 14 0 0.07
3 -7 14 1.22 0.19
3 -7 14 1.72 0.21
3 7 14 1.4 0.11
3 7 14 1.46 0.16
4 -7 14 -0.03 0.1
4 -7 14 0.21 0.11
4 7 14 0.21 0.09
-5 8 14 1.96 0.21
-5 8 14 1.78 0.2
-4 8 14 2.03 0.2
-3 -8 14 6.86 0.32
-3 8 14 5.25 0.27
-2 -8 14 1.04 0.16
-2 -8 14 1.11 0.17
-2 8 14 0.94 0.14
-1 -8 14 5.61 0.3
-1 -8 14 4.88 0.29
-1 8 14 4.83 0.26
0 -8 14 1.13 0.18
0 -8 14 1.21 0.18
0 8 14 1.24 0.16
1 -8 14 0.98 0.17
1 -8 14 0.98 0.17
1 8 14 1.55 0.17
2 -8 14 3.44 0.26
2 -8 14 3.48 0.26
2 8 14 3.62 0.22
-9 0 15 2.9 0.23
-8 0 15 -0.07 0.07
-7 0 15 4.83 0.29
-6 0 15 0.7 0.13
-5 0 15 3.01 0.24
-4 0 15 16.12 0.5
-4 0 15 16.54 0.5
-3 0 15 3.64 0.26
-3 0 15 3.48 0.26
-2 0 15 3.29 0.24
-2 0 15 2.85 0.24
-1 0 15 -0.07 0.08
-1 0 15 0.14 0.09
0 0 15 0.01 0.09
0 0 15 -0.04 0.07
1 0 15 1.61 0.19
1 0 15 1.97 0.21
2 0 15 2.54 0.23
2 0 15 2.08 0.21
3 0 15 -0.07 0.08
3 0 15 0.04 0.08
4 0 15 0.5 0.13
5 0 15 1.72 0.17
5 0 15 1.74 0.11
6 0 15 -0.16 0.07
-9 -1 15 6.01 0.3
-9 1 15 7.2 0.33
-8 -1 15 1.37 0.18
-8 1 15 1.6 0.2
-7 -1 15 1.16 0.16
-7 1 15 0.93 0.16
-6 -1 15 11.72 0.42
-6 1 15 11.51 0.42
-5 -1 15 4.85 0.29
-5 -1 15 4.07 0.28
-5 1 15 4.03 0.27
-4 -1 15 0.74 0.15
-4 -1 15 0.75 0.14
-4 1 15 1.06 0.17
-3 -1 15 1.09 0.17
-3 -1 15 1.17 0.18
-3 1 15 1.43 0.19
-3 1 15 1.42 0.19
-2 -1 15 1.63 0.2
-2 -1 15 1.62 0.19
-2 1 15 1.9 0.22
-2 1 15 1.76 0.2
-1 -1 15 3.18 0.25
-1 -1 15 3.73 0.27
-1 1 15 3.44 0.26
-1 1 15 3.26 0.24
0 -1 15 5.28 0.3
0 -1 15 5.69 0.31
0 1 15 5.35 0.29
0 1 15 5.91 0.31
1 -1 15 0.68 0.15
1 -1 15 0.86 0.15
1 1 15 0.74 0.15
1 1 15 0.7 0.14
2 -1 15 0.37 0.13
2 -1 15 0.2 0.11
2 1 15 0.37 0.12
2 1 15 0.35 0.11
3 -1 15 2.48 0.24
3 -1 15 2.94 0.24
3 1 15 2.55 0.23
4 -1 15 0.73 0.14
4 -1 15 0.86 0.18
4 1 15 0.65 0.07
5 -1 15 0.86 0.09
5 -1 15 0.83 0.15
5 1 15 0.76 0.09
6 -1 15 2.37 0.21
-9 -2 15 0.08 0.08
-9 2 15 0.08 0.09
-8 -2 15 3.45 0.24
-8 2 15 3.76 0.27
-7 -2 15 0.19 0.09
-7 2 15 0.37 0.11
-6 -2 15 9.48 0.38
-6 2 15 10.22 0.4
-5 -2 15 10.66 0.4
-5 -2 15 10.68 0.4
-5 2 15 10 0.4
-4 -2 15 0.37 0.12
-4 -2 15 0.13 0.1
-4 2 15 0.39 0.12
-3 -2 15 7.2 0.34
-3 -2 15 7.09 0.33
-3 2 15 6.6 0.33
-2 -2 15 5.59 0.31
-2 -2 15 5.37 0.3
-2 2 15 5.24 0.3
-2 2 15 5.41 0.29
-1 -2 15 1.41 0.18
-1 -2 15 1.28 0.19
-1 2 15 1.34 0.18
-1 2 15 1.53 0.19
0 -2 15 4.77 0.29
0 -2 15 5.1 0.3
0 2 15 5.49 0.3
0 2 15 4.91 0.28
1 -2 15 0.48 0.13
1 -2 15 0.68 0.15
1 2 15 0.84 0.16
1 2 15 0.39 0.11
2 -2 15 2.12 0.22
2 -2 15 1.62 0.2
2 2 15 1.82 0.23
3 -2 15 0.54 0.14
3 -2 15 0.61 0.14
4 -2 15 0.49 0.14
4 -2 15 0.74 0.15
4 2 15 0.52 0.06
5 -2 15 0.28 0.12
5 -2 15 0.28 0.06
-5 -2 -15 0.38 0.11
5 2 15 0.32 0.07
6 -2 15 0.33 0.16
-9 3 15 3.34 0.25
-8 -3 15 0.12 0.09
-8 3 15 -0.12 0.08
-7 -3 15 0.07 0.09
-7 3 15 0.05 0.1
-6 -3 15 1.79 0.21
-6 -3 15 1.61 0.19
-6 3 15 1.56 0.2
-5 -3 15 19.27 0.53
-5 -3 15 20.48 0.56
-5 3 15 20.3 0.56
-4 -3 15 2.87 0.24
-4 -3 15 2.27 0.23
-4 3 15 3.07 0.27
-3 -3 15 0.23 0.1
-3 -3 15 0.2 0.11
-3 3 15 -0.03 0.08
-2 -3 15 0.19 0.11
-2 -3 15 0.27 0.12
-2 3 15 0.35 0.12
-1 -3 15 4.22 0.28
-1 -3 15 4.03 0.27
-1 3 15 3.96 0.25
0 -3 15 1.42 0.19
0 -3 15 1.25 0.19
0 3 15 1.01 0.16
0 3 15 1.16 0.17
1 -3 15 3.36 0.26
1 -3 15 2.62 0.25
2 -3 15 -0.09 0.09
2 -3 15 0.15 0.11
3 -3 15 2.28 0.23
3 -3 15 1.97 0.22
4 -3 15 3.4 0.26
4 -3 15 3.87 0.27
4 3 15 3.53 0.13
5 -3 15 2.41 0.23
5 -3 15 2.95 0.27
-5 -3 -15 2.66 0.22
5 3 15 2.44 0.16
-8 4 15 3.9 0.27
-7 -4 15 1.86 0.2
-7 4 15 2.05 0.22
-6 -4 15 5.21 0.3
-6 -4 15 5.58 0.29
-6 4 15 4.89 0.3
-5 -4 15 0.14 0.1
-5 -4 15 0.15 0.11
-5 4 15 0.25 0.12
-4 -4 15 2.3 0.23
-4 -4 15 2.28 0.23
-4 4 15 2.52 0.24
-3 -4 15 10.53 0.41
-3 -4 15 10.71 0.41
-3 4 15 9.96 0.39
-2 -4 15 0.87 0.16
-2 -4 15 1.01 0.16
-2 4 15 0.93 0.15
-1 -4 15 8.21 0.37
-1 -4 15 7.65 0.35
-1 4 15 8.13 0.34
0 -4 15 2.47 0.25
0 -4 15 2.32 0.23
1 -4 15 3.17 0.26
1 -4 15 2.68 0.25
2 -4 15 1.22 0.18
2 -4 15 0.95 0.17
3 -4 15 0.37 0.13
3 -4 15 0.51 0.14
4 -4 15 3.44 0.27
4 -4 15 3.88 0.29
4 4 15 3.42 0.13
5 -4 15 1.57 0.21
5 -4 15 1.54 0.2
-7 5 15 3.2 0.25
-6 -5 15 2.76 0.22
-6 5 15 3.13 0.25
-5 -5 15 3.25 0.25
-5 -5 15 3.14 0.24
-5 5 15 2.92 0.24
-4 -5 15 2.69 0.26
-4 -5 15 2.6 0.24
-4 5 15 2.75 0.23
-3 -5 15 1.98 0.21
-3 -5 15 2.1 0.22
-3 5 15 1.98 0.21
-2 -5 15 2.59 0.25
-2 -5 15 2.96 0.25
-2 5 15 2.35 0.22
-1 -5 15 2.19 0.22
-1 -5 15 2.24 0.23
0 -5 15 0.94 0.16
0 -5 15 0.96 0.17
1 -5 15 9.26 0.39
1 -5 15 9.11 0.39
2 -5 15 1.34 0.19
2 -5 15 1.18 0.18
3 -5 15 2.41 0.25
3 -5 15 2.27 0.24
4 -5 15 1.49 0.2
4 -5 15 1.68 0.22
-6 6 15 0.93 0.16
-5 -6 15 3.69 0.25
-5 6 15 3.56 0.25
-4 -6 15 7.08 0.34
-4 -6 15 6.38 0.32
-4 6 15 6.61 0.32
-3 -6 15 4.64 0.29
-3 -6 15 4.52 0.28
-3 6 15 4.41 0.27
-2 -6 15 13.7 0.47
-2 -6 15 13.75 0.46
-1 -6 15 0.45 0.14
-1 -6 15 0.38 0.13
0 -6 15 8.79 0.39
0 -6 15 8.85 0.38
1 -6 15 2.07 0.23
1 -6 15 1.21 0.19
2 -6 15 -0.03 0.1
2 -6 15 0.16 0.12
3 -6 15 1.83 0.23
3 -6 15 1.59 0.21
-5 7 15 0.53 0.13
-4 -7 15 0.78 0.15
-4 7 15 0.51 0.13
-3 -7 15 0.9 0.15
-3 -7 15 1.44 0.18
-2 -7 15 2.34 0.24
-2 -7 15 2.54 0.24
-1 -7 15 5.64 0.31
-1 -7 15 6.36 0.34
0 -7 15 1.22 0.18
0 -7 15 1.24 0.18
1 -7 15 6.3 0.34
1 -7 15 6.27 0.34
-8 0 16 0.47 0.13
-7 0 16 0.39 0.12
-6 0 16 -0.02 0.08
-5 0 16 6.56 0.33
-4 0 16 2.02 0.23
-4 0 16 2.38 0.24
-3 0 16 0.13 0.12
-3 0 16 -0.1 0.09
-2 0 16 -0.05 0.1
-2 0 16 -0.05 0.1
-1 0 16 0.2 0.12
-1 0 16 0.26 0.12
0 0 16 0.22 0.11
0 0 16 0.29 0.13
1 0 16 13.03 0.45
1 0 16 13.19 0.46
2 0 16 1.87 0.21
2 0 16 1.65 0.21
3 0 16 0.49 0.14
-8 -1 16 1.46 0.19
-8 1 16 1.32 0.18
-7 -1 16 0.49 0.13
-7 1 16 0.51 0.13
-6 -1 16 1.33 0.19
-6 1 16 1.22 0.18
-5 -1 16 7.61 0.35
-5 1 16 7.33 0.35
-4 -1 16 25.82 0.64
-4 -1 16 25.76 0.64
-4 1 16 25.37 0.65
-3 -1 16 12.01 0.45
-3 -1 16 11.78 0.44
-3 1 16 12.26 0.46
-3 1 16 11.67 0.44
-2 -1 16 1.79 0.22
-2 -1 16 2.36 0.25
-2 1 16 1.92 0.21
-2 1 16 2.4 0.24
-1 -1 16 2.54 0.25
-1 -1 16 2.74 0.26
-1 1 16 3.11 0.27
-1 1 16 3.24 0.27
0 -1 16 2.47 0.24
0 -1 16 2.52 0.25
0 1 16 2.66 0.25
0 1 16 2.31 0.23
1 -1 16 0.45 0.14
1 -1 16 0.25 0.12
1 1 16 0.48 0.13
1 1 16 0.63 0.14
2 -1 16 3.01 0.27
2 -1 16 2.31 0.25
2 1 16 2.48 0.24
3 -1 16 1.96 0.22
3 -1 16 1.76 0.21
4 -1 16 3.19 0.26
-7 -2 16 0.18 0.09
-7 2 16 -0.09 0.09
-6 -2 16 1 0.16
-6 2 16 0.56 0.15
-5 -2 16 4.01 0.29
-5 -2 16 4.15 0.28
-5 2 16 4.39 0.29
-4 -2 16 3.21 0.26
-4 -2 16 3.11 0.25
-4 2 16 3.47 0.27
-3 -2 16 3.11 0.25
-3 -2 16 3.42 0.27
-3 2 16 3.32 0.27
-2 -2 16 2.24 0.24
-2 -2 16 2.01 0.23
-2 2 16 2.45 0.24
-1 -2 16 1 0.18
-1 -2 16 1.07 0.18
-1 2 16 0.77 0.16
-1 2 16 0.75 0.15
0 -2 16 1.81 0.22
0 -2 16 1.84 0.23
0 2 16 1.71 0.21
0 2 16 1.52 0.19
1 -2 16 1.89 0.22
1 -2 16 2.35 0.25
1 2 16 1.75 0.21
2 -2 16 5.05 0.31
2 -2 16 4.74 0.31
3 -2 16 0.18 0.11
3 -2 16 0.39 0.13
4 -2 16 1.82 0.21
4 -2 16 2 0.23
-7 -3 16 0.77 0.15
-7 3 16 0.61 0.15
-6 -3 16 0.66 0.13
-6 3 16 0.87 0.17
-5 -3 16 9.37 0.39
-5 -3 16 8.57 0.37
-5 3 16 7.61 0.36
-4 -3 16 4.21 0.29
-4 -3 16 4.55 0.28
-4 3 16 4.54 0.29
-3 -3 16 5.38 0.31
-3 -3 16 5.57 0.32
-3 3 16 4.92 0.3
-2 -3 16 0.35 0.13
-2 -3 16 0.46 0.14
-2 3 16 0.6 0.14
-1 -3 16 5.77 0.33
-1 -3 16 5.52 0.33
-1 3 16 5.48 0.3
0 -3 16 1.91 0.23
0 -3 16 1.93 0.23
1 -3 16 4.81 0.31
1 -3 16 5.18 0.32
2 -3 16 2.81 0.27
2 -3 16 2.69 0.26
3 -3 16 1.95 0.23
3 -3 16 1.77 0.21
4 -3 16 2.22 0.24
4 -3 16 2.24 0.25
-6 -4 16 0.47 0.14
-6 -4 16 0.74 0.15
-6 4 16 0.37 0.12
-5 -4 16 1.82 0.21
-5 -4 16 1.88 0.21
-5 4 16 2.09 0.24
-4 -4 16 6.07 0.33
-4 -4 16 6.64 0.34
-4 4 16 6.08 0.32
-3 -4 16 5.22 0.31
-3 -4 16 4.92 0.31
-3 4 16 4.46 0.28
-2 -4 16 4.74 0.3
-2 -4 16 3.76 0.27
-2 4 16 3.45 0.25
-1 -4 16 6.4 0.34
-1 -4 16 6.23 0.34
0 -4 16 0.92 0.17
0 -4 16 0.98 0.18
1 -4 16 3.94 0.3
1 -4 16 4.76 0.31
2 -4 16 3.48 0.28
2 -4 16 4.08 0.29
3 -4 16 0.19 0.12
3 -4 16 0.08 0.11
-5 -5 16 1.15 0.17
-5 -5 16 1.32 0.18
-5 5 16 1.48 0.19
-4 -5 16 6.02 0.33
-4 -5 16 6.4 0.33
-4 5 16 6.05 0.31
-3 -5 16 9.97 0.41
-3 -5 16 10.04 0.41
-3 5 16 9.18 0.38
-2 -5 16 1.36 0.19
-2 -5 16 0.89 0.17
-1 -5 16 5.28 0.33
-1 -5 16 4.78 0.3
0 -5 16 6.52 0.35
0 -5 16 6.38 0.34
1 -5 16 2.66 0.27
1 -5 16 2.73 0.26
2 -5 16 9.52 0.42
2 -5 16 10.1 0.42
-3 -6 16 0.6 0.15
-3 -6 16 0.47 0.12
-2 -6 16 2.64 0.26
-2 -6 16 2.77 0.27
-1 -6 16 1.49 0.2
-1 -6 16 1.58 0.2
0 -6 16 0.03 0.1
0 -6 16 0 0.1
-5 0 17 3.7 0.27
-4 0 17 4.04 0.29
-3 0 17 0.21 0.14
-3 0 17 0.34 0.13
-2 0 17 0.37 0.14
-2 0 17 0.36 0.13
-1 0 17 0.33 0.12
-1 0 17 0.09 0.12
0 0 17 0.92 0.17
0 0 17 0.54 0.16
1 0 17 0.57 0.14
1 0 17 0.51 0.15
2 0 17 0.13 0.11
2 0 17 0.09 0.1
-5 -1 17 0.58 0.13
-5 1 17 0.53 0.15
-4 -1 17 2.19 0.23
-4 -1 17 2.03 0.24
-4 1 17 1.71 0.22
-3 -1 17 2.6 0.25
-3 -1 17 2.76 0.27
-3 1 17 2.98 0.27
-2 -1 17 5.71 0.34
-2 -1 17 4.96 0.32
-2 1 17 5.06 0.31
-2 1 17 5.36 0.34
-1 -1 17 0.36 0.15
-1 -1 17 0.63 0.15
-1 1 17 0.65 0.14
-1 1 17 0.61 0.15
0 -1 17 2.18 0.23
0 -1 17 2.77 0.27
0 1 17 2.65 0.26
0 1 17 2.2 0.23
1 -1 17 0.61 0.15
1 -1 17 0.83 0.16
1 1 17 0.66 0.16
1 1 17 0.57 0.13
2 -1 17 -0.03 0.1
2 -1 17 -0.02 0.11
2 1 17 0.15 0.12
-5 -2 17 0.4 0.12
-5 2 17 0.2 0.11
-4 -2 17 5.32 0.31
-4 -2 17 5.27 0.33
-4 2 17 5.31 0.32
-3 -2 17 6.05 0.34
-3 -2 17 6.21 0.34
-3 2 17 6.27 0.34
-2 -2 17 3.64 0.29
-2 -2 17 3.24 0.27
-2 2 17 3.62 0.27
-1 -2 17 3.66 0.29
-1 -2 17 3.55 0.3
-1 2 17 3.52 0.27
0 -2 17 2.02 0.24
0 -2 17 2.14 0.24
0 2 17 1.85 0.22
0 2 17 2.31 0.25
1 -2 17 1.55 0.21
1 -2 17 1.48 0.21
1 2 17 1.3 0.2
-4 -3 17 2.22 0.24
-4 -3 17 2.5 0.25
-4 3 17 3.02 0.25
-3 -3 17 2.73 0.27
-3 -3 17 2.74 0.26
-3 3 17 2.58 0.25
-2 -3 17 9.54 0.41
-2 -3 17 9.79 0.42
-2 3 17 9.43 0.39
-1 -3 17 0.4 0.14
-1 -3 17 0.53 0.15
-1 3 17 0.31 0.12
0 -3 17 9.03 0.42
0 -3 17 8.95 0.41
