#------------------------------------------------------------------------------
#$Date: 2015-06-04 06:32:09 +0300 (Thu, 04 Jun 2015) $
#$Revision: 137844 $
#$URL: svn://www.crystallography.net/cod/cif/4/51/31/4513153.cif $
#------------------------------------------------------------------------------
#
# This file is available in the Crystallography Open Database (COD),
# http://www.crystallography.net/
#
# All data on this site have been placed in the public domain by the
# contributors.
#
data_4513153
loop_
_publ_author_name
'Abrahams, Brendan F.'
'Elliott, Robert W.'
'Hudson, Timothy A.'
'Robson, Richard'
'Sutton, Ashley L.'
_publ_section_title
;
 New CuI2(TCNQ--II) and CuI2(F4TCNQ--II) Coordination Polymers
;
_journal_issue                   5
_journal_name_full               'Crystal Growth &amp; Design'
_journal_page_first              2437
_journal_paper_doi               10.1021/acs.cgd.5b00220
_journal_volume                  15
_journal_year                    2015
_chemical_formula_sum            'C32 H24 Cu2 N8 O2'
_chemical_formula_weight         679.67
_space_group_crystal_system      triclinic
_space_group_IT_number           2
_space_group_name_Hall           '-P 1'
_space_group_name_H-M_alt        'P -1'
_symmetry_space_group_name_Hall  '-P 1'
_symmetry_space_group_name_H-M   'P -1'
_atom_sites_solution_hydrogens   geom
_audit_creation_method           SHELXL-2014/7
_cell_angle_alpha                75.108(4)
_cell_angle_beta                 82.444(4)
_cell_angle_gamma                76.994(3)
_cell_formula_units_Z            1
_cell_length_a                   7.5403(3)
_cell_length_b                   9.5112(4)
_cell_length_c                   11.6339(6)
_cell_measurement_reflns_used    3303
_cell_measurement_temperature    130(2)
_cell_measurement_theta_max      73.4784
_cell_measurement_theta_min      3.9406
_cell_volume                     783.24(6)
_computing_cell_refinement
;
CrysAlisPro, Agilent Technologies,
Version 1.171.36.20 (release 27-06-2012 CrysAlis171 .NET)
(compiled Jul 11 2012,15:38:31)
;
_computing_data_collection
;
CrysAlisPro, Agilent Technologies,
Version 1.171.36.20 (release 27-06-2012 CrysAlis171 .NET)
(compiled Jul 11 2012,15:38:31)
;
_computing_data_reduction
;
CrysAlisPro, Agilent Technologies,
Version 1.171.36.20 (release 27-06-2012 CrysAlis171 .NET)
(compiled Jul 11 2012,15:38:31)
;
_computing_structure_refinement  'SHELXL-2014/7 (Sheldrick, 2014)'
_computing_structure_solution    'SHELXS-97 (Sheldrick, 1997)'
_diffrn_ambient_temperature      130(2)
_diffrn_detector_area_resol_mean 10.2273
_diffrn_measured_fraction_theta_full 0.997
_diffrn_measured_fraction_theta_max 0.997
_diffrn_measurement_device_type  'SuperNova, Dual, Cu at zero, Atlas'
_diffrn_measurement_method       '\w scans'
_diffrn_radiation_type           CuK\a
_diffrn_radiation_wavelength     1.54184
_diffrn_reflns_av_R_equivalents  0.0133
_diffrn_reflns_av_unetI/netI     0.0183
_diffrn_reflns_laue_measured_fraction_full 0.997
_diffrn_reflns_laue_measured_fraction_max 0.997
_diffrn_reflns_limit_h_max       9
_diffrn_reflns_limit_h_min       -6
_diffrn_reflns_limit_k_max       11
_diffrn_reflns_limit_k_min       -10
_diffrn_reflns_limit_l_max       13
_diffrn_reflns_limit_l_min       -13
_diffrn_reflns_number            4829
_diffrn_reflns_point_group_measured_fraction_full 0.997
_diffrn_reflns_point_group_measured_fraction_max 0.997
_diffrn_reflns_theta_full        67.476
_diffrn_reflns_theta_max         67.476
_diffrn_reflns_theta_min         3.944
_diffrn_source                   'SuperNova (Cu) X-ray Source'
_exptl_absorpt_coefficient_mu    2.020
_exptl_absorpt_correction_T_max  0.894
_exptl_absorpt_correction_T_min  0.739
_exptl_absorpt_correction_type   gaussian
_exptl_absorpt_process_details
;
CrysAlisPro, Agilent Technologies,
Version 1.171.36.20 (release 27-06-2012 CrysAlis171 .NET)
(compiled Jul 11 2012,15:38:31)
Numerical absorption correction based on gaussian integration over
            a multifaceted crystal model
;
_exptl_crystal_colour            Red
_exptl_crystal_density_diffrn    1.441
_exptl_crystal_description       Spike
_exptl_crystal_F_000             346
_exptl_crystal_size_max          0.2571
_exptl_crystal_size_mid          0.1086
_exptl_crystal_size_min          0.0612
_refine_diff_density_max         0.941
_refine_diff_density_min         -0.245
_refine_diff_density_rms         0.089
_refine_ls_extinction_method     none
_refine_ls_goodness_of_fit_ref   1.093
_refine_ls_hydrogen_treatment    constr
_refine_ls_matrix_type           full
_refine_ls_number_parameters     206
_refine_ls_number_reflns         2809
_refine_ls_number_restraints     48
_refine_ls_restrained_S_all      1.085
_refine_ls_R_factor_all          0.0416
_refine_ls_R_factor_gt           0.0401
_refine_ls_shift/su_max          0.001
_refine_ls_shift/su_mean         0.000
_refine_ls_structure_factor_coef Fsqd
_refine_ls_weighting_details
'w=1/[\s^2^(Fo^2^)+(0.0920P)^2^+0.3489P] where P=(Fo^2^+2Fc^2^)/3'
_refine_ls_weighting_scheme      calc
_refine_ls_wR_factor_gt          0.1287
_refine_ls_wR_factor_ref         0.1305
_reflns_Friedel_coverage         0.000
_reflns_number_gt                2673
_reflns_number_total             2809
_reflns_threshold_expression     'I > 2\s(I)'
_cod_data_source_file            cg5b00220_si_002.cif
_cod_data_source_block           bipyridine
_cod_database_code               4513153
_shelx_shelxl_version_number     2014/7
_shelx_space_group_comment
;
The symmetry employed for this shelxl refinement is uniquely defined
by the following loop, which should always be used as a source of
symmetry information in preference to the above space-group names.
They are only intended as comments.
;
_shelx_res_file
;

    shelxl.res created by SHELXL-2014/7

TITL rweB151g in P-1
CELL  1.54184   7.5403   9.5112  11.6339   75.108   82.444   76.994
ZERR     1.00   0.0003   0.0004   0.0006    0.004    0.004    0.003
LATT   1
SFAC  C    H    O    CU   N
UNIT  32   24   2    2    8
MERG   2
OMIT     0.00 135.00
conf c1 c3 c4 c5
conf c2 c3 c4 c6
delu c7 c8 c9 c10 c11 n3
simu c7 c8 c9 c10 c11 n3
FMAP   2
PLAN   20
ACTA
BOND
LIST   8
L.S.   8
TEMP  -143.00

WGHT    0.092000    0.348900
FVAR       7.45436
C1    1    0.738470    0.195104    0.237685    11.00000    0.02461    0.04100 =
         0.03585   -0.02332   -0.00195   -0.00862
O1    3    0.061914    0.469121   -0.019254    10.25000    0.08904
O2    3    0.371499    0.370874    1.034546    10.25000    0.09124
O3    3    0.423268    0.484710    1.004730    10.25000    0.13350
O4    3    0.175219    0.453825   -0.013426    10.25000    0.10664
MOLE    1
CU1   4    0.347456    0.273846    0.352261    11.00000    0.01879    0.04670 =
         0.04223   -0.02737   -0.00068   -0.00582
N2    5    1.169612    0.192099    0.298983    11.00000    0.02129    0.05934 =
         0.04822   -0.03652    0.00086   -0.00801
N1    5    0.590329    0.232562    0.274293    11.00000    0.02203    0.05568 =
         0.04764   -0.03427    0.00205   -0.00946
N4    5    0.376566    0.264633    0.529104    11.00000    0.02262    0.04015 =
         0.03897   -0.02061    0.00028   -0.00879
C12   1    0.325429    0.396110    0.559883    11.00000    0.02353    0.04531 =
         0.04044   -0.02502    0.00802   -0.01608
N3    5    0.228268    0.489999    0.362129    11.00000    0.02090    0.03999 =
         0.04923   -0.01447    0.00034   -0.00812
C2    1    1.055113    0.173658    0.250427    11.00000    0.02197    0.04195 =
         0.03794   -0.02447    0.00413   -0.00561
C4    1    0.958813    0.077413    0.093189    11.00000    0.02004    0.03508 =
         0.03058   -0.01532   -0.00069   -0.00632
C5    1    0.821018    0.038011    0.045024    11.00000    0.01608    0.04290 =
         0.03598   -0.02025    0.00083   -0.00619
AFIX  43
H5    2    0.697499    0.064089    0.074529    11.00000   -1.20000
AFIX   0
C6    1    1.137655    0.038513    0.045103    11.00000    0.01762    0.04338 =
         0.03619   -0.02051   -0.00207   -0.00782
AFIX  43
H6    2    1.233731    0.065137    0.074870    11.00000   -1.20000
AFIX   0
C11   1    0.233322    0.519733    0.469358    11.00000    0.02207    0.03988 =
         0.05160   -0.02473    0.01178   -0.01341
C3    1    0.917275    0.150264    0.192900    11.00000    0.01923    0.04275 =
         0.03757   -0.02215    0.00031   -0.00780
C16   1    0.458627    0.146219    0.608712    11.00000    0.03167    0.04930 =
         0.04708   -0.01504   -0.00385   -0.00770
AFIX  43
H16   2    0.493870    0.053751    0.586686    11.00000   -1.20000
AFIX   0
C13   1    0.359318    0.409049    0.671671    11.00000    0.04371    0.06592 =
         0.05389   -0.03876    0.01126   -0.02814
AFIX  43
H13   2    0.325058    0.502320    0.692420    11.00000   -1.20000
AFIX   0
C10   1    0.152849    0.657392    0.491844    11.00000    0.03550    0.04231 =
         0.07984   -0.03103    0.01747   -0.01319
AFIX  43
H10   2    0.160002    0.676159    0.567290    11.00000   -1.20000
AFIX   0
C7    1    0.138973    0.596594    0.278159    11.00000    0.02961    0.04969 =
         0.06572   -0.00198   -0.00716   -0.01072
AFIX  43
H7    2    0.133083    0.577199    0.202763    11.00000   -1.20000
AFIX   0
C15   1    0.494145    0.151702    0.719815    11.00000    0.03782    0.06968 =
         0.04431   -0.01009   -0.00665   -0.01687
AFIX  43
H15   2    0.552630    0.065350    0.773284    11.00000   -1.20000
AFIX   0
C14   1    0.443132    0.284988    0.751865    11.00000    0.04733    0.08843 =
         0.03870   -0.02128   -0.00103   -0.02995
AFIX  43
H14   2    0.465142    0.292133    0.828515    11.00000   -1.20000
AFIX   0
C8    1    0.053301    0.737088    0.298630    11.00000    0.02744    0.04374 =
         0.10313    0.00747   -0.00413   -0.00776
AFIX  43
H8    2   -0.010750    0.810714    0.238157    11.00000   -1.20000
AFIX   0
C9    1    0.063559    0.765533    0.405381    11.00000    0.03481    0.04168 =
         0.10520   -0.02545    0.01270   -0.00853
AFIX  43
H9    2    0.008932    0.860192    0.419996    11.00000   -1.20000
AFIX   0
HKLF    4

REM  rweB151g in P-1
REM R1 =  0.0401 for    2673 Fo > 4sig(Fo)  and  0.0416 for all    2809 data
REM    206 parameters refined using     48 restraints

END

WGHT      0.0927      0.3571

REM Highest difference peak  0.941,  deepest hole -0.245,  1-sigma level  0.089
Q1    1   0.2919  0.4687  0.0007  11.00000  0.05    0.94
Q2    1   0.3652  0.1813  0.4084  11.00000  0.05    0.77
Q3    1   0.0512  0.4729 -0.0799  11.00000  0.05    0.59
Q4    1   0.5097  0.4540  1.0027  11.00000  0.05    0.53
Q5    1   0.0453  0.5190  0.0076  11.00000  0.05    0.48
Q6    1   0.3860  0.3209  1.0417  11.00000  0.05    0.42
Q7    1   0.4755  0.5207  1.0758  11.00000  0.05    0.36
Q8    1   0.0826  0.7034  0.2485  11.00000  0.05    0.35
Q9    1   0.2273  0.5084  0.4159  11.00000  0.05    0.32
Q10   1   0.3322  0.3865  0.2994  11.00000  0.05    0.31
Q11   1   0.2583  0.4563  0.5166  11.00000  0.05    0.31
Q12   1   0.9405  0.1172  0.1436  11.00000  0.05    0.31
Q13   1   1.1528  0.0017  0.0002  11.00000  0.05    0.30
Q14   1   0.4071  0.2221  0.5653  11.00000  0.05    0.30
Q15   1   0.1005  0.6791  0.4379  11.00000  0.05    0.29
Q16   1   0.3515  0.3463  0.5476  11.00000  0.05    0.28
Q17   1   0.8930  0.0685  0.0664  11.00000  0.05    0.27
Q18   1   0.6036  0.1524  0.3191  11.00000  0.05    0.27
Q19   1   0.4394  0.2229  0.7266  11.00000  0.05    0.23
Q20   1   1.0267  0.0550  0.0714  11.00000  0.05    0.23
;
_shelx_res_checksum              23971
_shelx_hkl_file
;
   0   0  -1 213226. 744.942   2
   0   0  -2 31315.4 340.271   3
   0   0  -2 30546.8 414.323   2
   0   0  -3 381192. 1765.30   2
   0   0  -3 379970. 1465.16   3
   0   0  -4 26779.3 553.126   2
   0   0  -4 25868.4 445.271   3
   0   0  -5 7289.37 264.916   3
   0   0  -5 7484.84 336.366   2
   0   0  -6 4910.15 230.847   3
   0   0  -6 4797.13 304.166   2
   0   0  -7 26769.1 781.050   2
   0   0   8 5344.73 197.464  13
   0   0  -8 5793.60 211.571  15
   0   0  -8 5082.89 364.064   2
   0   0   9 43.8512 36.5917  13
   0   0  -9 63.0488 34.8634  15
   0   0 -10 13978.3 390.091  15
   0   0  10 14078.0 356.532  13
   0   0 -11 6241.73 263.498  15
   0   0  11 6096.08 233.883  13
   0   0  12 12.4262 31.3030  13
   0   0 -13 2591.05 104.112   6
   0   0  13 2764.53 121.365  13
   0  -1  13 728.850 57.2518  13
   0   1 -12 2966.05 126.664   6
   0  -1  12 3055.10 142.004  13
   0  -1  11 9194.43 274.596  13
   0  -1  10 787.604 92.0027  13
   0   1  -9 277.852 101.457   5
   0   1  -9 254.209 61.8702  15
   0  -1   9 316.425 61.0800  13
   0  -1   8 24472.0 435.802  13
   0   1  -8 25338.2 478.438  15
   0   1  -7 59.8126 51.1242   2
   0   1  -6 1471.74 136.336   4
   0   1  -6 1125.94 141.127   2
   0   1  -5 53613.0 847.383   2
   0   1  -5 52207.4 753.072   3
   0   1  -4 61663.3 758.998   3
   0   1  -4 62589.1 802.036   2
   0   1  -3 20276.2 391.692   2
   0   1  -3 19990.0 384.681   3
   0   1  -2 23883.0 342.758   2
   0   1  -2 23520.0 367.280   3
   0   1  -1 346179. 889.374   2
   0   1   0 34371.1 299.261   5
   0  -1   0 34094.7 271.578   1
   0   1   1 4323.25 107.528   4
   0  -1  -1 4275.65 122.597   2
   0  -1  -2 19756.6 355.007   2
   0   1   2 20101.4 247.928   4
   0  -1  -3 872.982 105.495   2
   0  -1  -4 117322. 1211.79   2
   0  -1  -5 72776.8 1090.91   2
   0  -1  -6 202669. 2046.42   2
   0  -1  -6 198238. 1512.04   3
   0  -1  -7 153.863 89.0845   2
   0  -1  -8 6314.72 431.684   2
   0  -1  -9 28744.9 965.134   2
   0  -1  -9 29223.3 497.165  15
   0   1   9 29845.3 494.361  13
   0   1  10 909.732 97.9085  13
   0  -1 -10 978.169 104.096  15
   0  -1 -11 836.848 101.373  15
   0   1  11 889.628 94.9024  13
   0   1  12 12176.5 308.705  13
   0  -1 -12 11438.8 332.237  15
   0   1  13 660.909 66.1207  13
   0   1  14 187.292 27.3612  13
   0  -2  12 627.245 61.2386  13
   0  -2  11 1505.74 107.913  13
   0   2 -11 1366.59 92.8419   6
   0  -2  10 3686.66 178.102  13
   0   2 -10 3548.01 166.523   6
   0  -2   9 2244.94 145.641  13
   0  -2   8 7176.98 240.855  13
   0   2  -8 7412.22 515.191   5
   0   2  -7 9838.66 298.040  15
   0   2  -6 14557.3 497.615   4
   0   2  -5 54671.0 924.018   4
   0   2  -5 55490.3 778.596   2
   0   2  -4 3459.98 173.885   2
   0   2  -4 3308.85 217.655   4
   0   2  -3 48750.9 764.942   4
   0   2  -3 49480.5 555.843   2
   0   2  -2 417340. 1329.51   2
   0   2  -2 416949. 2075.07   4
   0   2  -1 580951. 1182.11   2
   0   2  -1 582063. 2127.44   5
   0  -2   1 581975. 1693.92   1
   0  -2   0 188971. 910.301   1
   0   2   0 187919. 1005.73   5
   0  -2  -1 70414.3 634.065   1
   0   2   1 72625.3 669.488   4
   0  -2  -2 152588. 1071.46   2
   0   2   2 153359. 926.937   4
   0   2   3 585.876 61.2378   4
   0  -2  -3 636.671 90.7127   2
   0  -2  -4 1097.01 135.203   2
   0   2   4 938.522 78.5661   4
   0  -2  -5 33428.7 778.227   2
   0  -2  -6 3886.48 300.825   2
   0  -2  -7 949.538 168.247   2
   0  -2  -8 11055.4 590.935   2
   0  -2  -9 74.9870 40.2745  15
   0  -2  -9 196.992 91.5773   2
   0   2  10 4801.82 211.942  13
   0  -2 -10 4987.25 216.098  15
   0   2  11 4043.49 196.108  13
   0  -2 -11 4087.86 201.315  15
   0   2  12 499.490 71.8253  13
   0  -2 -12 422.347 71.0958  15
   0   2  13 179.267 42.6972  13
   0   2  14 2175.45 90.0992  13
   0  -2 -14 1889.71 74.4030   6
   0  -3  12 1253.91 66.9503  13
   0  -3  11 514.544 59.7297  13
   0   3 -10 2223.07 120.049   6
   0  -3  10 2431.22 137.989  13
   0  -3   9 1270.29 109.559  13
   0   3  -9 1316.28 100.916   6
   0   3  -8 692.222 75.6966   6
   0  -3   8 767.876 85.5624  13
   0   3  -7 4433.28 400.028   5
   0   3  -7 4431.88 174.839   6
   0  -3   7 4676.78 189.098  13
   0   3  -6 915.076 171.032   5
   0   3  -6 841.662 140.007   4
   0   3  -5 13212.8 590.028   5
   0   3  -5 12523.9 512.294   4
   0   3  -4 20787.9 620.471   4
   0   3  -4 21626.6 689.499   5
   0   3  -3 8322.33 387.747   5
   0   3  -3 8233.15 374.475   4
   0   3  -2 314101. 2151.25   4
   0   3  -2 309714. 2117.94   5
   0   3  -1 57823.2 867.804   4
   0   3  -1 55820.1 797.999   5
   0  -3   1 58152.3 630.895   1
   0   3  -1 55432.3 384.580   2
   0   3   0 21755.3 435.977   5
   0  -3   0 21733.6 384.598   1
   0   3   0 22362.3 510.384   4
   0  -3  -1 110126. 951.306   1
   0   3   1 110231. 1068.48   4
   0   3   2 38235.7 604.562   4
   0  -3  -2 37267.0 617.036   1
   0  -3  -2 36476.9 573.125   2
   0   3   3 15513.6 372.745   4
   0  -3  -3 15441.9 434.631   2
   0   3   4 328.574 56.5829   4
   0  -3  -4 267.435 74.6923   2
   0  -3  -5 111825. 1479.63   2
   0   3   5 105059. 938.740   4
   0  -3  -6 15769.0 615.555   2
   0  -3  -7 10057.1 545.825   2
   0  -3  -8 16865.7 757.048   2
   0  -3  -9 17888.9 830.382   2
   0  -3  -9 17471.7 373.761  15
   0  -3 -10 10479.3 304.185  15
   0  -3 -11 10997.6 316.705  15
   0   3  11 11850.5 332.357  13
   0   3  12 10579.8 298.347  13
   0  -3 -12 10689.5 300.603  15
   0   3  13 11296.7 264.381  13
   0  -3 -13 10926.1 272.827  15
   0   3  14-2.05969 18.9130  13
   0  -4  11 84.8253 22.6261  13
   0  -4  10 4776.35 170.562  13
   0  -4   9 1334.76 105.164  13
   0  -4   8 465.540 68.3429  13
   0   4  -8 494.654 65.1566   6
   0   4  -7 2071.88 125.289   6
   0  -4   7 2162.14 134.261  13
   0   4  -7 1800.10 280.101   5
   0   4  -6 20020.5 726.308   4
   0   4  -6 21777.7 876.513   5
   0   4  -6 20086.2 364.158   6
   0  -4   6 21545.6 390.328  13
   0   4  -5 4808.22 355.236   4
   0   4  -5 5207.39 409.312   5
   0   4  -4 1362.88 193.713   5
   0   4  -4 1256.85 187.670   4
   0   4  -3 193146. 2068.11   5
   0   4  -3 189966. 2061.81   4
   0   4  -2 6093.89 354.830   4
   0   4  -2 6170.08 340.990   5
   0  -4   1 8555.16 281.264   1
   0   4  -1 8206.56 350.826   5
   0   4  -1 8861.23 409.746   4
   0   4   0 114826. 1394.10   4
   0  -4   0 116415. 1039.57   1
   0  -4  -1 38531.2 635.233   1
   0   4   1 38737.6 768.858   4
   0   4   2 13948.3 446.094   4
   0  -4  -2 13808.5 418.157   1
   0   4   3 4209.47 236.480   4
   0  -4  -3 4129.01 253.475   1
   0  -4  -4 81160.8 1183.41   2
   0   4   4 78380.1 984.952   4
   0  -4  -4 78478.9 1239.59   1
   0  -4  -5 15165.8 576.445   2
   0   4   5 14746.2 414.715   4
   0  -4  -5 15046.8 603.944   1
   0  -4  -6 453.194 117.946   2
   0  -4  -7 70310.0 1490.08   2
   0  -4  -8 30879.3 1056.15   2
   0  -4  -8 30846.9 1104.15   1
   0  -4  -8 31959.4 480.035  10
   0   4   8 31033.5 463.505  14
   0   4   9 88.9838 35.1922  14
   0  -4  -9 117.381 87.0116   1
   0  -4  -9 156.539 44.5674  15
   0  -4 -10 25053.9 464.157  15
   0  -4 -11 11014.9 306.335  15
   0  -4 -12 7157.81 234.140  15
   0   4  12 7082.82 242.720  13
   0  -4 -13 64.9763 29.1844  15
   0   4  13 87.1072 33.5999  13
   0   4  14 4249.11 121.198  13
   0  -5  11 1961.53 79.4493  12
   0  -5  10 33.0469 18.4509  13
   0  -5   9 16.3313 26.7836  13
   0  -5   8 2014.89 125.656  13
   0  -5   7 5798.19 214.587  13
   0  -5   6 147.732 41.3036  13
   0   5  -5 5211.96 410.567   4
   0   5  -5 5853.20 458.699   5
   0  -5   5 5875.84 203.769  13
   0   5  -4 62094.0 1363.95   4
   0   5  -4 66151.0 1433.08   5
   0   5  -3 2563.68 271.292   4
   0   5  -3 2606.22 271.253   5
   0   5  -2 27353.7 852.919   4
   0   5  -2 27647.9 787.915   5
   0   5  -1 28675.7 835.146   4
   0   5   0 6016.57 371.359   4
   0  -5  -1-62.9744 37.9832   1
   0   5   1-18.4540 54.9005   4
   0   5   2 338.216 103.583   4
   0  -5  -2 350.419 75.2035   1
   0  -5  -3 41716.0 863.825   1
   0   5   3 40824.4 865.446   4
   0  -5  -4 529.927 109.645   1
   0   5   4 605.763 109.611   4
   0  -5  -5 16942.5 666.061   1
   0  -5  -6 90331.2 1673.60   1
   0  -5  -7 54730.3 621.737  10
   0  -5  -7 54076.1 1400.14   1
   0   5   7 54779.9 702.269   8
   0  -5  -8 5512.40 210.492  10
   0  -5  -8 5401.96 472.731   1
   0  -5  -9 19876.9 410.734  10
   0   5   9 20741.3 411.992  14
   0  -5  -9 21030.4 418.598  15
   0   5  10 10082.7 278.131  14
   0  -5 -10 10139.6 290.580  15
   0  -5 -11 2067.28 129.430  15
   0  -5 -12 10651.2 261.666  15
   0   5  12 11084.4 281.830  13
   0  -5 -13 9022.14 201.991  15
   0   5  13 8984.18 217.288  13
   0   5  14 298.206 31.9977  13
   0  -6  10 69.7175 21.0536  12
   0  -6   9 558.702 59.9844  12
   0  -6   8 3092.49 129.994  13
   0  -6   7 20.3138 26.4870  13
   0  -6   6 1889.13 121.428  13
   0  -6   5 29942.7 470.961  13
   0  -6   4 5403.21 195.212  13
   0   6  -4 4801.44 416.971   4
   0  -6   3 13157.7 293.160  13
   0   6  -3 14028.1 699.390   4
   0  -6   2 18163.2 350.980  12
   0   6  -2 18099.7 782.560   4
   0   6  -1 1089.19 199.616   4
   0   6   0 8563.62 506.642   4
   0   6   1 5649.29 394.039   4
   0   6   2 21968.6 747.832   4
   0  -6  -3 2590.15 225.480   1
   0   6   3 2786.00 258.258   4
   0  -6  -4 12517.4 543.376   1
   0   6   4 12332.9 520.361   4
   0   6   5 51985.5 645.958   8
   0  -6  -5 49974.2 1183.02   1
   0  -6  -6 2738.57 298.478   1
   0   6   6 2913.88 161.837   6
   0  -6  -6 2982.07 149.219  10
   0   6   6 2731.61 160.783   8
   0  -6  -7 3928.12 177.754  10
   0   6   7 3797.60 195.947   8
   0  -6  -7 3543.20 363.666   1
   0  -6  -8 16317.3 368.502  10
   0   6   8 16079.2 418.683   8
   0   6   9 2032.66 135.888  14
   0  -6  -9 2124.14 133.665  10
   0  -6  -9 1907.71 126.313  15
   0   6  10 6318.04 223.768  14
   0  -6 -10 6396.75 220.459  15
   0   6  11 19165.2 345.173  14
   0  -6 -11 20313.5 363.115  15
   0   6  12 9185.20 239.653  13
   0  -6 -12 9370.53 214.368  15
   0   6  13 44.6936 23.1460  13
   0  -7   8 626.511 59.8015  12
   0  -7   7 36.6698 33.5066  12
   0  -7   6 853.891 87.7093  12
   0  -7   5 6615.43 243.331  12
   0  -7   4 1620.38 127.671  12
   0  -7   4 1574.55 109.882  13
   0  -7   3 2696.06 156.984  12
   0  -7   3 2711.48 140.496  13
   0   7  -2 2290.26 298.816   4
   0  -7   2 2443.78 130.976  13
   0  -7   2 2545.54 148.201  12
   0  -7   1 420.189 64.5432  12
   0   7  -1 504.834 150.921   4
   0  -7   0 7317.34 233.989  12
   0   7   0 7487.10 516.310   4
   0   7   0 7098.55 227.023   6
   0   7   1 14565.6 329.675   6
   0   7   1 14752.5 701.092   4
   0   7   1 15405.1 375.068   8
   0   7   2 13717.4 352.584   8
   0   7   2 13433.8 651.615   4
   0   7   2 13485.4 321.859   6
   0   7   3 17399.6 403.262   8
   0   7   3 17606.9 375.167   6
   0   7   3 16993.3 703.532   4
   0  -7  -4 8063.62 252.393  10
   0   7   4 8010.33 276.330   8
   0   7   4 7974.03 261.831   6
   0   7   4 7582.92 452.233   4
   0   7   5 6857.57 260.811   8
   0   7   5 6941.68 254.953   6
   0  -7  -5 7115.65 239.932  10
   0   7   6 20577.4 460.904   8
   0  -7  -6 20270.2 406.502  10
   0  -7  -7 14659.6 350.433  10
   0   7   7 15241.9 408.881   8
   0  -7  -8 2543.97 147.364  10
   0   7   8 2529.85 171.335   8
   0  -7  -9 9087.20 266.505  10
   0  -7  -9 8384.62 247.566  15
   0   7  10 20270.8 390.640  14
   0  -7 -10 21355.2 363.009  15
   0   7  11 1387.83 90.4196  14
   0   7  12 5023.94 153.315  13
   0   8  -7 572.368 51.1403   8
   0  -8   7 802.696 58.4288  12
   0  -8   6 7402.75 205.267  12
   0  -8   5 1288.64 100.536  12
   0  -8   4 449.900 66.9697  12
   0  -8   3 4645.28 205.679  12
   0  -8   2 142.160 47.5711  12
   0  -8   1 4409.51 195.583  12
   0   8   0 3629.15 201.973   8
   0   8   1 14947.0 405.334   8
   0   8   1 14816.8 348.321   6
   0   8   2 3625.67 175.902   6
   0   8   2 3463.16 195.342   8
   0  -8  -3 1152.35 103.845  10
   0   8   3 1339.48 122.171   8
   0   8   3 1489.98 118.768   6
   0   8   4 9232.84 319.581   8
   0  -8  -4 9498.40 289.338  10
   0   8   4 9636.27 300.146   6
   0   8   5 14423.2 373.607   6
   0   8   5 14836.4 399.393   8
   0  -8  -5 14361.6 350.320  10
   0   8   6 6323.06 265.966   8
   0  -8  -6 6293.82 229.737  10
   0   8   7 10143.3 336.209   8
   0  -8  -7 10100.7 286.971  10
   0  -8  -8 10007.5 274.152  10
   0   8   8 10129.0 330.411   8
   0   8   9 9631.37 281.600  14
   0  -8  -9 9964.58 253.700  10
   0   8  10 647.438 68.4132  14
   0   8  11 9973.35 207.519  14
   0   9  -5 144.968 35.4579   8
   0   9  -4 1334.98 101.075   8
   0   9  -3 3618.44 178.805   8
   0   9  -2 1040.48 106.230   8
   0   9  -1 1284.47 123.709   8
   0   9   0 21279.6 482.214   8
   0   9   1 3091.81 186.086   8
   0   9   2 958.387 107.122   8
   0   9   2 1006.94 93.4775   6
   0  -9  -2 854.976 91.5247  10
   0   9   3 9396.81 277.063   6
   0   9   3 9637.03 322.784   8
   0  -9  -3 9270.61 283.755  10
   0   9   4 1057.46 110.850   8
   0  -9  -4 1044.31 96.6966  10
   0   9   4 1054.06 98.6237   6
   0   9   5 1457.47 129.870   8
   0  -9  -5 1352.55 105.627  10
   0   9   6 16356.7 411.435   8
   0  -9  -6 15053.5 334.366  10
   0   9   7 3545.83 188.647   8
   0  -9  -7 3531.40 154.470  10
   0  -9  -8 744.758 66.9776  10
   0   9   8 685.847 82.5307   8
   0   9   9 5064.91 182.234  14
   0   9  10 8250.86 195.955  14
   0  10  -3 66.3959 28.0698   8
   0  10  -2 518.210 64.6845   8
   0  10  -1 3105.39 153.390   8
   0 -10   0 319.725 52.9650  10
   0  10   0 364.631 63.4261   8
   0 -10  -1 2754.70 136.569  10
   0  10   1 3095.50 170.257   8
   0  10   2 9685.15 295.349   8
   0 -10  -2 8828.61 240.765  10
   0  10   3 1127.67 106.202   8
   0 -10  -3 1021.67 84.7962  10
   0 -10  -4 1105.95 84.4218  10
   0  10   4 1316.76 113.926   8
   0 -10  -5 13532.9 274.018  10
   0  10   5 14200.5 352.381   8
   0  10   6 2351.09 139.741   8
   0 -10  -6 2210.13 104.628  10
   0  10   7 244.668 49.7591   8
   0  10   8 5566.21 177.354  14
   0  10   9 6173.51 158.467  14
   0  11   0 218.180 36.2854   8
   0  11   1 597.644 59.2614   8
   0  11   2 0.88030 24.2575   8
   0  11   3 306.891 47.2815   8
   0  11   4 1731.46 101.546   8
   0  11   5 102.213 30.8216   8
   0  11   6 287.010 41.0237   8
   0  11   7 3415.36 110.988  14
  -1  11   4 802.782 56.6699   8
  -1  11   3 19.2803 20.5886   8
  -1  11   2 1103.81 68.0357   8
  -1  11   1 1344.07 72.3454   8
   1 -10  -8 582.261 42.0791  10
  -1  10   8 618.994 51.3772  14
   1 -10  -7 1098.11 68.1240  10
   1 -10  -6 9386.75 214.332  10
  -1  10   6 9404.79 239.814   8
  -1  10   5 877.680 81.3327   8
   1 -10  -5 833.756 71.6007  10
   1 -10  -4 156.163 35.6195  10
  -1  10   4 238.927 50.2211   8
  -1  10   3 3507.31 164.473   8
   1 -10  -3 3415.27 151.134  10
   1 -10  -2 1162.66 92.3022  10
  -1  10   2 1310.37 103.173   8
  -1  10   1 765.102 81.3224   8
   1 -10  -1 703.228 72.4656  10
   1 -10   0 3323.37 145.879  10
  -1  10   0 3631.19 162.267   8
   1 -10   1 252.619 43.9523  10
  -1  10  -1 339.320 53.9943   8
  -1  10  -2 167.025 36.8784   8
   1 -10   2 118.406 29.8936  10
   1 -10   3 304.937 35.0663  10
  -1  10  -3 382.702 43.1765   8
   1  -9  -9 705.390 57.6343  10
  -1   9   9 662.308 59.2810  14
   1  -9  -8 7975.25 214.395  10
   1  -9  -7 9794.35 259.623  10
  -1   9   7 9733.05 280.555   8
  -1   9   6 1458.06 118.187   8
   1  -9  -6 1459.04 109.529  10
  -1   9   5 10703.6 316.559   8
   1  -9  -5 10543.0 297.491  10
   1  -9  -4 12989.5 339.058  10
  -1   9   4 13092.6 357.686   8
   1  -9  -3 1883.79 136.057  10
  -1   9   3 2041.27 148.380   8
  -1   9   2 3950.52 204.685   8
   1  -9  -2 3858.46 193.643  10
  -1   9   1 9214.83 305.945   8
  -1   9   0 1241.63 116.938   8
  -1   9  -1 75.6253 44.0630   8
   1  -9   2 768.020 67.9893  13
  -1   9  -2 857.385 92.6399   8
  -1   9  -3 522.338 71.7661   8
  -1   9  -4 225.673 45.9880   8
  -1   9  -5 79.1434 28.1773   8
   1  -8 -10 2993.04 116.382  15
  -1   8  10 2596.01 108.126  14
  -1   8   9 14133.8 306.102  14
   1  -8  -9 14093.6 295.391  15
   1  -8  -8 9813.67 278.760  10
  -1   8   8 9755.70 293.498   8
  -1   8   7 6992.38 261.681   8
   1  -8  -7 7123.76 249.713  10
  -1   8   6 20430.9 454.907   8
   1  -8  -6 20482.4 434.188  10
  -1   8   5 18926.3 440.397   8
   1  -8  -5 18743.7 422.167  10
   1  -8  -4 438.396 71.8497  10
  -1   8   4 466.739 78.7500   8
  -1   8   3 3758.28 199.981   8
   1  -8  -3 3671.12 194.167  10
  -1   8   2 2278.07 160.058   8
  -1   8   1 3566.19 197.733   8
   1  -8  -1 3447.14 168.990  13
   1  -8   0 2897.96 154.347  13
  -1   8   0 2913.77 182.917   8
   1  -8   1 9743.87 279.674  13
   1  -8   2 3078.66 172.487  12
   1  -8   2 2934.44 155.632  13
   1  -8   3-11.6851 38.5473  12
   1  -8   3 19.5723 36.2504  13
   1  -8   4 5424.42 211.816  12
   1  -8   4 4970.60 183.444  13
   1  -8   5 3981.00 145.903  13
   1  -8   5 4540.87 181.335  12
   1  -8   6 11.2239 22.7237  12
   1  -7 -12 8.53291 13.1692  15
  -1   7  12 51.7115 23.5310  13
   1  -7 -11 7069.26 187.543  15
   1  -7 -10 17099.1 336.922  15
  -1   7  10 15542.9 296.546  14
   1  -7  -9 3260.39 165.419  10
   1  -7  -8 21471.4 441.239  10
  -1   7   8 21218.4 458.724   8
  -1   7   7 24340.3 497.323   8
   1  -7  -7 24335.5 477.698  10
  -1   7   6 5255.92 230.517   8
   1  -7  -6 4901.14 215.505  10
   1  -7  -5 3703.42 188.115  10
  -1   7   5 3746.77 193.119   8
   1  -7  -4 13542.9 356.097  10
  -1   7   4 13779.4 363.090   8
  -1   7   3 1395.91 116.676   8
  -1   7   3 1298.66 190.927   4
  -1   7   2 5126.42 221.161   8
  -1   7   2 5273.17 404.885   4
   1  -7  -2 5079.93 196.322  13
  -1   7   1 9305.89 298.641   8
   1  -7  -1 8940.54 261.406  13
  -1   7   1 8505.01 539.167   4
  -1   7   0 28284.4 1010.28   4
   1  -7   0 28161.4 490.972  12
   1  -7   0 29052.6 476.063  13
   1  -7   1 21038.9 418.665  13
  -1   7  -1 20049.9 887.607   4
   1  -7   1 22298.0 439.450  12
   1  -7   2 3316.13 169.764  13
   1  -7   2 3416.10 180.394  12
   1  -7   3 1441.56 125.183  12
   1  -7   3 1570.44 118.377  13
   1  -7   4 3340.24 180.499  12
   1  -7   4 3395.77 173.583  13
   1  -7   5 1121.14 107.498  12
   1  -7   5 1083.44 97.3434  13
   1  -7   6 741.702 88.4726  12
   1  -7   6 715.247 74.8358  13
   1  -7   7 3468.29 135.136  13
   1  -7   7 3987.19 164.716  12
   1  -7   8 226.870 38.3882  12
  -1   6  13 2562.17 93.7616  13
   1  -6 -12 8407.24 202.122  15
   1  -6 -11 5017.35 184.360  15
   1  -6 -10 1404.22 111.343  15
  -1   6   9 3286.42 160.735  14
   1  -6  -9 3368.66 175.620  10
   1  -6  -8 33.6490 32.5121  10
   1  -6  -7 853.652 93.9695  10
  -1   6   7 860.589 95.8828   8
   1  -6  -7 937.706 190.970   1
   1  -6  -6 18023.6 397.001  10
  -1   6   6 18070.1 400.120   8
   1  -6  -6 18252.3 808.739   1
   1  -6  -5 20506.9 414.833  10
  -1   6   5 20494.0 411.703   8
   1  -6  -5 21242.7 815.703   1
  -1   6   4 584.270 71.1035   8
   1  -6  -4 632.220 72.7202  10
   1  -6  -4 569.498 126.959   1
   1  -6  -3 22753.7 753.346   1
  -1   6   3 21836.1 708.477   4
  -1   6   2 8208.02 464.964   4
   1  -6  -2 8653.44 439.050   1
  -1   6   1 7526.63 465.619   4
  -1   6   0 1574.73 225.012   4
   1  -6   1 2400.19 135.787  12
   1  -6   1 2646.08 135.395  13
  -1   6  -1 2521.56 294.898   4
   1  -6   2 1153.26 100.169  12
  -1   6  -2 1185.09 213.959   4
   1  -6   2 1213.09 98.0632  13
   1  -6   3 2847.29 161.091  12
   1  -6   3 2873.30 156.062  13
  -1   6  -3 2925.84 328.269   4
   1  -6   4 18455.4 393.373  13
  -1   6  -4 17755.4 824.895   4
   1  -6   4 18960.2 418.268  12
   1  -6   5 5272.10 227.097  12
   1  -6   5 5216.55 213.913  13
   1  -6   6 6281.08 248.115  12
   1  -6   6 6052.71 226.889  13
   1  -6   7 956.876 99.2394  12
   1  -6   7 798.896 83.7747  13
   1  -6   8 2220.09 117.834  13
   1  -6   8 2290.68 131.178  12
   1  -6   9 435.547 51.6628  12
   1  -6   9 299.207 38.5256  13
   1  -5 -13 3588.84 123.590  15
  -1   5  13 3799.66 131.220  13
   1  -5 -12 274.891 46.3689  15
  -1   5  12 225.156 47.9333  13
   1  -5 -11 10852.1 292.527  15
   1  -5 -10 26729.4 487.134  15
   1  -5  -9 2867.06 163.971  10
   1  -5  -8 65068.5 1654.47   1
   1  -5  -8 63594.0 760.107  10
  -1   5   7 78834.5 820.636   8
   1  -5  -7 82155.8 1786.44   1
   1  -5  -7 80495.3 815.313  10
   1  -5  -6 16919.7 362.898  10
   1  -5  -6 16887.8 763.445   1
   1  -5  -5 4420.41 365.680   1
   1  -5  -4 6996.71 425.551   1
  -1   5   3 167.368 64.7906   4
   1  -5  -3 130.497 55.4692   1
   1  -5  -2 2820.73 235.256   1
  -1   5   2 2839.58 244.417   4
   1  -5  -1 5440.92 315.238   1
  -1   5   1 5669.92 356.949   4
   1  -5   0 45220.7 892.703   1
  -1   5   0 44347.9 1047.79   4
   1  -5   1 34128.3 777.362   1
  -1   5  -1 33632.4 956.049   4
  -1   5  -2 1408.64 179.811   5
  -1   5  -2 1357.49 209.628   4
  -1   5  -3 42179.8 1019.51   5
  -1   5  -3 40773.4 1140.84   4
  -1   5  -4 4439.07 391.958   4
   1  -5   4 4488.77 184.906  13
  -1   5  -4 4340.02 363.699   5
  -1   5  -5 530.098 140.257   5
  -1   5  -5 307.487 107.045   4
   1  -5   5 433.553 69.1091  13
   1  -5   6 13920.9 350.795  13
   1  -5   7 2632.89 157.600  13
   1  -5   8 711.884 82.1436  13
   1  -5   9 2865.71 140.007  13
   1  -5  10 638.525 61.8446  12
   1  -5  10 589.470 53.7749  13
   1  -4 -13 1548.66 93.5188  15
  -1   4  13 1620.35 94.5245  13
   1  -4 -12 6640.06 220.305  15
  -1   4  12 6515.00 222.191  13
   1  -4 -11 12379.5 331.572  15
   1  -4 -10 787.535 93.5351  15
   1  -4  -9 6715.68 248.740  10
   1  -4  -9 7055.86 255.333  15
   1  -4  -8 34789.1 1208.62   1
   1  -4  -8 34603.0 539.293  10
   1  -4  -7 6964.90 229.878  10
   1  -4  -7 7244.06 517.736   1
   1  -4  -6 9039.49 543.328   1
   1  -4  -5 67158.0 1347.77   1
   1  -4  -4 137.548 61.0788   1
  -1   4   3 22104.6 530.247   4
   1  -4  -3 21858.7 653.461   1
  -1   4   2 178490. 1611.63   4
   1  -4  -2 178483. 1716.83   1
   1  -4  -1 76942.0 1082.39   1
  -1   4   1 76909.4 1126.29   4
  -1   4   0 1113.85 153.080   4
   1  -4   0 1139.87 138.367   1
  -1   4  -1 53412.4 832.969   5
  -1   4  -1 53897.4 1052.21   4
   1  -4   1 53285.1 895.808   1
  -1   4  -2 114498. 1631.04   4
  -1   4  -2 114024. 1391.13   5
  -1   4  -3 907.988 162.725   4
  -1   4  -3 977.520 150.480   5
  -1   4  -4 4373.91 351.834   4
  -1   4  -4 4459.07 347.250   5
  -1   4  -5 67799.9 1440.21   5
  -1   4  -5 65117.3 1404.52   4
   1  -4   5 68032.7 686.163  13
   1  -4   6 10090.6 288.882  13
  -1   4  -6 9709.41 582.470   5
  -1   4  -6 9942.08 554.216   4
   1  -4   7 481.981 73.1663  13
   1  -4   8 5271.18 217.246  13
   1  -4   9 1788.21 125.594  13
   1  -4  10 36.0633 27.3297  13
   1  -4  11 137.742 30.7985  13
  -1   3  14 626.285 43.7655  13
  -1   3  13 4000.32 149.441  13
   1  -3 -13 3778.24 155.923  15
   1  -3 -12 2765.58 154.361  15
  -1   3  12 2981.66 156.060  13
   1  -3 -11 6997.24 258.923  15
   1  -3 -10 17110.2 402.428  15
   1  -3  -9 5148.58 220.484  15
   1  -3  -9 4537.45 440.592   1
   1  -3  -8 2642.81 261.619   3
   1  -3  -8 2681.04 150.613  10
   1  -3  -8 2433.54 311.092   1
   1  -3  -7 45211.8 1247.03   1
   1  -3  -6 28562.6 921.228   1
   1  -3  -5 4025.76 313.556   1
   1  -3  -4 409.326 93.4519   1
  -1   3   3 68658.4 747.537   4
   1  -3  -3 70697.5 1071.78   1
  -1   3   2 153509. 1233.25   4
   1  -3  -2 150927. 1444.48   1
   1  -3  -1 4694.33 241.490   1
  -1   3   1 4657.49 233.113   4
  -1   3   0 73186.6 986.720   4
   1  -3   0 72461.2 910.827   1
  -1   3   0 71229.0 696.355   5
   1  -3   1 120370. 1204.79   1
  -1   3  -1 119726. 1107.51   5
  -1   3  -1 120647. 1361.41   4
  -1   3  -2 4140.71 275.647   4
  -1   3  -2 4208.01 191.429   2
  -1   3  -3 6581.37 364.159   4
  -1   3  -3 6222.72 254.286   2
  -1   3  -4 31435.7 837.146   4
  -1   3  -5 2558.09 257.769   4
   1  -3   6 14396.0 319.552  13
  -1   3  -6 14151.2 610.054   4
  -1   3  -7 19597.0 848.193   5
   1  -3   7 20467.3 412.545  13
   1  -3   8 2813.81 162.450  13
   1  -3   9 4201.47 198.936  13
   1  -3  10 2257.28 139.643  13
   1  -3  11 2359.87 123.886  13
   1  -3  12 40.7808 20.0725  13
   1  -2 -14 584.468 41.6331   6
  -1   2  13 68.2884 31.0374  13
   1  -2 -13 106.550 39.6409  15
  -1   2  12 12379.2 309.465  13
   1  -2 -12 12861.8 336.345  15
   1  -2 -11 4862.52 220.574  15
  -1   2  11 4987.88 214.080  13
   1  -2 -10 590.519 81.4714  15
   1  -2  -9 8415.51 274.919  15
   1  -2  -9 8181.33 568.437   1
   1  -2  -8 15757.6 348.916  15
   1  -2  -8 15144.3 758.416   1
   1  -2  -7 8533.62 429.765   3
   1  -2  -4 86519.9 1223.91   1
   1  -2  -3 847.038 112.534   1
  -1   2   3 857.135 57.3088   4
   1  -2  -2 43061.8 696.534   1
  -1   2   2 44538.2 505.138   4
   1  -2  -1 172970. 1285.02   1
  -1   2   1 174038. 1127.97   4
   1  -2   0 19301.6 418.876   1
   1  -2   1 107806. 1001.71   1
  -1   2  -2 21608.9 410.860   2
  -1   2  -3 17944.3 435.433   2
  -1   2  -4 87071.1 1051.05   2
  -1   2  -5 71052.1 1022.18   2
  -1   2  -6 15063.3 580.098   4
  -1   2  -7 591.273 125.658   4
   1  -2   7 825.977 82.7526  13
   1  -2   8 1181.09 105.774  13
   1  -2   9 1985.88 138.888  13
   1  -2  10 941.048 96.2145  13
   1  -2  11 35.7035 32.9950  13
   1  -2  12 1702.64 98.6715  13
   1  -2  13 512.435 40.2710  13
  -1   1  13 5214.16 160.425  13
  -1   1  12 2150.79 127.952  13
   1  -1 -12 2140.57 146.804  15
  -1   1  11 0.36852 32.8399  13
   1  -1 -11 12.7393 36.7480  15
  -1   1  10 5653.49 231.734  13
   1  -1 -10 5470.84 237.898  15
   1  -1  -9 10892.3 312.659  15
   1  -1  -9 9431.46 590.577   1
   1  -1  -8 330.513 56.7000  15
   1  -1  -7 19653.5 618.108   3
   1  -1  -6 37840.2 903.807   2
   1  -1  -6 36910.9 808.165   3
   1  -1  -5 36320.9 794.058   2
   1  -1  -4 14328.8 448.499   2
   1  -1  -2 15833.1 194.230   5
   1  -1  -2 16315.9 374.938   1
   1  -1  -1 30129.9 457.154   1
   1  -1   0 211234. 1164.52   1
   1  -1   1 3035.96 146.560   1
  -1   1  -2 66100.0 687.354   2
  -1   1  -3 77983.4 907.639   2
  -1   1  -4 145719. 1392.42   2
  -1   1  -5 18736.2 545.991   2
  -1   1  -6 20832.9 623.293   2
  -1   1  -7 33673.3 848.598   2
   1  -1   8 332.052 60.6253  13
   1  -1   9 8632.93 275.554  13
   1  -1  10 22813.8 452.783  13
   1  -1  11 6099.77 226.289  13
   1  -1  12 229.083 47.8160  13
   1  -1  13 16.5905 20.5985  13
   1   0 -13 475.336 50.6861   6
  -1   0  13 437.694 46.7953  13
  -1   0  12 1787.87 111.345  13
  -1   0  11 3680.18 178.629  13
   1   0 -11 3692.91 202.341  15
   1   0 -10 1533.47 129.950  15
  -1   0  10 1543.93 121.482  13
  -1   0   9 2729.36 155.418  13
   1   0  -9 2857.46 165.579  15
   1   0  -8 24722.9 444.367  15
  -1   0   8 25978.1 428.945  13
   1   0  -8 25347.7 841.100   5
   1   0  -7 6885.53 359.175   3
   1   0  -7 6510.09 396.500   5
   1   0  -6 76.0090 48.3339   3
   1   0  -6 262.567 81.0194   2
   1   0  -5 94324.8 1167.49   3
   1   0  -5 96514.1 1211.07   2
   1   0  -4 112070. 1168.68   3
   1   0  -4 117803. 1182.08   2
   1   0  -3 7057.18 265.940   3
   1   0  -3 7426.27 260.267   2
   1   0  -2 88139.0 685.443   5
   1   0  -1 325600. 1215.03   1
   1   0   0 6963.19 165.470   1
  -1   0  -1 11854.2 238.663   2
   1   0   1 12487.1 258.529   1
  -1   0  -2 258688. 1341.73   2
  -1   0  -3 85330.0 956.339   2
  -1   0  -4 14086.2 436.761   2
  -1   0  -5 74836.8 1113.55   2
  -1   0  -6 37810.6 864.451   2
  -1   0  -7 59.7093 70.2537   2
   1   0   8 4.43894 21.6684  13
  -1   0  -8 46.1596 29.3828  15
  -1   0  -9 14587.8 648.148   2
   1   0   9 14721.4 357.177  13
  -1   0  -9 15386.9 393.416  15
   1   0  10 15248.8 370.566  13
   1   0  11 567.313 80.2340  13
   1   0  12 3432.40 162.791  13
   1   0  13 2467.06 115.879  13
  -1  -1  13 1233.72 60.3481  13
   1   1 -13 1617.27 74.1170   6
   1   1 -12 1001.66 80.6545   6
  -1  -1  12 1048.56 78.7418  13
  -1  -1  11 789.242 83.0394  13
   1   1 -10 7474.93 291.675  15
  -1  -1  10 7429.78 249.703  13
   1   1  -9 9674.93 572.265   5
   1   1  -9 10090.5 328.477  15
  -1  -1   9 10656.8 297.235  13
  -1  -1   8 132.377 35.6894  13
   1   1  -8 87.8258 69.9356   5
   1   1  -8 127.768 43.2884  15
   1   1  -7 1557.28 217.636   5
   1   1  -6 66305.1 1075.52   3
   1   1  -6 66486.9 1234.36   5
   1   1  -5 41355.1 797.564   3
   1   1  -5 41694.7 737.365   2
   1   1  -4 2875.45 139.026   4
   1   1  -4 2966.29 202.395   3
   1   1  -4 3173.18 181.618   2
   1   1  -3 140552. 896.062   4
   1   1  -3 141146. 1009.02   2
   1   1  -3 139579. 1259.43   5
   1   1  -3 139019. 1233.89   3
   1   1  -2 88612.3 877.173   3
   1   1  -2 89873.7 664.378   4
   1   1  -1 61174.6 370.837   1
   1   1  -1 61445.1 519.755   4
   1   1   0 19410.3 197.688   1
  -1  -1  -1 291152. 1144.21   2
   1   1   2 64824.6 657.229   4
  -1  -1  -2 62149.5 706.215   2
  -1  -1  -3 34774.4 620.758   2
  -1  -1  -4 147090. 1418.73   2
  -1  -1  -5 56883.4 985.254   2
  -1  -1  -6 1298.83 174.409   2
  -1  -1  -7 5836.57 383.639   2
  -1  -1  -8 23046.0 816.248   2
   1   1   9 4821.96 202.059  13
  -1  -1  -9 5218.46 209.539  15
  -1  -1  -9 4532.07 388.965   2
   1   1   9 4915.27 187.030  14
  -1  -1 -10 1062.81 108.940  15
   1   1  10 883.574 98.4185  13
   1   1  11 5794.58 229.188  13
  -1  -1 -11 5694.05 244.078  15
   1   1  12 4913.19 199.411  13
   1   1  13 820.448 75.4863  13
   1   1  14 2898.44 101.074  13
   1   2 -12 206.430 36.4817   6
  -1  -2  12 168.903 32.4168  13
  -1  -2  11 11093.1 263.861  13
   1   2 -11 11352.9 280.881   6
   1   2 -10 25141.3 461.192   6
  -1  -2  10 25174.8 439.258  13
  -1  -2   9 2421.79 144.793  13
   1   2  -8 7454.17 512.834   5
  -1  -2   8 8023.98 245.454  13
   1   2  -8 7660.44 280.335  15
   1   2  -7 35465.2 543.918  15
   1   2  -7 36524.3 1065.43   5
   1   2  -6 421.251 115.409   5
   1   2  -5 64686.9 895.227   4
   1   2  -5 67631.0 1235.70   5
   1   2  -5 67295.1 1113.92   3
   1   2  -4 44924.5 843.027   3
   1   2  -4 44647.8 910.302   5
   1   2  -4 43778.4 706.043   4
   1   2  -3 8060.35 331.365   3
   1   2  -3 8162.63 290.360   4
   1   2  -3 8104.74 350.971   5
   1   2  -2 47292.1 749.236   5
   1   2  -2 47412.0 736.968   3
   1   2  -2 48098.7 661.355   4
   1   2  -1 37053.4 546.467   4
  -1  -2   0 198314. 669.817   2
  -1  -2  -1 13618.9 264.996   2
   1   2   2 40702.1 564.413   4
  -1  -2  -2 39572.1 574.737   2
   1   2   3 139076. 1098.35   4
  -1  -2  -3 137518. 1233.65   2
  -1  -2  -4 153.332 63.8844   2
  -1  -2  -5 60921.0 1044.63   2
  -1  -2  -6 16888.1 610.679   2
  -1  -2  -7 16396.7 654.094   2
  -1  -2  -8 276.033 111.053   2
  -1  -2  -9 9082.51 563.672   2
   1   2   9 8910.63 265.075  13
  -1  -2  -9 9048.87 261.009  15
   1   2   9 8712.90 248.205  14
   1   2  10 7817.98 262.110  13
   1   2  10 8063.80 246.862  14
  -1  -2 -10 7509.62 255.590  15
   1   2  11 13.7308 30.7897  13
  -1  -2 -11-6.10029 33.0558  15
   1   2  12 2172.03 135.715  13
   1   2  13 7038.46 212.548  13
   1   2  14 188.421 32.4166  13
  -1  -3  11 101.147 28.9994  13
   1   3 -11 133.764 37.7831   6
   1   3 -10 106.357 38.8191   6
  -1  -3  10 51.2937 31.1528  13
  -1  -3   9 1188.76 97.7850  13
   1   3  -9 1064.04 97.8515   6
  -1  -3   8 251.945 53.8711  13
   1   3  -8 207.839 51.8829   6
  -1  -3   7 3576.18 160.337  13
   1   3  -7 3784.99 174.695   6
   1   3  -7 3620.59 365.483   5
   1   3  -6 31426.5 990.495   5
   1   3  -5 47878.1 927.135   4
   1   3  -5 52331.5 1180.81   5
   1   3  -4 6046.68 318.766   4
   1   3  -4 6250.54 378.980   5
   1   3  -3 23768.4 604.413   4
   1   3  -3 24607.0 686.070   5
   1   3  -2 6195.37 313.939   5
   1   3  -2 6090.93 292.689   4
   1   3  -1 41250.7 720.493   4
   1   3  -1 40403.7 736.972   5
   1   3   0 6536.43 280.879   4
  -1  -3   0 5103.74 96.7226   1
  -1  -3  -1 192785. 980.417   1
  -1  -3  -1 192109. 948.274   2
   1   3   1 191704. 1467.03   4
  -1  -3  -2 63454.3 713.214   2
   1   3   2 61367.1 815.102   4
   1   3   3 112.121 47.1096   4
  -1  -3  -3 32.5831 45.5561   2
  -1  -3  -4 93018.8 1198.71   2
   1   3   4 95227.6 1059.49   4
   1   3   5 6883.07 299.728   4
  -1  -3  -5 6740.40 361.885   2
  -1  -3  -6 12334.1 536.239   2
  -1  -3  -7 7254.64 450.522   2
  -1  -3  -8 21807.5 839.784   2
   1   3   9 7928.64 243.221  14
  -1  -3  -9 7935.53 236.767  15
  -1  -3  -9 8371.67 549.901   2
   1   3  10 994.159 93.4215  14
   1   3  10 899.786 92.5397  13
  -1  -3 -10 841.018 87.1061  15
   1   3  11 11784.3 329.770  13
  -1  -3 -11 12504.4 325.456  15
   1   3  11 12460.4 305.822  14
   1   3  12 19657.4 394.857  13
  -1  -3 -12 17890.0 382.657  15
   1   3  13 8.75462 28.4341  13
   1   3  14 3967.35 124.949  13
   1   4 -11 2542.44 94.6046   6
   1   4 -10 3162.36 140.527   6
   1   4  -9 262.648 51.0225   6
  -1  -4   9 296.251 49.1092  13
   1   4  -8 12120.5 323.574   6
  -1  -4   8 11084.8 278.297  13
   1   4  -7 14823.0 759.978   5
   1   4  -7 15552.2 361.537   6
  -1  -4   7 14744.8 315.969  13
   1   4  -6-251.068 111.827   5
   1   4  -6 47.6400 31.8803   6
   1   4  -5 3008.65 321.875   5
   1   4  -5 2791.60 255.177   4
   1   4  -4 1108.67 168.875   4
   1   4  -4 1340.34 196.769   5
   1   4  -3 31803.0 823.206   4
   1   4  -3 33726.2 899.275   5
   1   4  -2 3975.10 278.632   4
   1   4  -2 3951.95 286.725   5
   1   4  -1 35195.7 791.325   4
   1   4   0 29010.1 701.092   4
   1   4   1 322.069 85.4183   4
  -1  -4  -1 338.472 51.8344   1
  -1  -4  -2 90590.3 928.065   1
  -1  -4  -2 89778.9 869.789   2
   1   4   2 91691.1 1170.51   4
  -1  -4  -3 49098.2 778.143   2
   1   4   3 47972.0 834.541   4
   1   4   4 22.1942 30.2067   4
  -1  -4  -4 70.4783 54.3125   2
   1   4   5 7715.68 342.647   4
  -1  -4  -5 7897.03 402.289   2
  -1  -4  -6 47441.9 1093.64   2
  -1  -4  -7 47527.4 1184.99   2
  -1  -4  -8 1811.48 245.147   2
   1   4   8 1721.43 114.288  14
   1   4   9 13647.0 327.953  14
  -1  -4  -9 13849.5 307.462  15
  -1  -4  -9 13701.1 714.251   2
  -1  -4 -10 21292.8 398.176  15
   1   4  10 21584.5 421.408  14
   1   4  11 7237.53 250.728  13
  -1  -4 -11 6990.89 232.134  15
   1   4  11 6966.73 233.428  14
  -1  -4 -12 6185.31 209.066  15
   1   4  12 6559.86 225.203  13
   1   4  13 7276.36 207.162  13
   1   4  14 1683.21 78.6863  13
   1   5 -10-3.47624 18.4554   6
   1   5  -9 4147.52 160.930   6
   1   5  -8 2422.85 138.291   6
   1   5  -7 1994.18 135.041   6
   1   5  -6 15794.2 362.339   6
   1   5  -5 14984.5 646.109   4
   1   5  -5 15975.5 356.166   6
   1   5  -4 756.654 156.781   4
   1   5  -4 705.484 74.8518   6
   1   5  -3 104.573 68.6683   4
   1   5  -2 49546.4 1119.50   4
   1   5  -1 67050.8 1256.06   4
   1   5   0 1181.68 173.397   4
   1   5   1 153101. 1786.11   4
  -1  -5  -2 221783. 1552.95   1
   1   5   2 221345. 2099.65   4
   1   5   3 358.707 100.633   4
  -1  -5  -3 454.980 89.5267   1
  -1  -5  -4 18223.5 557.031   2
  -1  -5  -4 19347.6 599.089   1
   1   5   4 18865.8 604.669   4
  -1  -5  -5 51010.5 1053.14   2
   1   5   5 51487.2 985.739   4
  -1  -5  -5 49348.7 1091.04   1
  -1  -5  -6 947.521 158.811   2
  -1  -5  -7 7883.00 497.197   2
   1   5   7 8413.73 276.265   8
  -1  -5  -8 17468.4 778.140   2
  -1  -5  -8 18152.0 340.154  10
  -1  -5  -9 6126.83 496.208   1
  -1  -5  -9 5432.33 454.567   2
   1   5   9 5768.16 225.444  14
   1   5  10 619.943 80.1730  14
   1   5  11 17701.5 372.546  14
  -1  -5 -11 17899.5 345.307  15
   1   5  12 11577.4 266.348  14
   1   5  12 12182.2 295.825  13
   1   5  13 736.701 64.9144  13
   1   5  14 3499.45 99.6035  13
  -1  -6   9 1352.56 84.9292  12
   1   6  -8 327.805 51.5117   6
   1   6  -7 2055.38 128.471   6
   1   6  -6 2439.77 145.493   6
   1   6  -5 1194.04 107.215   6
   1   6  -4 75.3397 81.9230   4
   1   6  -4 60.1144 30.6247   6
   1   6  -3 18896.6 781.806   4
   1   6  -3 19113.0 379.010   6
   1   6  -2 4154.06 363.363   4
   1   6  -1 13797.1 643.665   4
   1   6   0 46493.8 1146.02   4
   1   6   1 13809.2 616.781   4
   1   6   2 2391.44 255.153   4
   1   6   3 1349.51 189.397   4
  -1  -6  -4 12363.3 490.672   1
   1   6   4 12533.3 551.467   4
   1   6   5 66.2205 52.8533   4
  -1  -6  -5 41.6113 33.0086   1
   1   6   6 47866.5 640.627   6
  -1  -6  -6 48185.9 1188.11   1
   1   6   6 48633.8 659.342   8
  -1  -6  -7 100429. 1853.92   1
   1   6   7 103281. 1021.40   8
   1   6   8 33119.9 609.280   8
  -1  -6  -8 32751.1 471.575  10
  -1  -6  -8 32899.6 1107.91   1
   1   6   9 1542.17 123.923  14
   1   6  10 38157.6 580.108  14
   1   6  11 5462.23 205.174  14
   1   6  12 2025.92 111.841  13
   1   6  12 2014.04 107.756  14
   1   6  13 5852.17 154.718  13
  -1  -7   8 97.0169 27.3704  12
  -1  -7   7 392.666 54.6720  12
   1   7  -7 333.513 47.8859   6
  -1  -7   6 2694.09 143.411  12
   1   7  -6 2633.19 138.630   6
  -1  -7   5 314.871 60.6341  12
   1   7  -5 297.504 60.1500   6
  -1  -7   4 16123.7 361.370  12
   1   7  -4 15864.9 374.500   6
  -1  -7   3 10101.4 281.466  12
   1   7  -3 10096.0 294.791   6
   1   7  -2 2862.02 157.844   6
   1   7  -2 3312.02 351.281   4
  -1  -7   2 2829.45 143.427  12
   1   7  -1 19338.7 395.636   6
  -1  -7   1 18610.1 356.432  12
   1   7   0 1988.38 273.086   4
   1   7   0 2276.99 137.099   6
   1   7   1 26918.3 460.631   6
   1   7   1 26919.8 950.522   4
   1   7   1 27425.5 490.498   8
   1   7   2 18201.5 396.102   8
   1   7   2 18143.6 379.346   6
   1   7   2 17496.1 751.429   4
   1   7   3 3061.62 309.080   4
   1   7   3 3447.00 175.429   8
   1   7   3 3291.79 167.277   6
   1   7   4 7794.86 264.693   6
   1   7   4 7460.29 467.176   4
   1   7   4 8148.68 275.899   8
   1   7   5 16098.5 667.520   4
   1   7   5 16757.4 398.424   6
   1   7   5 16880.8 405.943   8
   1   7   6 8448.08 297.402   8
   1   7   6 8755.46 294.153   6
   1   7   7 2617.59 176.124   8
   1   7   8 619.213 91.6019   8
   1   7   9 2914.35 172.145  14
   1   7  10 509.532 71.1169  14
   1   7  11 6826.71 218.620  14
   1   7  12 12633.4 237.753  13
   1   7  12 11879.1 239.540  14
  -1  -8   7 803.394 52.7606  12
  -1  -8   6 117.841 33.3424  12
   1   8  -6 65.0117 25.5489   8
   1   8  -5 1792.23 106.674   6
  -1  -8   5 1986.30 113.772  12
  -1  -8   4 5.65857 31.8520  12
   1   8  -4-50.9931 39.4804   6
  -1  -8   3 405.603 62.0441  12
   1   8  -3 385.861 66.0670   6
   1   8  -2 545.701 75.2591   6
  -1  -8   2 570.419 72.8559  12
  -1  -8   1 15678.9 339.303  12
   1   8  -1 16442.2 418.064   8
   1   8  -1 15843.8 376.896   6
   1   8   0 32338.1 534.902   6
   1   8   0 32269.5 588.698   8
   1   8   1 4792.62 227.385   8
   1   8   1 4425.97 202.900   6
   1   8   1 4522.93 421.971   4
   1   8   2 86.7178 86.9874   4
   1   8   2 156.497 54.7343   8
   1   8   2 112.587 43.9612   6
   1   8   3 6131.75 253.932   8
   1   8   3 6319.26 245.354   6
   1   8   4 6502.60 461.708   4
   1   8   4 7325.43 279.766   8
   1   8   4 7040.91 263.259   6
   1   8   5 149.629 52.5672   6
   1   8   5 104.828 47.1572   8
   1   8   6 11204.6 342.100   6
   1   8   6 11204.5 353.961   8
   1   8   7 15882.1 429.153   8
   1   8   8 7141.61 288.529   8
   1   8   9 8452.59 277.876  14
   1   8  10 13047.8 314.537  14
   1   8  11 3978.87 126.862  13
   1   8  11 3794.16 148.791  14
   1   8  12 4.99277 14.9069  14
   1   9  -5 1328.61 78.2076   8
   1   9  -4 4438.24 171.208   8
   1   9  -3-2.04091 34.4203   8
   1   9  -3 15.5692 27.3950   6
   1   9  -2 8078.84 273.494   8
   1   9  -2 7855.59 242.368   6
   1   9  -1 16423.5 363.190   6
   1   9  -1 16636.9 414.024   8
   1   9   0 1272.93 110.379   6
   1   9   0 1395.01 125.779   8
   1   9   1 103.107 45.7657   6
   1   9   1 25.0772 42.6665   8
   1   9   2 2794.39 162.027   6
   1   9   2 2965.74 181.724   8
   1   9   3 353.604 65.5491   6
   1   9   3 326.169 67.9732   8
   1   9   4 4532.20 210.298   6
   1   9   4 4781.97 232.130   8
   1   9   5 14485.0 376.206   6
   1   9   5 14334.9 396.598   8
   1   9   6 9955.70 311.667   6
   1   9   6 9989.27 332.512   8
   1   9   7 1524.60 132.801   8
   1   9   8 10307.9 323.745   8
   1   9   9 9460.32 266.784  14
   1   9  10 690.591 66.7807  14
   1   9  11 3812.47 123.214  14
   1  10  -3 1639.01 89.6995   8
   1  10  -2 2051.23 116.222   8
   1  10  -1 971.108 91.9865   8
   1  10   0 2729.85 131.881   6
   1  10   0 3173.08 165.662   8
   1  10   1 3611.07 159.860   6
   1  10   1 3893.89 190.577   8
   1  10   2 39.9418 38.1421   8
   1  10   2 51.9139 35.5688   6
   1  10   3 3836.62 174.375   6
   1  10   3 4116.21 200.737   8
   1  10   4 9557.86 273.940   6
   1  10   4 10119.0 315.164   8
   1  10   5 4347.11 186.687   6
   1  10   5 4512.14 210.773   8
   1  10   6 194.844 49.2974   8
   1  10   7 8774.85 274.896   8
   1  10   8 4722.42 175.258  14
   1  10   9 728.653 63.8604  14
   1  10  10 432.970 42.4621  14
   1  11  -1 796.000 54.6340   8
   1  11   0 759.185 63.5985   8
   1  11   1 28.2594 25.2770   8
   1  11   2 1190.49 88.5775   8
   1  11   3 1009.40 85.5370   8
   1  11   4 54.6761 31.5220   8
   1  11   5 428.003 58.1236   8
   1  11   6 4241.88 159.419   8
   1  11   7 284.827 39.2609  14
   1  11   8 97.6133 23.0332  14
   2 -10  -7 2282.86 81.9078  10
   2 -10  -6 1178.17 70.3125  10
   2 -10  -5 69.3695 23.5950  10
   2 -10  -4 2935.42 124.065  10
  -2  10   4 2618.21 110.282   8
   2 -10  -3 1552.60 94.7628  10
  -2  10   3 1472.42 89.1337   8
   2 -10  -2 1335.55 89.1152  10
  -2  10   2 1219.49 82.0807   8
  -2  10   1 9.54823 19.9716   8
   2 -10  -1-10.6573 22.3848  10
   2 -10   0 51.5719 23.9711  10
  -2  10   0 63.8399 24.0484   8
  -2  10  -1-16.8476 19.6451   8
   2 -10   1 17.7501 19.2409  10
   2 -10   2-9.06969 17.6607  10
   2  -9  -8 2096.68 101.793  10
   2  -9  -7 75.2570 31.3030  10
  -2   9   6 6259.96 192.698   8
   2  -9  -6 6623.15 215.888  10
   2  -9  -5 10472.1 284.427  10
  -2   9   5 9900.49 262.292   8
   2  -9  -4 676.733 82.3133  10
  -2   9   4 650.288 77.3878   8
  -2   9   3 10572.8 291.785   8
   2  -9  -3 10600.5 304.218  10
   2  -9  -2 2094.80 142.124  10
  -2   9   2 2227.37 138.151   8
   2  -9  -1 2788.47 161.559  10
  -2   9   1 2968.50 159.053   8
  -2   9   0-11.6992 32.4118   8
  -2   9  -1 1625.33 116.936   8
  -2   9  -2 2666.36 142.625   8
  -2   9  -3 152.182 39.0383   8
  -2   9  -4 2862.82 120.787   8
   2  -8 -10 2687.67 102.329  15
   2  -8  -9 2250.02 115.263  10
   2  -8  -9 2180.29 111.735  15
   2  -8  -8 260.862 49.7675  10
   2  -8  -7 9076.28 276.869  10
   2  -8  -6 14522.4 365.094  10
  -2   8   6 14235.6 339.892   8
   2  -8  -5 1127.56 109.724  10
  -2   8   5 1218.61 108.558   8
  -2   8   4 10753.2 313.845   8
   2  -8  -4 10882.2 333.006  10
  -2   8   3 2150.14 145.799   8
   2  -8  -3 2256.67 156.875  10
   2  -8  -2 896.499 103.110  10
  -2   8   2 1016.49 104.421   8
  -2   8   1 5645.61 238.674   8
   2  -8   0 13023.8 333.282  13
  -2   8   0 13104.4 362.512   8
  -2   8  -1 2053.10 149.029   8
   2  -8   1 2079.44 139.213  13
   2  -8   2 1538.40 114.559  13
   2  -8   3 7358.41 235.195  13
   2  -8   4 878.202 81.9350  13
   2  -8   5 220.142 39.7010  13
   2  -8   6 90.3137 21.7161  13
   2  -7 -11 744.147 58.1149  15
   2  -7 -10 55.3051 26.3923  15
   2  -7  -9 3988.74 176.577  10
   2  -7  -8 9252.63 287.823  10
   2  -7  -7 2463.69 157.303  10
   2  -7  -6 3533.59 188.704  10
  -2   7   6 3294.78 173.519   8
  -2   7   5 20024.5 424.480   8
   2  -7  -5 19886.2 450.964  10
  -2   7   4 59.0076 27.1574   8
   2  -7  -4 52.7684 38.5381  10
   2  -7  -3 1243.70 117.638  10
  -2   7   3 1125.28 106.610   8
  -2   7   2 5301.77 225.703   8
   2  -7  -2 5306.14 219.177  13
  -2   7   1 23755.3 479.218   8
   2  -7  -1 22998.6 448.965  13
  -2   7   1 22251.8 850.914   4
   2  -7   0 21037.1 436.757  13
   2  -7   1 80.3828 45.8234  13
   2  -7   1 58.1170 41.2311  12
   2  -7   2 16239.6 386.815  13
   2  -7   2 16185.4 397.402  12
   2  -7   3 2762.22 166.540  13
   2  -7   3 2670.78 169.339  12
   2  -7   4 854.472 96.3262  12
   2  -7   4 724.073 86.6142  13
   2  -7   5 5258.56 209.212  13
   2  -7   5 5266.18 221.257  12
   2  -7   6 1164.39 97.7453  12
   2  -7   6 1082.55 88.3685  13
   2  -7   7 356.096 47.8648  13
   2  -7   7 402.554 53.8206  12
   2  -7   8 318.512 36.7902  12
  -2   6  12 369.477 43.9020  13
   2  -6 -12 394.475 43.5974  15
   2  -6 -11 2485.36 123.251  15
   2  -6 -10 6881.26 231.571  15
   2  -6  -9 5428.55 219.732  10
   2  -6  -8 224.712 54.7388  10
   2  -6  -7 8594.85 293.980  10
   2  -6  -6 28181.0 525.931  10
  -2   6   5 219.853 47.6149   8
   2  -6  -5 198.320 49.1934  10
   2  -6  -5 251.633 99.4529   1
   2  -6  -4 718.592 87.7843  10
   2  -6  -4 695.403 149.104   1
  -2   6   4 759.685 79.0414   8
  -2   6   3 23876.1 432.001   8
   2  -6  -3 23697.4 841.567   1
   2  -6  -2 9959.82 276.829  13
   2  -6  -2 9522.98 519.853   1
  -2   6   2 10293.5 285.886   8
  -2   6   2 10146.2 516.470   4
  -2   6   1 5469.61 405.593   4
   2  -6  -1 5231.64 373.973   1
   2  -6  -1 5358.54 206.758  13
  -2   6   0 13712.4 670.382   4
   2  -6   0 13636.0 333.458  13
   2  -6   0 12866.8 325.192  12
   2  -6   1 2043.53 139.150  12
  -2   6  -1 2176.03 275.662   4
   2  -6   1 2345.32 143.005  13
   2  -6   2 8525.33 276.260  12
  -2   6  -2 8248.18 563.054   4
   2  -6   2 8598.65 272.956  13
   2  -6   3 2138.66 142.717  13
   2  -6   3 2256.90 148.595  12
   2  -6   4 2959.56 172.412  12
   2  -6   4 2727.74 167.671  13
   2  -6   5 1674.92 133.716  12
   2  -6   5 1767.35 137.524  13
   2  -6   6-23.0696 33.2643  13
   2  -6   6 24.5645 37.9038  12
   2  -6   7 1289.40 110.483  12
   2  -6   7 1319.79 105.019  13
   2  -6   8 1481.32 99.4310  12
   2  -6   8 1399.44 93.9131  13
   2  -6   9 167.291 28.7659  13
   2  -6   9 122.368 28.4488  12
   2  -5 -13 4015.94 113.036  15
  -2   5  13 3931.60 108.500  13
  -2   5  12 3467.28 136.619  13
   2  -5 -12 3258.14 134.431  15
   2  -5 -11 9193.86 262.455  15
   2  -5 -10 7609.91 259.898  15
   2  -5  -9 699.835 86.9583  10
   2  -5  -8 6179.51 247.633  10
   2  -5  -7 7573.18 563.086   1
   2  -5  -7 7949.56 273.763  10
   2  -5  -6 11300.7 655.086   1
   2  -5  -6 11640.6 321.305  10
   2  -5  -5 7094.70 493.030   1
   2  -5  -5 7381.77 247.951  10
   2  -5  -4 34288.0 1019.61   1
   2  -5  -3 5038.44 372.058   1
  -2   5   2 14801.7 559.829   4
   2  -5  -2 15410.3 624.630   1
   2  -5  -1 66577.6 1273.13   1
  -2   5   1 65845.5 1267.47   4
  -2   5   0 12821.4 592.054   4
   2  -5   0 12460.1 553.815   1
   2  -5   1 30496.5 862.007   1
  -2   5  -1 28897.1 934.347   4
   2  -5   2 33626.0 492.386  12
  -2   5  -2 33648.5 1051.86   4
   2  -5   2 32620.8 485.029  13
   2  -5   3 4514.90 190.241  13
   2  -5   3 4937.09 198.911  12
  -2   5  -3 4566.59 410.796   4
  -2   5  -4 3194.83 347.644   4
   2  -5   4 3380.05 172.356  13
   2  -5   4 3525.37 177.383  12
   2  -5   5 10712.9 316.437  13
   2  -5   6 1535.15 126.716  13
   2  -5   7 79.6081 42.2875  13
   2  -5   8 1007.65 94.9354  13
   2  -5   8 1025.74 96.9236  12
   2  -5   9 3072.57 141.898  13
   2  -5   9 3031.51 141.015  12
   2  -5  10 33.0688 22.2240  13
   2  -5  10 6.23333 21.8878  12
  -2   4  13 2296.10 92.5948  13
   2  -4 -13 2378.10 102.437  15
  -2   4  12 917.343 77.5071  13
   2  -4 -12 906.406 80.9881  15
   2  -4 -11 601.807 79.7324  15
   2  -4 -10 3336.10 183.095  15
   2  -4  -9 1411.26 122.826  10
   2  -4  -9 1155.12 115.782  15
   2  -4  -8 728.772 178.308   1
   2  -4  -8 1072.72 104.092  10
   2  -4  -7 50564.5 1429.54   1
   2  -4  -7 51113.5 665.059  10
   2  -4  -6 34328.4 1112.12   1
   2  -4  -6 36065.1 532.050  10
   2  -4  -5 63172.7 1405.77   1
   2  -4  -4 374.918 104.752   1
   2  -4  -3 58132.7 1175.76   1
  -2   4   2 40640.4 813.544   4
   2  -4  -2 40218.9 938.598   1
   2  -4  -1 3014.41 251.842   1
  -2   4   1 3213.49 248.899   4
   2  -4   0 88167.8 1346.52   1
  -2   4   0 88871.5 1379.82   4
   2  -4   1 27742.1 765.302   1
  -2   4  -1 28045.1 819.754   4
  -2   4  -2 8474.40 481.820   4
   2  -4   2 9176.51 461.645   1
  -2   4  -2 8250.83 348.328   2
  -2   4  -2 8530.59 370.967   5
  -2   4  -3 6967.57 460.685   4
  -2   4  -3 6753.05 375.018   5
  -2   4  -4 20656.2 825.396   4
  -2   4  -4 21822.5 746.053   5
   2  -4   4 20879.3 385.641  13
  -2   4  -5 8337.10 535.526   4
  -2   4  -5 7368.50 471.019   5
   2  -4   5 7778.63 251.969  13
  -2   4  -6 531.341 143.670   4
  -2   4  -6 616.309 149.399   5
   2  -4   6 530.375 76.5572  13
   2  -4   7 3858.94 195.385  13
   2  -4   8 8750.19 285.645  13
   2  -4   9 52.2330 36.2245  13
   2  -4  10 2030.50 114.926  13
   2  -4  11 2302.88 96.9234  13
   2  -4  11 2474.91 96.5392  12
  -2   3  13 171.108 30.9204  13
   2  -3 -13 139.816 32.8264  15
  -2   3  12 1642.38 104.510  13
   2  -3 -12 1598.66 111.826  15
   2  -3 -11 7727.53 262.499  15
   2  -3 -10 12712.5 352.125  15
   2  -3  -9 343.154 68.4355  15
   2  -3  -8 43245.7 1322.02   1
   2  -3  -8 43435.9 623.637  10
   2  -3  -8 45922.6 1187.17   3
   2  -3  -7 28435.5 472.320  10
   2  -3  -7 27332.0 1009.84   1
   2  -3  -6 19414.9 793.069   1
   2  -3  -5 30840.7 928.894   1
   2  -3  -4 98158.7 1531.97   1
   2  -3  -3 4195.29 300.110   1
  -2   3   3 3959.96 185.771   4
  -2   3   2 101100. 1075.25   4
   2  -3  -2 101516. 1368.36   1
   2  -3  -1 221735. 1951.36   1
  -2   3   1 222303. 1755.40   4
  -2   3   0 6485.97 330.479   4
   2  -3   0 6213.64 338.024   1
   2  -3   1 9598.17 412.957   1
   2  -3   2 34133.7 822.407   1
  -2   3  -2 35982.5 697.640   2
  -2   3  -3 15064.5 479.027   2
  -2   3  -4 414.523 97.4037   2
  -2   3  -5 5060.72 394.136   4
   2  -3   6 16249.0 364.220  13
  -2   3  -6 17455.9 741.609   4
   2  -3   7 20183.2 429.321  13
  -2   3  -7 18502.2 768.976   4
   2  -3   8 309.309 62.3998  13
   2  -3   9 9085.77 290.921  13
   2  -3  10 3529.20 168.498  13
   2  -3  11 216.455 43.3773  13
   2  -3  12 370.920 36.3127  12
   2  -3  12 380.077 39.0213  13
   2  -2 -13 4537.01 160.483  15
  -2   2  13 4708.20 133.861  13
  -2   2  12 7086.88 212.803  13
   2  -2 -12 6973.68 232.191  15
  -2   2  11 2547.14 150.609  13
   2  -2 -11 2457.50 152.830  15
   2  -2 -10 1673.61 132.571  15
   2  -2  -9 24883.6 487.335  15
   2  -2  -8 5007.44 435.588   1
   2  -2  -8 5362.86 219.103  15
   2  -2  -8 5394.84 396.187   3
   2  -2  -7 378.239 118.134   3
   2  -2  -7 353.365 58.5442  10
   2  -2  -7 298.589 111.370   1
   2  -2  -6 75967.6 1489.14   1
   2  -2  -5 151517. 1924.04   1
   2  -2  -4 5998.25 351.737   1
   2  -2  -3 101364. 1335.89   1
  -2   2   2 141147. 1032.28   4
   2  -2  -2 141435. 1481.54   1
   2  -2  -1 133.631 62.8768   1
   2  -2   0 17346.3 491.545   1
   2  -2   1 44368.2 806.262   1
   2  -2   2 43501.2 849.660   1
  -2   2  -2 45506.4 744.238   2
  -2   2  -3 1257.91 141.326   2
  -2   2  -4 5158.18 304.429   2
  -2   2  -5 10254.5 456.269   2
  -2   2  -6 3873.90 291.949   2
   2  -2   7 8592.93 265.657  13
  -2   2  -7 8301.79 495.440   4
   2  -2   8 4710.04 209.577  13
   2  -2   9 29.9224 38.0967  13
   2  -2  10 3003.58 165.069  13
   2  -2  11 1089.73 93.6362  13
   2  -2  12 113.669 32.5578  13
  -2   1  13 709.655 49.1178  13
   2  -1 -13 826.455 62.2846   6
  -2   1  12 658.534 64.9945  13
   2  -1 -12 611.811 80.5840  15
  -2   1  11 262.037 55.2233  13
   2  -1 -11 344.689 69.3802  15
  -2   1  10 9848.73 295.572  13
   2  -1 -10 10169.4 319.761  15
   2  -1  -9 148.002 52.8964  15
   2  -1  -8 271.134 110.785   3
   2  -1  -8 395.324 121.776   1
   2  -1  -8 189.384 45.6405  15
   2  -1  -7 18107.6 688.568   3
   2  -1  -7 16735.3 711.580   1
   2  -1  -6 2936.56 270.360   3
   2  -1  -6 2820.21 272.069   1
   2  -1  -5 18453.4 631.706   1
   2  -1  -5 19035.2 629.487   3
   2  -1  -4 86280.8 1244.46   1
   2  -1  -3 16455.1 492.473   1
   2  -1  -2 100672. 1119.84   1
   2  -1  -1 98573.4 1044.74   1
   2  -1   0 97704.0 1027.80   1
   2  -1   1 3153.86 195.714   1
  -2   1  -2 14786.5 404.524   2
   2  -1   2 14000.8 443.035   1
  -2   1  -3 22624.5 553.218   2
  -2   1  -4 283.729 80.9603   2
  -2   1  -5 92.6942 68.3378   2
  -2   1  -6 68114.4 1241.94   2
  -2   1  -7 31333.9 880.926   2
   2  -1   8 748.087 86.7548  14
   2  -1   8 978.171 95.4601  13
   2  -1   9 11453.4 329.141  13
   2  -1  10 4742.72 209.207  13
   2  -1  11 62.1508 41.0285  13
   2  -1  12 54.4354 30.6596  13
   2  -1  13 1644.85 81.9061  13
   2   0 -13 686.299 53.7599   6
  -2   0  12 2164.46 106.320  13
   2   0 -12 2445.67 126.347   6
  -2   0  11 2667.94 140.296  13
   2   0 -11 2503.74 163.340  15
  -2   0  10 4479.80 191.358  13
   2   0 -10 4185.92 209.080  15
  -2   0   9 11227.0 303.449  13
   2   0  -9 10476.2 319.288  15
   2   0  -8 19080.4 401.201  15
   2   0  -7 6388.66 409.901   1
   2   0  -7 6818.92 418.065   3
   2   0  -7 6287.55 379.411   5
   2   0  -6 190660. 2065.80   1
   2   0  -6 191840. 1903.95   5
   2   0  -6 193266. 2125.82   3
   2   0  -5 122568. 1586.16   3
   2   0  -5 125325. 1381.29   5
   2   0  -5 125318. 1517.78   1
   2   0  -4 325.677 68.3961   5
   2   0  -4 174.438 58.2570   1
   2   0  -3 80879.1 980.405   1
   2   0  -3 78248.6 1073.99   3
   2   0  -2 75077.8 859.634   1
   2   0  -1 117846. 1006.94   1
   2   0   0 1559.68 118.641   1
   2   0   1 1169.28 108.606   1
   2   0   2 10546.6 177.165   3
  -2   0  -2 11160.1 340.088   2
  -2   0  -3 17468.9 471.618   2
  -2   0  -4 22895.4 620.698   2
  -2   0  -5 125990. 1591.70   2
  -2   0  -6 17020.3 629.057   2
  -2   0  -7 26130.2 827.116   2
   2   0   8 20302.7 393.903  13
  -2   0  -8 19735.2 754.914   2
   2   0   8 19561.3 390.569  14
   2   0   9 64.9362 42.5329  13
   2   0   9 111.687 44.5590  14
   2   0  10 9528.64 291.987  13
   2   0  10 8890.00 279.145  14
   2   0  11 1394.68 114.174  13
   2   0  12 10113.6 265.546  13
   2   0  13 126.812 32.8364  13
   2   1 -13 535.012 41.8586   6
   2   1 -12 75.7364 32.6157   6
   2   1 -11 8596.45 263.128   6
  -2  -1  11 8495.14 224.054  13
  -2  -1  10 3044.34 150.363  13
   2   1 -10 2990.74 182.730  15
  -2  -1   9 3409.24 164.095  13
   2   1  -9 3322.54 185.000  15
  -2  -1   8 7099.29 229.380  13
   2   1  -8 6499.61 449.708   5
   2   1  -8 7070.71 252.198  15
   2   1  -7 33715.5 924.029   3
   2   1  -7 35318.8 989.188   5
   2   1  -7 34198.4 499.448  15
   2   1  -6 26353.9 781.320   3
   2   1  -6 25907.9 783.106   5
   2   1  -5 2832.96 246.656   3
   2   1  -5 2664.99 232.262   5
   2   1  -5 2852.36 208.002   1
   2   1  -4 82626.1 1213.27   3
   2   1  -4 80065.1 1130.13   5
   2   1  -4 80582.7 975.895   1
   2   1  -3 20711.7 433.320   1
   2   1  -3 20157.7 550.061   3
   2   1  -3 20496.1 513.766   5
   2   1  -3 19143.2 327.093   4
   2   1  -2 99578.0 1124.26   3
   2   1  -2 101257. 832.215   1
   2   1  -2 97682.3 797.642   4
   2   1  -1 999999. 2401.85   1
   2   1  -1 985536. 2668.45   4
   2   1   0 878821. 2639.75   3
   2   1   0 866042. 2665.58   4
  -2  -1  -1 74114.3 766.216   2
   2   1   1 75756.3 661.601   3
  -2  -1  -2 33491.7 577.240   2
  -2  -1  -3 3156.71 206.656   2
  -2  -1  -4 80989.8 1170.07   2
  -2  -1  -5 105.070 86.4979   2
  -2  -1  -6 38107.1 935.730   2
  -2  -1  -7 64141.2 1324.40   2
   2   1   8 1483.39 104.957  14
   2   1   8 1359.38 102.345  13
  -2  -1  -8 1194.95 200.983   2
   2   1   9 9264.70 275.551  13
  -2  -1  -9 8755.50 537.180   2
   2   1   9 8851.93 272.820  14
  -2  -1  -9 8700.97 276.877  15
   2   1  10 7444.98 254.149  13
   2   1  10 7286.46 255.074  14
   2   1  11 9426.92 277.065  14
   2   1  11 9908.40 289.751  13
   2   1  12 183.005 50.3061  13
   2   1  13 2969.19 128.897  13
   2   1  14 746.075 48.8329  13
   2   2 -12 4914.19 150.110   6
   2   2 -11 3666.09 162.130   6
   2   2 -10 3390.08 172.420   6
  -2  -2   9 6254.38 210.288  13
   2   2  -9 6560.27 269.059  15
   2   2  -8 21722.8 864.439   5
   2   2  -8 22341.2 469.279  15
   2   2  -7-87.0321 63.7718   3
   2   2  -7-13.4315 41.3842   5
   2   2  -6 33624.6 928.574   3
   2   2  -6 35027.9 993.425   5
   2   2  -5 49290.5 1065.54   3
   2   2  -5 51266.3 1112.04   5
   2   2  -4 2363.53 220.577   3
   2   2  -4 2360.72 224.610   5
   2   2  -3 145.340 29.1864   1
   2   2  -3 86.1838 35.1574   4
   2   2  -3-2.57243 35.2739   3
   2   2  -3 109.175 55.8541   5
   2   2  -2 96.8345 51.7745   3
   2   2  -2 156.855 47.5550   4
   2   2  -1 79129.6 981.631   3
   2   2  -1 79279.6 878.457   4
   2   2   0 329983. 1824.88   3
  -2  -2   0 328119. 1381.24   2
   2   2   0 329008. 1807.79   4
  -2  -2  -1 96153.1 849.933   2
   2   2   2 29521.6 578.830   4
  -2  -2  -2 29146.0 547.921   2
  -2  -2  -3 83261.6 1065.31   2
   2   2   3 82584.9 1027.42   4
  -2  -2  -4 116828. 1377.66   2
  -2  -2  -5 362005. 2667.18   2
  -2  -2  -6 75620.0 1344.45   2
  -2  -2  -7 13794.4 618.421   2
  -2  -2  -8 46177.8 1200.82   2
   2   2   9 2699.65 147.150  13
  -2  -2  -9 2635.81 307.801   2
  -2  -2  -9 2658.21 142.427  15
   2   2   9 3091.43 158.261  14
   2   2  10 4036.59 190.283  14
  -2  -2 -10 4149.78 190.588  15
   2   2  10 4220.69 189.513  13
   2   2  11 11190.5 306.409  13
   2   2  11 11194.0 306.243  14
   2   2  12 9214.82 263.181  13
   2   2  12 8676.88 245.805  14
   2   2  13 1870.92 105.281  13
   2   2  14 1095.43 61.9592  13
   2   3 -12 22.0236 15.5921   6
   2   3 -11 203.765 42.0156   6
   2   3 -10 3726.93 171.250   6
   2   3  -9 744.438 88.3974   6
   2   3  -8 5997.30 236.376   6
   2   3  -7 14610.7 359.108   6
   2   3  -7 14647.8 726.687   5
   2   3  -6 17310.2 360.444   6
   2   3  -6 16577.8 742.046   5
   2   3  -6 15885.0 352.919  15
   2   3  -5 256.606 92.8979   5
   2   3  -4 3268.02 283.966   3
   2   3  -4 3130.90 282.247   5
   2   3  -4 2997.49 218.088   4
   2   3  -3 23211.1 701.008   3
   2   3  -3 22418.4 581.714   4
   2   3  -2 142.444 65.8515   3
   2   3  -2 125.841 52.6277   4
   2   3  -1 21204.1 549.597   4
   2   3   0 40689.7 731.001   4
  -2  -3   0 38047.4 430.011   2
  -2  -3  -1 7261.88 236.500   2
   2   3   1 7218.00 314.642   4
  -2  -3  -2 45342.1 688.111   2
   2   3   2 45683.2 787.246   4
  -2  -3  -3 37795.8 710.477   2
   2   3   3 37379.7 736.265   4
   2   3   4 128377. 1449.78   4
  -2  -3  -4 134605. 1482.39   2
  -2  -3  -5 41727.2 919.381   2
  -2  -3  -6 7448.37 424.865   2
  -2  -3  -7 27233.3 874.090   2
   2   3   8 240.768 47.6000  14
  -2  -3  -8 76.3728 75.4623   2
   2   3   9 355.872 57.9017  13
  -2  -3  -9 317.572 118.099   2
   2   3   9 434.979 64.2088  14
   2   3  10 11322.7 302.718  13
   2   3  10 10804.7 309.193  14
   2   3  11 2559.69 146.953  13
   2   3  11 2574.00 151.196  14
   2   3  12 151.432 44.0477  13
   2   3  12 111.920 37.9215  14
   2   3  13 2090.43 110.289  13
   2   3  14 2148.73 85.8650  13
   2   4 -11 1620.35 81.5406   6
   2   4 -10 647.728 69.6531   6
   2   4  -9 1814.25 127.161   6
   2   4  -8 4669.07 210.371   6
   2   4  -7 767.666 90.1325   6
   2   4  -6 4612.93 200.246   6
   2   4  -6 4761.18 204.313  11
   2   4  -5 2599.04 149.947  11
   2   4  -5 2573.60 142.870   6
   2   4  -4 133.693 76.6220   4
   2   4  -3 890.811 143.778   4
   2   4  -2 23204.4 676.502   4
   2   4  -1 14198.0 516.773   4
   2   4   0 3462.67 252.808   4
  -2  -4  -1 5594.16 171.175   2
   2   4   1 5905.52 327.088   4
  -2  -4  -2 82665.9 878.851   2
   2   4   2 81170.7 1176.80   4
  -2  -4  -3 19966.8 515.350   2
   2   4   3 19805.9 593.357   4
  -2  -4  -4 46429.5 882.298   2
   2   4   4 48124.6 933.637   4
  -2  -4  -5 120942. 1580.22   2
   2   4   5 125356. 1548.55   4
  -2  -4  -6 21186.1 724.308   2
  -2  -4  -7 12370.3 597.939   2
  -2  -4  -8 7761.87 505.069   2
   2   4   8 7877.33 245.865  14
  -2  -4  -9 27773.3 1000.29   2
   2   4   9 28537.0 492.789  14
   2   4  10-6.55851 36.3382  13
   2   4  10-3.83655 36.0639  14
   2   4  11 13705.1 328.705  13
   2   4  11 14164.9 351.391  14
   2   4  12 17328.8 344.763  13
   2   4  12 17634.6 358.521  14
   2   4  13 1586.02 92.9596  13
   2   4  13 1384.90 83.5327  14
   2   4  14 201.266 27.7207  13
   2   5 -10 2879.06 113.825   6
   2   5  -9 304.862 54.3510   6
   2   5  -8 504.578 74.6224   6
   2   5  -7 7422.05 262.885   6
   2   5  -6 1755.38 133.341   6
   2   5  -5 1227.13 118.919  11
   2   5  -5 1491.70 117.632   6
   2   5  -4 4301.57 184.895   6
   2   5  -4 4666.30 210.390  11
   2   5  -4 4122.69 325.210   4
   2   5  -3 18188.0 692.174   4
   2   5  -2 16406.4 646.970   4
   2   5  -1 4175.44 319.392   4
   2   5   0 23216.2 736.536   4
   2   5   1 164847. 1927.04   4
   2   5   2 19398.7 653.216   4
  -2  -5  -3 42325.6 724.561   2
   2   5   3 42814.7 964.753   4
  -2  -5  -4 131789. 1494.75   2
   2   5   4 129490. 1709.74   4
  -2  -5  -5 2487.13 233.403   2
   2   5   5 2580.38 246.819   4
  -2  -5  -6 67588.2 1313.11   2
   2   5   6 73017.8 1281.77   4
  -2  -5  -7 28879.7 932.634   2
   2   5   7 30172.7 523.820   8
  -2  -5  -8 14381.4 697.238   2
   2   5   8 15168.3 358.512  14
   2   5   9 8928.06 283.886  14
   2   5  10 17733.9 402.623  14
   2   5  10 17136.1 358.688  13
   2   5  11 10456.0 274.844  13
   2   5  11 10570.1 303.069  14
   2   5  12 1948.69 112.414  13
   2   5  12 1972.08 120.290  14
   2   5  13 601.581 55.2603  13
   2   5  13 577.658 53.8783  14
  -2  -6   9 257.253 33.7063  12
   2   6  -9 239.211 37.9455   6
   2   6  -8 2515.35 135.007   6
   2   6  -7 288.300 59.4264   6
   2   6  -6 127.039 49.0915   6
   2   6  -5 4587.67 210.005   6
   2   6  -4 10247.5 307.672   6
   2   6  -3-52.3861 82.0971   4
   2   6  -3 356.339 63.8949   6
   2   6  -2 3216.46 319.950   4
   2   6  -2 3362.25 162.620   6
   2   6  -1 19001.8 760.313   4
   2   6   0 38054.8 1056.44   4
   2   6   1 269.506 109.349   4
   2   6   2 47954.1 1146.76   4
   2   6   3 24879.1 824.333   4
   2   6   4 6587.45 424.178   4
   2   6   5 83221.3 1511.47   4
   2   6   6 36084.3 548.763   6
  -2  -6  -6 35402.4 979.433   1
  -2  -6  -6 34258.8 939.355   2
   2   6   6 35593.0 571.134   8
   2   6   6 36123.8 982.232   4
  -2  -6  -7 34786.5 1018.22   2
   2   6   7 37421.3 618.902   8
   2   6   7 37513.8 585.462   6
  -2  -6  -7 34813.6 1057.96   1
  -2  -6  -8 2426.40 277.749   2
  -2  -6  -8 2189.04 276.242   1
   2   6   8 2646.31 160.729  14
   2   6   9 15721.3 390.723  14
   2   6  10 6143.78 244.751  14
   2   6  11 795.140 73.3052  13
   2   6  11 823.944 86.9229  14
   2   6  12 5708.94 169.661  13
   2   6  12 5577.89 194.597  14
   2   6  13 1385.25 67.0869  13
   2   6  13 1398.40 77.8529  14
   2   7  -8 352.115 41.9266   6
   2   7  -7 14.8836 27.2726   6
  -2  -7   7-45.6795 23.6214  12
  -2  -7   6 3749.28 149.087  12
   2   7  -6 4067.98 182.443   6
  -2  -7   5 3856.63 161.029  12
   2   7  -5 4406.51 200.952   6
   2   7  -4 627.475 84.6647   6
   2   7  -3 10063.8 310.630   6
   2   7  -2 2890.73 318.481   4
   2   7  -2 2781.37 164.783   6
   2   7  -1 1460.01 232.715   4
   2   7  -1 1636.40 124.376   6
   2   7   0 12014.1 319.013   6
   2   7   0 11956.8 311.379   8
   2   7   0 12336.7 666.412   4
   2   7   1 21332.7 420.574   6
   2   7   1 20477.7 405.817   8
   2   7   1 19779.9 825.038   4
   2   7   2 7775.44 255.082   6
   2   7   2 7033.97 483.451   4
   2   7   2 7219.45 245.064   8
   2   7   3 15024.6 358.260   6
   2   7   3 15051.6 705.306   4
   2   7   3 15258.4 360.331   8
   2   7   4 42947.3 611.583   6
   2   7   4 42182.9 1165.72   4
   2   7   4 42915.5 615.739   8
   2   7   5 4194.80 198.042   6
   2   7   5 4134.42 201.612   8
   2   7   5 4193.16 361.064   4
   2   7   6 502.581 75.2828   6
   2   7   6 647.090 89.6721   8
   2   7   7 9114.86 306.370   6
   2   7   7 9286.10 321.010   8
   2   7   8 296.266 64.5917  14
   2   7   8 257.997 61.7906   8
   2   7   9 3298.35 180.322  14
   2   7  10 5343.67 221.432  14
   2   7  11 7679.87 242.384  14
   2   7  12 3699.06 146.312  14
   2   7  13 1975.63 80.5336  14
   2   8  -6 12.5346 24.4597   6
   2   8  -5 657.342 75.1588   6
   2   8  -4 2783.95 142.413   8
   2   8  -4 3363.22 171.175   6
   2   8  -3 6113.63 239.133   6
   2   8  -3 5744.50 219.722   8
   2   8  -2 3178.20 177.616   6
   2   8  -2 3031.19 166.781   8
   2   8  -1 9363.53 304.143   6
   2   8  -1 8908.57 289.998   8
   2   8   0 19639.2 435.231   6
   2   8   0 19262.6 431.514   8
   2   8   1 73.6316 43.5840   8
   2   8   1 72.7543 47.1404   6
   2   8   2 22022.1 465.905   6
   2   8   2 22954.0 928.226   4
   2   8   2 22235.3 468.896   8
   2   8   3 17443.2 414.055   6
   2   8   3 17784.6 422.791   8
   2   8   3 16585.6 777.084   4
   2   8   4 3395.05 186.860   6
   2   8   4 3158.78 337.170   4
   2   8   4 3237.18 188.129   8
   2   8   5 3289.38 188.118   6
   2   8   5 3334.70 192.814   8
   2   8   6 15521.0 417.202   8
   2   8   6 15012.0 400.182   6
   2   8   7 160.506 54.7863   8
   2   8   7 136.285 51.8930   6
   2   8   8 3470.47 207.382   8
   2   8   8 3428.59 189.820  14
   2   8   9 8301.38 278.034  14
   2   8  10 5229.97 206.306  14
   2   8  11 253.052 45.5224  14
   2   8  12 46.1399 21.1666  14
   2   9  -5 345.871 40.2518   6
   2   9  -4 1027.55 82.3888   6
   2   9  -3 37.9540 33.6663   6
   2   9  -3 38.6528 27.2937   8
   2   9  -2 46.9161 33.2684   8
   2   9  -2 49.8266 37.3479   6
   2   9  -1 1716.74 128.786   6
   2   9  -1 1699.54 127.815   8
   2   9   0 3417.46 183.834   6
   2   9   0 3457.25 185.458   8
   2   9   1 9570.32 308.406   6
   2   9   1 9128.40 301.492   8
   2   9   2 4159.75 205.841   6
   2   9   2 4199.66 210.322   8
   2   9   3 2914.79 177.381   6
   2   9   3 2821.22 175.063   8
   2   9   4 4072.88 205.993   6
   2   9   4 4036.83 211.386   8
   2   9   5 13354.3 373.296   6
   2   9   5 13786.4 386.520   8
   2   9   6 232.870 59.6895   6
   2   9   6 239.946 62.8228   8
   2   9   7 6662.16 271.277   8
   2   9   8 6927.63 268.879   8
   2   9   8 6820.45 246.433  14
   2   9   9 2543.40 141.923  14
   2   9  10 226.093 43.9237  14
   2   9  11 2618.93 110.652  14
   2  10  -3 3226.92 108.847   6
   2  10  -2-5.15848 24.2683   6
   2  10  -2 2.29427 19.0763   8
   2  10  -1 6582.28 208.290   6
   2  10  -1 6425.25 202.365   8
   2  10   0 10951.3 282.698   6
   2  10   0 10637.0 281.605   8
   2  10   1 463.890 69.4844   6
   2  10   1 412.468 66.1835   8
   2  10   2 5603.36 220.942   6
   2  10   2 5726.24 226.153   8
   2  10   3 408.070 69.4448   6
   2  10   3 384.689 67.0605   8
   2  10   4 332.153 62.7281   6
   2  10   4 266.570 60.9547   8
   2  10   5 4421.52 196.178   6
   2  10   5 4296.39 202.795   8
   2  10   6 3717.20 176.501   6
   2  10   6 3664.08 187.750   8
   2  10   7 915.081 95.0938   8
   2  10   7 913.054 84.7846  14
   2  10   8 82.9093 35.8214  14
   2  10   9 1060.57 78.2934  14
   2  10  10 1515.02 79.3644  14
   2  11   0 287.657 36.3600   6
   2  11   0 289.410 37.4273   8
   2  11   1 5482.64 158.307   6
   2  11   1 5217.01 163.197   8
   2  11   2 1302.64 84.5962   6
   2  11   2 1315.24 89.5676   8
   2  11   3 518.588 57.7792   6
   2  11   3 506.277 59.7867   8
   2  11   4 5442.83 175.647   6
   2  11   4 5343.21 188.820   8
   2  11   5 4491.96 171.400   8
   2  11   5 3994.06 136.972  14
   2  11   6 913.590 78.0935   8
   2  11   6 970.872 69.2776  14
   2  11   7 36.7108 20.2954  14
   2  11   8 2355.15 91.6323  14
   3 -10  -4 47.4931 17.3383  10
   3 -10  -3 5.27542 14.9783  10
   3 -10  -2 169.758 26.4839  10
   3 -10  -1 4894.89 127.477  10
   3  -9  -7 3503.46 120.307  10
   3  -9  -6 973.388 72.8690  10
   3  -9  -5 665.987 66.1745  10
   3  -9  -4-40.3705 34.4392  10
   3  -9  -3-34.6583 34.5804  10
   3  -9  -2 7865.35 236.411  10
   3  -9  -1 1275.11 97.8017  10
  -3   9   1 1240.87 81.0984   8
   3  -9   0 3236.52 149.852  10
  -3   9   0 2891.86 125.205   8
   3  -9   1 2505.80 127.474  10
  -3   9  -1 2292.27 109.081   8
   3  -9   2 120.711 33.6953  10
  -3   9  -2 123.386 28.5676   8
   3  -9   3 1658.09 84.9250  10
   3  -8  -9 8301.41 181.623  15
   3  -8  -8 4151.88 152.080  10
   3  -8  -7 223.735 48.0331  10
   3  -8  -6 666.586 77.4263  10
   3  -8  -5 3540.50 176.803  10
   3  -8  -4 2779.56 162.992  10
   3  -8  -3 15006.5 379.444  10
   3  -8  -2 10905.6 327.411  10
  -3   8   2 10023.1 273.822   8
   3  -8  -1 16233.6 401.268  10
  -3   8   1 15407.6 347.231   8
  -3   8   0 6087.67 222.780   8
   3  -8   1 1196.17 101.820  13
  -3   8  -1 1173.80 102.136   8
  -3   8  -2 2843.59 150.572   8
   3  -8   2 3091.38 152.056  13
  -3   8  -3 424.901 60.9787   8
   3  -8   3 443.842 61.6310  13
   3  -8   4 321.149 48.9907  13
  -3   8  -4 301.124 49.0953   8
  -3   8  -5 910.306 68.6129   8
   3  -8   5 1006.27 66.0798  13
   3  -7 -10 14574.3 257.446  15
   3  -7  -9 5008.66 176.573  10
   3  -7  -9 4609.89 172.553  15
   3  -7  -8 253.268 49.5545  10
   3  -7  -7 1782.24 127.224  10
   3  -7  -6 10389.0 316.484  10
   3  -7  -5 10024.4 320.883  10
   3  -7  -4 20734.4 466.269  10
   3  -7  -3 12870.1 371.164  10
   3  -7  -2 4820.33 231.287  10
  -3   7   2 4759.63 200.855   8
   3  -7  -1 152.846 52.9206  13
  -3   7   1 125.965 45.6147   8
  -3   7   0 14477.0 364.466   8
   3  -7   0 15438.2 380.749  13
   3  -7   1 10951.9 323.210  13
   3  -7   2 82.0489 46.9964  13
   3  -7   3 1006.71 101.310  13
   3  -7   4 9495.03 280.003  12
   3  -7   4 9001.55 278.205  13
   3  -7   5 637.572 73.8092  12
   3  -7   5 608.791 72.6308  13
   3  -7   6 15.1027 27.6089  13
   3  -7   7 606.025 51.4966  13
   3  -6 -11 17446.8 277.139  15
   3  -6 -10 2191.51 120.926  15
   3  -6  -9 2151.18 132.232  10
   3  -6  -8 3366.07 177.537  10
   3  -6  -7 9186.10 299.439  10
   3  -6  -6 3801.56 197.921  10
   3  -6  -5 5618.77 241.788  10
   3  -6  -4 43442.7 673.022  10
   3  -6  -3 5184.50 234.061  10
   3  -6  -3 5236.91 205.882   9
   3  -6  -2 6549.59 220.298   9
   3  -6  -2 6256.50 238.110  13
   3  -6  -1 55636.4 610.040   9
   3  -6  -1 55741.9 1337.25   1
   3  -6  -1 54111.2 698.328  13
  -3   6   1 55019.9 667.155   8
  -3   6   0 32479.2 1031.51   4
   3  -6   0 35753.6 579.018  13
   3  -6   1 4814.15 222.337  13
   3  -6   2 128.988 50.1265  12
   3  -6   2 128.334 48.7421  13
   3  -6   3 6777.65 260.317  12
   3  -6   3 6760.76 262.783  13
   3  -6   4 133.734 52.5551  13
   3  -6   4 120.032 43.0883  12
   3  -6   5 512.346 79.4641  13
   3  -6   5 551.588 77.4932  12
   3  -6   6 3333.14 165.890  12
   3  -6   6 3242.05 170.711  13
   3  -6   7 352.381 55.0896  12
   3  -6   7 334.401 55.2150  13
   3  -6   8-12.2964 20.5986  13
   3  -6   8 53.8154 25.6327  12
  -3   5  12 8645.66 165.249  13
   3  -5 -12 9044.31 183.684  15
   3  -5 -11 270.744 46.5636  15
   3  -5 -10 80.1916 39.4337  15
   3  -5  -9 1299.82 110.555  10
   3  -5  -8 1524.49 125.445  10
   3  -5  -7 422.601 71.1450  10
   3  -5  -6 292.635 60.7059  10
   3  -5  -5 84762.0 898.554  10
   3  -5  -5 86228.6 1805.21   1
   3  -5  -4 107.442 44.3837  10
   3  -5  -4 112.229 44.7477   9
   3  -5  -3 32216.0 538.254  10
   3  -5  -3 31058.9 472.632   9
   3  -5  -3 30461.2 1002.13   1
   3  -5  -2 42355.4 570.372  13
   3  -5  -2 40995.6 1142.54   1
   3  -5  -2 41371.8 529.703   9
   3  -5  -1 206.624 56.4044  13
   3  -5  -1 212.959 90.0471   1
   3  -5  -1 110.745 43.8909   9
  -3   5   0 10639.0 560.659   4
   3  -5   0 9984.83 252.408   9
   3  -5   0 10725.7 571.907   1
   3  -5   0 10499.3 291.612  13
   3  -5   1 262.993 92.4517   1
   3  -5   1 198.705 49.9689  13
   3  -5   1 231.027 50.4227  12
  -3   5  -1 183.012 98.9512   4
   3  -5   2 37.0317 33.1694  13
   3  -5   2 93.1912 43.5504  12
  -3   5  -2 114.068 85.8971   4
  -3   5  -3 15044.1 758.998   4
   3  -5   3 15021.9 362.859  12
   3  -5   3 14611.7 367.341  13
   3  -5   4 7641.64 267.464  12
   3  -5   4 7261.78 272.586  13
   3  -5   5 8604.17 292.673  13
   3  -5   5 8405.99 285.930  12
   3  -5   6 544.256 83.5967  13
   3  -5   6 560.525 75.8665  12
   3  -5   7 139.014 45.0913  12
   3  -5   7 118.637 48.1998  13
   3  -5   8 4131.32 167.274  12
   3  -5   8 4274.03 178.740  13
   3  -5   9 46.4301 28.9344  13
   3  -5   9 25.3849 23.4824  12
   3  -5  10 15.5887 13.9055  13
  -3   4  12 3624.02 120.754  13
   3  -4 -12 3778.08 135.679  15
   3  -4 -11 9766.82 260.222  15
   3  -4 -10 48.7246 39.2660  15
   3  -4  -9 6166.79 248.241  15
   3  -4  -8 28037.3 515.984  10
   3  -4  -7 13995.2 365.291  10
   3  -4  -6 64451.4 1580.57   1
   3  -4  -6 63188.4 749.357  10
   3  -4  -5 5399.35 212.169  10
   3  -4  -5 5091.08 427.711   1
   3  -4  -4 26972.0 455.143  10
   3  -4  -4 25653.6 914.137   1
   3  -4  -4 26462.5 430.515   9
   3  -4  -3 21485.9 800.258   1
   3  -4  -2 2468.47 266.842   1
   3  -4  -1 50972.0 1183.03   1
  -3   4   1 51253.0 1047.02   4
  -3   4   0 26325.4 810.645   4
   3  -4   0 25681.0 849.883   1
  -3   4  -1 10222.4 539.772   4
   3  -4   1 10297.2 536.817   1
  -3   4  -2 23872.8 874.634   4
  -3   4  -2 24983.6 716.482   2
   3  -4   3 16621.6 359.404  13
  -3   4  -3 17430.4 778.519   4
   3  -4   3 16851.3 351.395  12
   3  -4   4 5045.98 208.722  13
  -3   4  -4 5143.54 440.985   4
   3  -4   4 4762.05 197.216  12
   3  -4   5 2852.31 165.025  13
   3  -4   5 2559.29 152.929  12
  -3   4  -5 2725.70 325.864   4
   3  -4   6 3216.27 173.485  12
   3  -4   6 3248.47 180.511  13
   3  -4   7 2146.92 148.576  13
   3  -4   7 1967.85 135.528  12
   3  -4   8 1664.32 128.762  13
   3  -4   8 1752.46 119.343  12
   3  -4   9 177.438 42.4765  12
   3  -4   9 313.817 55.9153  13
   3  -4  10 732.854 66.0885  13
   3  -4  10 660.205 56.5890  12
   3  -4  11 163.330 25.3123  13
  -3   3  12 3895.48 127.617  13
   3  -3 -12 3846.43 148.082  15
  -3   3  11 731.871 74.0534  13
   3  -3 -11 684.933 78.8514  15
   3  -3 -10 234.335 56.6938  15
   3  -3  -9 10013.0 314.626  15
   3  -3  -8 20480.5 441.762  10
   3  -3  -7 45617.3 1321.62   1
   3  -3  -7 44252.1 584.755  11
   3  -3  -7 45057.5 626.084  10
   3  -3  -7 46731.8 1283.26   3
   3  -3  -6 64052.4 1520.50   1
   3  -3  -6 64326.2 717.237  10
   3  -3  -5 64073.7 1435.76   1
   3  -3  -4 208.237 89.7424   1
   3  -3  -3 134069. 1881.51   1
  -3   3   2 104524. 1193.82   4
   3  -3  -2 107488. 1612.28   1
  -3   3   1 3143.00 235.264   4
   3  -3  -1 2981.81 273.427   1
   3  -3   0 3557.50 291.543   1
   3  -3   1 75904.3 1356.54   1
   3  -3   2 22331.8 768.097   1
  -3   3  -2 22564.6 665.382   2
  -3   3  -3 201.026 74.1896   2
  -3   3  -4 26943.3 788.203   2
   3  -3   5 21422.1 414.873  13
  -3   3  -6 11767.1 662.613   4
   3  -3   6 11745.7 324.120  13
   3  -3   7 1638.92 129.985  13
   3  -3   8 1716.41 131.703  13
   3  -3   9 5810.04 224.898  13
   3  -3  10 238.850 52.7914  13
   3  -3  10 234.188 42.1623  12
   3  -3  11 1900.96 99.1632  13
   3  -3  11 1676.21 77.5174  12
  -3   2  12 128.036 27.2093  13
   3  -2 -12 175.631 41.0451  15
  -3   2  11 1128.48 87.2609  13
   3  -2 -11 1217.04 101.746  15
   3  -2 -10 8543.38 279.556  15
   3  -2  -9 1251.21 115.687  15
   3  -2  -8 3435.00 353.264   1
   3  -2  -8 3766.76 356.064   3
   3  -2  -8 3870.17 193.030  15
   3  -2  -7 76651.9 781.708  10
   3  -2  -7 78779.2 1632.23   3
   3  -2  -7 72969.5 1608.20   1
   3  -2  -7 73705.5 730.681  11
   3  -2  -6 29912.8 983.000   1
   3  -2  -6 30316.6 977.955   3
   3  -2  -6 28635.5 458.575  10
   3  -2  -5 94.4651 70.1833   1
   3  -2  -4 59329.9 1219.64   1
   3  -2  -3 92948.6 1436.74   1
   3  -2  -2 8723.69 425.322   1
   3  -2  -1 173.727 70.5580   1
   3  -2   0 116427. 1534.66   1
   3  -2   1 24086.0 707.387   1
   3  -2   2 20783.9 684.498   1
  -3   2  -2 20929.9 612.242   2
  -3   2  -3 6401.16 353.545   2
  -3   2  -4 10305.0 480.484   2
  -3   2  -5 6427.24 406.642   2
  -3   2  -6 20331.2 745.022   2
   3  -2   6 21367.7 410.844  13
   3  -2   7 8036.43 266.505  13
   3  -2   8 3629.02 186.425  13
   3  -2   9 2944.68 167.733  13
   3  -2  10 7264.45 242.732  13
   3  -2  11 3105.88 141.191  13
   3  -2  12 106.597 28.5237  13
   3  -1 -12 1779.03 97.3813   6
   3  -1 -12 1632.62 105.167  15
  -3   1  11 3073.83 134.153  13
   3  -1 -11 3277.33 167.979  15
  -3   1  10 10.9630 29.9421  13
   3  -1 -10-1.53324 32.1032  15
   3  -1  -9 71.5776 41.6554  15
   3  -1  -8 42905.5 1196.42   3
   3  -1  -8 44863.5 640.086  15
   3  -1  -7 36.5175 46.2545   1
   3  -1  -7 78.8976 34.6387  11
   3  -1  -7-47.7381 76.5582   3
   3  -1  -7 162.674 47.7633  15
   3  -1  -6 22292.6 796.682   1
   3  -1  -6 23860.7 848.437   3
   3  -1  -5 43238.2 1037.75   1
   3  -1  -5 42041.4 1070.09   3
   3  -1  -4 5329.66 338.599   1
   3  -1  -4 5252.71 354.858   3
   3  -1  -3 13567.7 508.275   1
   3  -1  -2 7539.72 364.023   1
   3  -1  -1 76024.8 1120.34   1
   3  -1   0 2883.43 220.704   1
   3  -1   1 21930.1 620.267   1
   3  -1   2 16578.5 566.180   1
  -3   1  -2 17310.1 531.764   2
  -3   1  -3 11914.5 466.169   2
  -3   1  -4 17667.9 611.069   2
  -3   1  -5 37225.3 965.749   2
  -3   1  -6 9362.37 522.954   2
  -3   1  -7 20976.0 783.650   2
   3  -1   7 21857.9 417.156  13
   3  -1   7 21699.9 442.061  14
   3  -1   8 2048.38 138.004  13
   3  -1   9 6937.46 250.959  13
   3  -1  10 3956.65 186.400  13
   3  -1  11 758.661 79.3264  13
   3  -1  12 11608.8 243.439  13
   3  -1  13 466.040 38.9277  13
   3  -1  13 333.784 38.8612   7
   3   0 -12 1621.46 92.0074   6
   3   0 -11 421.669 68.4613  15
   3   0 -10 836.021 93.9334  15
  -3   0   9 27084.1 441.042  13
   3   0  -9 26872.5 502.194  15
   3   0  -8 3515.66 338.767   3
   3   0  -8 3733.95 184.243  15
   3   0  -7 25512.8 424.789  11
   3   0  -7 25880.4 448.401  15
   3   0  -6 26173.4 776.883   1
   3   0  -6 28085.4 912.384   3
   3   0  -5 730.689 120.396   1
   3   0  -5 532.330 125.960   3
   3   0  -4 37669.1 813.249   1
   3   0  -4 38579.9 948.204   3
   3   0  -3 9908.47 392.670   1
   3   0  -3 9953.83 454.125   3
   3   0  -2 6626.35 341.112   3
   3   0  -2 6540.76 305.470   1
   3   0  -1 57862.2 926.093   3
   3   0  -1 58820.1 885.994   1
   3   0   0 29438.4 629.542   1
   3   0   0 28993.4 596.338   3
   3   0   1 36543.6 591.656   3
   3   0   1 36096.5 720.332   1
   3   0   2 670.021 67.2459   3
  -3   0  -2 406.796 91.5433   2
  -3   0  -3 34247.0 768.556   2
  -3   0  -4 127930. 1601.98   2
  -3   0  -5 550.497 129.997   2
  -3   0  -6 3407.30 317.161   2
  -3   0  -7 22719.2 826.207   2
   3   0   7 21420.2 386.060  13
   3   0   7 22971.6 430.176  14
   3   0   8 369.025 61.2063  13
  -3   0  -8 357.902 121.042   2
   3   0   8 281.005 60.0640  14
   3   0   9 15020.9 357.289  13
   3   0   9 14355.4 375.620  14
   3   0  10 24224.8 452.840  13
   3   0  11 12723.9 311.423  13
   3   0  12 2440.99 123.268  13
   3   0  13 24.0632 19.8947  13
   3   1 -12 1826.25 90.3584   6
   3   1 -11 263.378 50.2054   6
   3   1 -10 6732.84 238.214   6
   3   1 -10 6243.48 242.732  15
   3   1  -9 13380.0 354.713  15
   3   1  -8 12000.0 322.498  15
   3   1  -7 1088.19 94.1730  11
   3   1  -7 1164.26 198.689   3
   3   1  -7 965.525 88.6564  15
   3   1  -6 13338.6 629.045   3
   3   1  -5 36647.3 997.117   3
   3   1  -4 13917.5 437.031   1
   3   1  -4 14332.9 582.892   3
   3   1  -3 19980.1 638.578   3
   3   1  -3 19992.7 487.439   1
   3   1  -2 90367.2 986.875   1
   3   1  -2 90955.2 1275.62   3
   3   1  -1 92643.1 976.785   1
   3   1  -1 89411.1 1156.06   3
   3   1   0 44308.1 734.004   3
   3   1   0 44179.8 690.016   1
   3   1   1 55380.5 732.656   3
   3   1   1 57668.5 845.615   1
   3   1   2 38202.1 507.188   3
  -3  -1  -2 38179.7 730.282   2
  -3  -1  -3 53283.9 946.056   2
  -3  -1  -4 20413.3 642.809   2
  -3  -1  -5 9313.13 482.800   2
  -3  -1  -6 57699.2 1258.36   2
  -3  -1  -7 17109.3 725.502   2
  -3  -1  -8 12034.9 635.088   2
   3   1   8 11667.3 318.270  14
   3   1   8 11641.7 290.167  13
   3   1   9 47615.3 620.745  13
  -3  -1  -9 47103.1 1271.06   2
   3   1   9 48136.9 672.635  14
   3   1  10 23199.5 438.652  13
   3   1  10 22886.1 471.328  14
   3   1  11 17643.9 367.325  13
   3   1  11 17378.4 390.933  14
   3   1  12 2366.47 123.773  13
   3   1  13 246.964 37.3852  13
   3   2 -12 99.4532 23.9725   6
   3   2 -11 41.8290 28.2714   6
   3   2 -10 10790.6 292.853   6
   3   2  -9 2117.42 145.109   6
   3   2  -9 1775.75 134.589  15
   3   2  -8 160.132 48.9446  15
   3   2  -7 5792.74 217.809  11
   3   2  -7 5840.47 441.569   3
   3   2  -7 5813.88 216.854  15
   3   2  -6 19049.3 377.588  11
   3   2  -6 18889.0 773.008   3
   3   2  -5 4288.49 355.082   3
   3   2  -4 467.305 123.772   3
   3   2  -3 88126.5 1384.56   3
   3   2  -2 20083.7 623.117   3
   3   2  -2 19440.4 491.210   4
   3   2  -1 3735.21 252.238   3
   3   2  -1 4096.35 168.155   1
   3   2  -1 3989.83 236.132   4
   3   2   0 112061. 1237.23   3
   3   2   0 111526. 1257.03   4
   3   2   1 87581.9 1002.58   3
  -3  -2  -1 87144.3 1001.23   2
   3   2   1 85983.2 1136.54   4
  -3  -2  -2 32904.5 665.084   2
  -3  -2  -3 44651.1 857.268   2
  -3  -2  -4 53878.2 1047.03   2
  -3  -2  -5 73182.6 1327.42   2
  -3  -2  -6 3436.03 311.935   2
  -3  -2  -7 48743.8 1225.81   2
  -3  -2  -8 42971.4 1206.90   2
   3   2   8 42380.0 586.289  14
   3   2   8 40967.0 517.378  13
   3   2   9 4788.00 190.889  13
  -3  -2  -9 5121.89 435.134   2
   3   2   9 4721.67 211.445  14
   3   2  10 34780.5 520.997  13
   3   2  10 35151.8 577.606  14
   3   2  11 1616.27 115.451  13
   3   2  11 1656.66 127.184  14
   3   2  12 1503.31 100.916  13
   3   2  12 1352.32 101.385  14
   3   2  13 385.300 51.8354   7
   3   2  13 493.248 50.6177  13
   3   3 -11 17625.3 293.229   6
   3   3 -10 5287.37 195.514   6
   3   3  -9 244.211 56.8512   6
   3   3  -8 8624.36 284.300   6
   3   3  -7 2863.02 165.428   6
   3   3  -7 2850.48 161.441  11
   3   3  -7 2421.56 148.020  15
   3   3  -6 1136.81 106.720  11
   3   3  -6 1250.91 108.189   6
   3   3  -5 3349.70 328.135   3
   3   3  -5 3231.51 162.009  11
   3   3  -5 3468.95 160.355   6
   3   3  -4 33726.2 990.334   3
   3   3  -3 6632.96 412.756   3
   3   3  -3 6229.39 317.531   4
   3   3  -2 112.380 52.4780   4
   3   3  -2 92.8685 63.7790   3
   3   3  -1 45791.6 955.240   3
   3   3  -1 45950.0 885.444   4
   3   3   0 29456.0 711.226   3
  -3  -3   0 30403.4 525.696   2
   3   3   0 29820.1 713.020   4
  -3  -3  -1 9677.07 329.211   2
   3   3   1 9040.60 397.594   4
   3   3   2 71438.2 1152.50   4
  -3  -3  -2 72126.3 996.342   2
   3   3   3 6217.39 344.976   4
  -3  -3  -3 5971.56 323.775   2
  -3  -3  -4 11677.2 485.367   2
  -3  -3  -5 20365.0 687.489   2
  -3  -3  -6 59828.6 1261.89   2
  -3  -3  -7 21942.7 815.025   2
  -3  -3  -8 4908.88 412.837   2
   3   3   8 4630.73 193.624  14
   3   3   9 58539.8 638.477  13
   3   3   9 59450.8 729.170  14
   3   3  10 2218.92 129.212  13
   3   3  10 1920.08 138.256  14
   3   3  11 2471.00 134.535  13
   3   3  11 2585.18 155.785  14
   3   3  12 2539.81 127.643  13
   3   3  12 2496.28 141.917  14
   3   3  13 35.8361 22.9094   7
   3   3  13 18.8628 23.1219  13
   3   3  13 18.0384 19.8037  14
   3   4 -11 20.3893 18.5373   6
   3   4 -10 854.627 75.2907   6
   3   4  -9 812.812 85.5297   6
   3   4  -8 7.35279 35.0345   6
   3   4  -7 1377.57 118.735  11
   3   4  -7 1400.85 121.062   6
   3   4  -6 8124.77 281.669  11
   3   4  -6 8630.40 283.940   6
   3   4  -5 50058.1 672.590  11
   3   4  -5 50433.3 657.275   6
   3   4  -4 80.0827 39.8557  11
   3   4  -4 137.325 41.0312   6
   3   4  -3 21551.8 675.142   4
   3   4  -2 47286.2 1003.42   4
   3   4  -1 1573.10 185.540   4
   3   4   0 29682.6 782.411   4
   3   4   1 110134. 1508.15   4
   3   4   2 4136.88 299.315   4
  -3  -4  -2 3880.87 224.853   2
   3   4   3 467.381 109.134   4
  -3  -4  -3 502.583 97.8640   2
  -3  -4  -4 28648.1 743.002   2
   3   4   4 29294.4 811.993   4
  -3  -4  -5 64751.0 1212.95   2
  -3  -4  -6 2236.05 248.399   2
  -3  -4  -7 21909.9 817.640   2
   3   4   7 23149.0 411.434  14
  -3  -4  -8 74947.5 1591.15   2
   3   4   8 74361.4 789.034  14
   3   4   9 9447.43 293.156  14
   3   4  10 5244.03 189.393  13
   3   4  10 5321.44 227.091  14
   3   4  11 11331.0 271.114  13
   3   4  11 11842.4 327.596  14
   3   4  12 682.221 64.2502  13
   3   4  12 614.271 73.6603  14
   3   4  13 231.043 33.3225  13
   3   4  13 279.841 42.7732  14
   3   5 -10 191.000 32.1775   6
   3   5  -9 605.001 66.4023   6
   3   5  -8 3863.97 181.245   6
   3   5  -7 1326.49 116.130   6
   3   5  -6 5221.55 232.913  11
   3   5  -6 5341.26 231.869   6
   3   5  -5 290.010 70.4435  11
   3   5  -5 214.486 56.2340   6
   3   5  -4 459.132 86.2976  11
   3   5  -4 452.544 70.5222   6
   3   5  -3 1365.91 193.641   4
   3   5  -3 1503.17 124.628  11
   3   5  -3 1543.77 112.839   6
   3   5  -2 7866.30 459.171   4
   3   5  -1 12097.0 562.113   4
   3   5   0 14416.5 607.415   4
   3   5   1 14662.3 608.155   4
   3   5   2 3009.54 277.637   4
   3   5   3 20350.4 720.334   4
  -3  -5  -4 10480.4 437.878   2
   3   5   4 10652.5 527.008   4
  -3  -5  -5 18027.7 634.152   2
   3   5   5 17730.7 688.281   4
  -3  -5  -6 79526.4 1444.62   2
  -3  -5  -7 58301.9 1323.00   2
   3   5   7 62570.1 705.826  14
  -3  -5  -8 36432.0 1102.22   2
   3   5   8 36757.6 569.026  14
   3   5   9 12533.0 343.587  14
   3   5  10 5351.09 225.375  14
   3   5  11 295.609 58.9812  14
   3   5  12 13.2636 23.7467  14
   3   5  13 2198.35 107.980  14
   3   6  -9 613.591 55.5268   6
   3   6  -8 245.880 48.3783   6
   3   6  -7-45.6989 42.3776   6
   3   6  -6 12902.5 351.564   6
   3   6  -5 9185.71 301.282   6
   3   6  -4 78.6585 65.7601  11
   3   6  -4-16.4622 35.1316   6
   3   6  -3 22183.6 493.158  11
   3   6  -3 22556.8 455.178   6
   3   6  -2 27821.0 490.519   6
   3   6  -2 27369.9 528.181  11
   3   6  -2 26505.5 915.613   4
   3   6  -1 9245.41 296.538  11
   3   6  -1 9499.25 274.147   6
   3   6  -1 9465.86 545.369   4
   3   6   0 33696.1 497.804   6
   3   6   0 33146.7 1019.64   4
   3   6   1 59654.6 1355.53   4
   3   6   2 56947.2 1316.17   4
   3   6   3 2126.86 261.074   4
   3   6   4 31485.5 981.696   4
   3   6   5 28604.6 471.031   6
   3   6   5 27859.5 474.321   8
   3   6   5 28757.0 936.686   4
   3   6   6 4843.57 204.853   6
   3   6   6 4703.40 384.793   4
   3   6   6 4991.77 215.886   8
   3   6   6 5209.90 207.063  14
   3   6   7 50247.5 665.936   6
  -3  -6  -7 48486.1 1179.83   2
   3   6   7 48959.6 706.366   8
   3   6   7 50999.5 671.563  14
   3   6   8 691.626 83.9465  14
   3   6   9 607.402 83.0659  14
   3   6  10 1209.46 110.644  14
   3   6  11 1528.37 116.347  14
   3   6  12 8777.64 246.129  14
   3   6  13 3330.02 123.552  14
   3   7  -8 150.561 31.1185   6
   3   7  -7 4515.93 171.393   6
   3   7  -6 2164.14 137.006   6
   3   7  -5 80.9736 50.8118   6
   3   7  -4 10789.6 329.372   6
   3   7  -3 3070.61 179.306   6
   3   7  -2 8.69475 32.7290   6
   3   7  -1 17453.4 409.214   6
   3   7  -1 16182.9 759.642   4
   3   7   0 2327.39 148.920   6
   3   7   0 2035.18 279.075   4
   3   7   1 11132.4 314.725   6
   3   7   1 11252.4 634.276   4
   3   7   2 2273.23 142.825   6
   3   7   2 2127.48 128.282   8
   3   7   2 2540.67 303.699   4
   3   7   3 9025.08 282.787   6
   3   7   3 8349.78 257.696   8
   3   7   3 8856.40 565.141   4
   3   7   4 14420.2 359.290   6
   3   7   4 14041.0 347.721   8
   3   7   4 14873.3 725.933   4
   3   7   5 1746.35 244.810   4
   3   7   5 1599.45 132.169   6
   3   7   5 1849.78 136.628   8
   3   7   6 140606. 1156.62   6
   3   7   6 143070. 1200.44   8
   3   7   6 139538. 2129.28   4
   3   7   7 24124.2 485.780   6
   3   7   7 22887.9 508.395   8
   3   7   7 24578.0 480.370  14
   3   7   8 1894.23 138.109  14
   3   7   9 9810.39 306.994  14
   3   7  10 4427.72 201.740  14
   3   7  11 3893.27 174.088  14
   3   7  12 402.749 53.0793  14
   3   7  13 6011.12 146.058  14
   3   8  -7 48.4964 18.1364   6
   3   8  -6 1413.32 92.0073   6
   3   8  -5 6109.19 213.663   6
   3   8  -4 4475.56 199.612   6
   3   8  -3 401.720 71.3686   6
   3   8  -2 5802.26 247.024   6
   3   8  -1 1651.74 132.688   6
   3   8   0 154.499 49.0447   6
   3   8   1 4412.30 214.872   6
   3   8   1 4252.09 190.283   8
   3   8   2 13408.9 367.848   6
   3   8   2 13206.1 339.870   8
   3   8   3 436.581 73.6047   6
   3   8   3 514.025 75.2271   8
   3   8   4 2575.73 162.146   8
   3   8   4 2740.16 169.792   6
   3   8   5 39892.0 642.178   6
   3   8   5 39820.2 640.592   8
   3   8   6 98.3737 47.7003   6
   3   8   6 53.7679 38.9408   8
   3   8   7 5530.85 236.771   6
   3   8   7 5563.65 251.510   8
   3   8   7 5511.90 229.379  14
   3   8   8 506.595 75.5337  14
   3   8   9 21.9219 29.9087  14
   3   8  10 1005.24 91.7377  14
   3   8  11 2799.14 134.722  14
   3   8  12 19229.9 292.425  14
   3   9  -5 13.5322 22.3400   6
   3   9  -4-44.7846 33.3218   6
   3   9  -3-15.9245 35.9913   6
   3   9  -2 7092.42 249.257   6
   3   9  -1 3297.16 181.372   6
   3   9   0 5057.89 224.173   6
   3   9   0 4441.41 183.771   8
   3   9   1 5483.83 236.523   6
   3   9   1 5142.61 206.395   8
   3   9   2 249.269 62.5199   6
   3   9   2 240.854 57.2350   8
   3   9   3 3366.45 187.502   6
   3   9   3 3154.68 174.181   8
   3   9   4 15985.4 408.791   6
   3   9   4 15668.4 389.970   8
   3   9   5 9375.99 309.518   6
   3   9   5 8969.87 300.814   8
   3   9   6 5211.62 230.764   6
   3   9   6 5246.75 233.705   8
   3   9   6 5029.91 210.174  14
   3   9   7 5151.82 221.666   6
   3   9   7 4970.85 225.959   8
   3   9   7 4743.90 201.469  14
   3   9   8 56.9594 35.7336  14
   3   9   9 1124.17 93.6549  14
   3   9  10 5175.35 177.793  14
   3   9  11 10404.6 217.825  14
   3  10  -3 2114.17 95.8699   6
   3  10  -2 2892.60 129.514   6
   3  10  -1 4093.93 170.536   6
   3  10   0 2896.41 151.419   6
   3  10   1 108.407 42.4387   6
   3  10   1 96.5395 33.4295   8
   3  10   2 927.439 95.2098   6
   3  10   2 983.397 87.5365   8
   3  10   3 2394.16 151.498   6
   3  10   3 2243.80 133.923   8
   3  10   4 16043.3 375.332   6
   3  10   4 15443.4 357.967   8
   3  10   5 4204.26 193.067   6
   3  10   5 4264.83 191.415   8
   3  10   5 3934.68 158.549  14
   3  10   6 4728.11 197.405   6
   3  10   6 4517.85 194.916   8
   3  10   6 4238.13 166.731  14
   3  10   7 56.0287 30.4130  14
   3  10   8 2389.94 118.633  14
   3  10   9 6221.43 175.708  14
   3  10  10 1453.07 75.2805  14
   3  11   0 1123.41 71.0239   6
   3  11   1 1324.07 83.4813   6
   3  11   2 476.323 56.7497   6
   3  11   2 402.841 43.1317   8
   3  11   3 11441.2 258.768   6
   3  11   3 10242.3 221.592   8
   3  11   4 2431.44 114.265   8
   3  11   4 2734.97 129.053   6
   3  11   5 2421.71 119.341   6
   3  11   5 2172.79 110.950   8
   3  11   6 252.688 31.6370  14
   3  11   7 2530.64 90.2038  14
   4  -9  -5 453.248 38.8580  10
   4  -9  -4 1654.89 79.0785  10
   4  -9  -3 2252.48 96.5983  10
   4  -9  -2 457.053 46.1899  10
   4  -9  -1 153.143 30.1812  10
   4  -9   0 980.291 62.1652  10
   4  -8  -7 364.775 36.6278  11
   4  -8  -7 413.186 43.5741  10
   4  -8  -6 6416.90 180.333  11
   4  -8  -6 6664.56 185.887  10
   4  -8  -5 5070.01 175.850  10
   4  -8  -4 129.631 39.1306  10
   4  -8  -3 9256.41 258.136  10
   4  -8  -2 1384.04 104.816  10
   4  -8  -1 3334.29 158.854  10
   4  -8   0 373.454 56.9376  10
   4  -8   1 4447.02 174.265  10
   4  -8   2 1954.04 109.788  10
   4  -8   3 296.115 43.3315  10
   4  -7  -9 3049.01 109.929  15
   4  -7  -8 1311.13 68.5911  11
   4  -7  -8 1499.35 88.1788  10
   4  -7  -7 14896.0 294.618  11
   4  -7  -7 15964.1 319.180  10
   4  -7  -6 10327.7 279.506  10
   4  -7  -5-4.74617 30.5154  10
   4  -7  -4 18799.4 410.692  10
   4  -7  -3 586.773 80.2963  10
   4  -7  -2 133.196 49.6327  10
   4  -7  -1 9293.98 302.205  10
   4  -7   0 7576.93 272.019  10
   4  -7   0 8283.65 269.300  13
   4  -7   1 431.858 71.7089  13
  -4   7  -2 1949.97 116.045   8
   4  -7   2 2438.58 144.534  13
   4  -7   3 6056.01 215.254  13
  -4   7  -3 5132.92 181.222   8
  -4   7  -4 541.127 59.4937   8
   4  -7   4 667.416 73.7000  13
  -4   7  -5 302.654 40.6724   8
   4  -7   5 344.629 49.3002  13
   4  -7   6 496.209 45.2025  13
   4  -6 -10 797.552 58.9480  15
   4  -6  -9 5310.69 177.984  15
   4  -6  -8 12245.1 260.742  11
   4  -6  -8 12497.6 290.028  10
   4  -6  -7 278.832 55.6304  11
   4  -6  -7 377.443 62.3691  10
   4  -6  -6 5599.96 226.392  10
   4  -6  -5 18186.1 418.080  10
   4  -6  -4 79.6361 39.2992  10
   4  -6  -3 363.771 68.4686  10
   4  -6  -3 412.090 67.6919   9
   4  -6  -2 12613.0 363.658  10
   4  -6  -2 12623.8 320.155   9
   4  -6  -1 27779.8 540.569  10
   4  -6  -1 29268.4 473.077   9
   4  -6  -1 29252.8 523.339  13
   4  -6   0 7286.18 232.042   9
   4  -6   0 7494.19 268.542  13
   4  -6   1 4317.65 174.168   9
   4  -6   1 4288.87 210.878  13
   4  -6   2 18448.3 421.895  13
   4  -6   3 28.8560 39.8926  13
   4  -6   4 2107.60 144.751  13
   4  -6   5 4245.58 189.243  13
   4  -6   6 109.907 39.9045  13
   4  -6   7 341.184 46.4194  13
   4  -5 -11 348.371 38.5070  15
   4  -5 -10 9340.02 227.118  15
   4  -5  -9 8340.66 247.137  15
   4  -5  -8 1304.20 97.9500  11
   4  -5  -8 1321.26 105.099  10
   4  -5  -7 18886.4 406.280  11
   4  -5  -7 18725.1 411.109  10
   4  -5  -6 23231.7 469.123  10
   4  -5  -5 6300.35 248.034  10
   4  -5  -4 3039.82 174.490  10
   4  -5  -4 3069.68 169.846   9
   4  -5  -3 13605.8 364.812  10
   4  -5  -3 13578.7 343.373   9
   4  -5  -2 673.326 89.1183  10
   4  -5  -2 670.136 81.8519   9
   4  -5  -1 2443.49 143.823   9
   4  -5  -1 2497.89 152.000  13
   4  -5   0 3209.19 161.802   9
   4  -5   0 3238.48 177.188  13
   4  -5   1 1056.21 96.5641   9
   4  -5   1 1015.67 102.713  13
   4  -5   2 2268.96 134.459   9
   4  -5   2 2603.08 160.624  13
   4  -5   3 724.154 86.2489  12
   4  -5   3 708.854 76.0831   9
   4  -5   3 921.855 101.299  13
   4  -5   4 6526.19 241.794  12
   4  -5   4 6446.54 254.647  13
   4  -5   5 1987.35 131.274  12
   4  -5   5 1897.33 144.901  13
   4  -5   6 559.073 69.3944  12
   4  -5   6 601.099 81.6462  13
   4  -5   7 2745.58 127.289  12
   4  -5   7 3104.21 154.324  13
   4  -5   8 338.108 39.8544  12
   4  -5   8 412.492 53.0693  13
   4  -5   9 42.6441 21.9513  13
  -4   4  11 16651.3 225.018  13
   4  -4 -11 18763.1 290.098  15
   4  -4 -10 8537.28 235.438  15
   4  -4  -9 4313.67 191.251  15
   4  -4  -8 12977.0 312.393  11
   4  -4  -8 12133.8 320.916  10
   4  -4  -7 1352.69 113.610  11
   4  -4  -7 1445.62 117.085  10
   4  -4  -6 30689.5 530.350  10
   4  -4  -5 3172.99 171.429  10
   4  -4  -4 9960.51 295.084  10
   4  -4  -4 9651.36 291.250   9
   4  -4  -4 9620.43 602.750   1
   4  -4  -3 115.687 39.8603  10
   4  -4  -3 130.986 44.5548   9
   4  -4  -3 201.883 84.0511   1
   4  -4  -2 16994.0 763.508   1
   4  -4  -2 16021.5 362.200  10
   4  -4  -2 16376.3 357.148   9
   4  -4  -1 30720.5 1029.65   1
   4  -4  -1 29918.3 476.025   9
   4  -4  -1 30208.5 483.050  13
  -4   4   0 1509.75 208.428   4
   4  -4   0 1623.91 114.490   9
   4  -4   0 1707.93 238.634   1
   4  -4   0 1601.02 115.930  13
  -4   4  -1 35589.0 1055.34   4
   4  -4   1 39642.1 1179.37   1
  -4   4  -1 38281.8 1017.84   2
   4  -4   1 36680.2 528.376   9
   4  -4   1 36752.3 550.342  13
  -4   4  -2 15059.0 723.590   4
   4  -4   2 14651.8 339.168  12
   4  -4   2 15188.4 344.668   9
  -4   4  -2 15401.4 639.257   2
   4  -4   2 14632.5 363.065  13
   4  -4   3 1077.35 98.4383  12
  -4   4  -3 1195.33 219.278   4
   4  -4   3 1047.42 96.0333   9
   4  -4   3 1089.07 105.407  13
   4  -4   4 5515.42 217.186  12
   4  -4   4 5451.60 215.344   9
   4  -4   4 5931.12 238.926  13
   4  -4   5 6495.42 235.182  12
   4  -4   5 6685.14 233.010   9
   4  -4   5 7159.49 265.299  13
   4  -4   6 897.064 88.4844  12
   4  -4   6 936.412 86.6101   9
   4  -4   6 903.152 99.0485  13
   4  -4   7 535.006 66.5929  12
   4  -4   7 525.162 77.0987  13
   4  -4   8 220.151 51.4513  13
   4  -4   8 170.659 41.0199  12
   4  -4   9 1674.14 79.0004  12
   4  -4   9 2027.70 109.645  13
   4  -4  10-4.02313 18.7178  13
   4  -3 -11 116.296 22.7493   6
   4  -3 -11 131.822 35.4772  15
   4  -3 -10 8295.91 242.039  15
   4  -3  -9 654.139 81.0602  15
   4  -3  -8 8800.92 262.794  11
   4  -3  -8 8444.79 284.483  15
   4  -3  -7 69050.5 790.630  11
   4  -3  -7 66868.2 759.511  10
   4  -3  -6 7537.66 270.161  11
   4  -3  -6 7766.17 257.113  10
   4  -3  -6 7302.33 528.289   3
   4  -3  -5 10089.8 285.180  10
   4  -3  -5 10143.1 606.870   1
   4  -3  -4 1801.46 116.576  10
   4  -3  -4 1949.15 128.866   9
   4  -3  -4 1833.60 257.542   1
   4  -3  -3 19625.4 377.277   9
   4  -3  -3 19163.6 790.491   1
   4  -3  -2 13570.2 650.003   1
   4  -3  -2 13553.4 306.271   9
   4  -3  -1 373.983 107.842   1
   4  -3   0 57418.2 1335.97   1
   4  -3   1 28658.4 948.401   1
  -4   3  -2 10011.3 513.045   2
   4  -3   2 9863.44 271.661   9
   4  -3   2 9937.76 266.041  13
  -4   3  -3 14532.5 634.647   2
   4  -3   3 14128.2 329.455  13
   4  -3   4 24122.9 448.940  13
   4  -3   4 23560.7 407.135  12
  -4   3  -4 22992.4 816.379   2
   4  -3   5 3642.45 183.449  13
   4  -3   5 3679.44 167.260  12
   4  -3   6 3910.61 194.264  13
   4  -3   6 3669.32 168.872  12
   4  -3   7 3218.18 154.888  12
   4  -3   7 3341.53 182.041  13
   4  -3   8 4930.66 212.024  13
   4  -3   8 4674.11 174.607  12
   4  -3   9 78.9850 39.1803  13
   4  -3   9 101.044 28.6851  12
   4  -3  10 2200.31 109.811  13
   4  -3  10 1400.26 83.9045   7
   4  -3  11 3604.01 105.838  13
   4  -2 -11 17196.4 272.908   6
   4  -2 -11 17668.6 312.743  15
   4  -2 -10 3065.38 154.226  15
   4  -2  -9 8746.11 276.406  15
   4  -2  -8 48000.6 617.037  11
   4  -2  -8 46469.2 652.677  15
   4  -2  -7 318.910 63.1900  11
   4  -2  -6 147.900 48.7928  11
   4  -2  -6 101.416 39.5994  10
   4  -2  -5 6958.83 247.731  11
   4  -2  -5 6377.97 211.825  10
   4  -2  -5 7160.20 499.863   3
   4  -2  -5 6628.14 466.207   1
   4  -2  -4 13221.9 649.498   3
   4  -2  -4 13428.3 303.562   9
   4  -2  -4 13501.3 641.813   1
   4  -2  -3 51.1860 46.4409   1
   4  -2  -2 28483.6 879.674   1
   4  -2  -1 92927.5 1574.87   1
   4  -2   0 3563.76 312.827   1
   4  -2   1 1932.97 232.083   1
   4  -2   2 26288.6 889.191   1
  -4   2  -2 25165.1 789.420   2
  -4   2  -3 18494.8 698.747   2
   4  -2   4 48.6201 30.4254  13
  -4   2  -4-3.34644 57.9200   2
   4  -2   5 14280.1 334.443  13
  -4   2  -5 14522.6 677.934   2
   4  -2   6 19697.4 411.553  13
  -4   2  -6 17892.1 748.461   2
   4  -2   7 12731.4 341.140  13
   4  -2   8 2336.20 147.126  13
   4  -2   9 9171.35 273.416  13
   4  -2  10 3148.92 146.816  13
   4  -2  11 110.414 32.2224   7
   4  -2  11 204.078 36.7087  13
   4  -1 -11 112.020 30.7362   6
   4  -1 -11 157.847 38.4987  15
   4  -1 -10 9054.05 258.059  15
   4  -1  -9 13883.3 343.249  15
   4  -1  -8 5527.30 213.381  11
   4  -1  -8 5607.68 223.204  15
   4  -1  -7 1205.16 105.464  11
   4  -1  -7 1159.23 100.885  15
   4  -1  -6 22996.3 445.374  11
   4  -1  -6 23290.0 913.243   3
   4  -1  -5 27419.6 958.144   3
   4  -1  -5 26244.5 859.343   1
   4  -1  -4 3090.02 307.156   3
   4  -1  -4 2730.00 268.709   1
   4  -1  -3 30408.8 861.326   1
   4  -1  -3 30083.1 908.839   3
   4  -1  -2 92155.2 1492.57   3
   4  -1  -2 91376.3 1462.04   1
   4  -1  -1 3265.76 275.778   1
   4  -1  -1 3691.67 282.526   3
   4  -1   0 11120.8 508.865   1
   4  -1   1 88473.3 1156.59   3
   4  -1   1 90793.7 1473.96   1
  -4   1  -2 34712.8 892.174   2
   4  -1   2 36043.3 975.064   1
  -4   1  -3 1595.25 205.218   2
  -4   1  -4 24369.4 809.145   2
  -4   1  -5 3150.98 318.157   2
   4  -1   6 1714.02 115.141  13
  -4   1  -6 1434.02 226.554   2
   4  -1   7 5875.06 221.546  13
  -4   1  -7 5895.03 446.611   2
   4  -1   8 1332.68 110.607  13
   4  -1   9 159.612 49.7462  13
   4  -1  10 2262.83 131.989  13
   4  -1  11 3379.13 138.495  13
   4  -1  12 109.260 31.6540   7
   4  -1  12 108.692 25.3989  13
   4   0 -11 3007.49 122.682   6
   4   0 -11 2553.26 117.311  15
   4   0 -10 2366.99 127.342   6
   4   0 -10 2345.45 132.185  15
   4   0  -9 6111.81 221.329  15
   4   0  -8 1174.16 102.947  11
   4   0  -8 1330.02 107.150  15
   4   0  -7 223.699 53.8083  11
   4   0  -7 266.346 55.6973  15
   4   0  -6 2461.40 147.036  11
   4   0  -6 2370.75 290.984   3
   4   0  -6 2263.85 128.497  15
   4   0  -5 441.861 63.4826  11
   4   0  -5 565.378 139.808   3
   4   0  -4 19484.3 756.456   3
   4   0  -4 17583.7 613.131   1
   4   0  -3 32207.2 929.944   3
   4   0  -3 32685.9 811.107   1
   4   0  -2 39042.5 962.065   3
   4   0  -2 38216.5 860.284   1
   4   0  -1 64008.8 1110.76   1
   4   0  -1 66524.9 1161.04   3
   4   0   0 73014.3 1120.89   3
   4   0   0 71053.2 1185.06   1
   4   0   1 1230.59 161.122   1
   4   0   1 1365.33 142.877   3
  -4   0  -2 35011.4 857.893   2
  -4   0  -3 22598.3 723.323   2
  -4   0  -4 1815.16 225.153   2
  -4   0  -5 9595.18 534.360   2
   4   0   6 61116.7 733.061  14
  -4   0  -6 61030.1 1436.57   2
   4   0   7 15845.2 339.108  13
   4   0   7 16155.3 399.059  14
  -4   0  -7 16255.9 753.065   2
   4   0   8 307.294 53.6403  13
   4   0   8 309.694 65.0719  14
   4   0   9 13241.5 326.739  13
   4   0  10 4818.11 189.688  13
   4   0  11 615.435 65.2060  13
   4   0  12-13.3406 27.6517   7
   4   0  12-15.2878 20.5730  13
   4   0  13 1501.75 72.8524   7
   4   1 -11 118.390 28.7633   6
   4   1 -10 11925.2 280.523   6
   4   1 -10 10877.3 267.711  15
   4   1  -9 116.076 42.9685   6
   4   1  -9 108.639 39.6726  15
   4   1  -8 4.09018 38.4851  11
   4   1  -8 42.5585 28.3351  15
   4   1  -7 8537.06 277.315  11
   4   1  -7 7946.81 243.985  15
   4   1  -6 32112.2 533.172  11
   4   1  -6 31385.6 1059.25   3
   4   1  -5 27974.1 472.664  11
   4   1  -5 27498.8 957.414   3
   4   1  -5 27310.4 461.117  16
   4   1  -4 9044.94 522.219   3
   4   1  -3 2672.47 273.532   3
   4   1  -2 591.202 123.399   3
   4   1  -2 348.046 76.8770   1
   4   1  -1 10633.9 466.180   3
   4   1  -1 10142.2 398.558   1
   4   1   0 80.4967 50.5566   3
   4   1   0 922.314 125.508   1
   4   1   1 57062.9 890.322   3
  -4  -1  -1 56483.3 1023.87   2
   4   1   2 43110.8 662.408   3
  -4  -1  -2 43535.2 922.834   2
  -4  -1  -3 9698.67 460.704   2
  -4  -1  -4 53879.1 1168.51   2
  -4  -1  -5 67643.6 1405.88   2
  -4  -1  -6 249.015 113.116   2
   4   1   6 252.406 48.7455  14
   4   1   7 15183.6 372.660  14
  -4  -1  -7 15081.5 728.290   2
   4   1   8 7168.78 226.327  13
  -4  -1  -8 7196.56 516.610   2
   4   1   8 7336.42 272.078  14
   4   1   9 71.3201 33.8092  13
   4   1   9 137.685 54.7679  14
   4   1  10 7777.85 238.092  13
   4   1  10 8001.43 281.364  14
   4   1  11 2330.29 122.176  13
   4   1  12 7740.67 188.972  13
   4   1  12 7924.95 240.739   7
   4   1  13 145.814 31.9762   7
   4   2 -11 6816.25 167.378   6
   4   2 -10 474.763 60.4278   6
   4   2  -9 66.8791 32.7079   6
   4   2  -8 273.572 60.9968  11
   4   2  -8 312.335 61.6271   6
   4   2  -7 10193.4 308.145  11
   4   2  -7 9668.39 292.796   6
   4   2  -6 21159.5 440.403  11
   4   2  -6 20394.5 859.653   3
   4   2  -6 20189.2 401.327   6
   4   2  -5 505.941 75.1400  11
   4   2  -5 422.684 59.5200   6
   4   2  -5 584.967 77.1952  16
   4   2  -4 58885.8 1358.87   3
   4   2  -3 5543.82 397.128   3
   4   2  -2 94983.5 1532.13   3
   4   2  -1 445333. 3094.27   3
   4   2   0 207577. 1945.68   3
  -4  -2   0 210286. 1847.35   2
   4   2   1 460.132 86.1589   3
  -4  -2  -1 52.8839 38.4825   2
   4   2   2 46338.3 766.568   3
  -4  -2  -2 48962.7 963.860   2
  -4  -2  -3 12763.0 523.600   2
  -4  -2  -4 27481.1 828.618   2
  -4  -2  -5 7452.62 470.141   2
  -4  -2  -6 29245.6 972.361   2
  -4  -2  -7 31686.9 1051.03   2
   4   2   7 31795.7 523.879  14
  -4  -2  -8 33.5123 100.819   2
   4   2   8 144.189 46.6971  14
   4   2   9 10934.5 271.999  13
   4   2   9 11734.6 346.056  14
   4   2  10 4610.64 177.144  13
   4   2  10 4641.54 219.740  14
   4   2  11 8645.37 228.752  13
   4   2  11 9104.41 284.978  14
   4   2  12 1612.17 87.3855  13
   4   2  12 1642.00 113.448   7
   4   2  13 1446.52 85.0072   7
   4   3 -11 13.4661 14.5914   6
   4   3 -10 547.596 61.1406   6
   4   3  -9 1066.67 93.8597   6
   4   3  -8 4154.38 191.186  11
   4   3  -8 4453.32 197.839   6
   4   3  -7 61.1867 42.3901  11
   4   3  -7 294.562 58.0706   6
   4   3  -6 6005.48 249.845  11
   4   3  -6 6200.87 234.936   6
   4   3  -5 26334.2 983.774   3
   4   3  -5 26669.2 504.783  11
   4   3  -5 25771.4 452.379   6
   4   3  -5 24775.2 456.293  16
   4   3  -4 2719.53 312.598   3
   4   3  -4 2730.89 159.687  11
   4   3  -4 2674.03 137.490   6
   4   3  -4 2630.30 143.298  16
   4   3  -3 60.0340 61.0195   3
   4   3  -2 62147.8 1313.31   3
   4   3  -2 62822.6 1088.60   4
   4   3  -1 164326. 2011.24   3
   4   3  -1 169538. 1863.05   4
   4   3   0 58630.3 1121.35   3
  -4  -3   0 59041.0 919.098   2
   4   3   0 58029.5 1119.59   4
  -4  -3  -1 30102.7 696.675   2
   4   3   1 30178.0 816.802   4
  -4  -3  -2 25477.5 683.191   2
  -4  -3  -3 535.196 117.131   2
  -4  -3  -4 163673. 2018.14   2
  -4  -3  -5 82257.4 1518.51   2
  -4  -3  -6 3343.62 325.529   2
  -4  -3  -7 10117.8 583.666   2
   4   3   7 10669.9 307.484   7
   4   3   7 10574.8 296.183  14
  -4  -3  -8 16579.0 775.308   2
   4   3   8 16514.0 392.289  14
   4   3   9 826.571 94.9253  14
   4   3  10 3841.36 202.044   7
   4   3  10 3653.17 193.819  14
   4   3  11 14473.8 361.270   7
   4   3  11 15348.8 371.830  14
   4   3  12 6405.95 211.749   7
   4   3  12 6985.37 224.869  14
   4   3  13 586.484 53.0069   7
   4   4 -10 2.38661 19.4933   6
   4   4  -9 325.041 54.0560   6
   4   4  -8 255.969 54.4410  11
   4   4  -8 128.148 50.3671   6
   4   4  -7 5810.47 240.866  11
   4   4  -7 6337.54 241.220   6
   4   4  -6 19427.2 447.002  11
   4   4  -6 18998.7 425.674   6
   4   4  -5 100.183 47.7583  16
   4   4  -5 35.3258 54.0549  11
   4   4  -5 61.1934 41.9249   6
   4   4  -4 8284.34 289.866  11
   4   4  -4 8318.27 261.326   6
   4   4  -4 7772.57 245.433  16
   4   4  -3 19999.0 422.187  11
   4   4  -3 19240.1 372.286   6
   4   4  -3 19417.7 371.217  16
   4   4  -2 105.523 61.4358   4
   4   4  -1 26262.3 806.974   4
   4   4   0 23149.6 763.483   4
   4   4   1 891.732 151.259   4
   4   4   2 256.083 99.7401   4
  -4  -4  -2 410.934 91.3917   2
   4   4   3 52471.0 1178.66   4
  -4  -4  -3 51854.3 1033.01   2
  -4  -4  -4 39250.4 961.882   2
  -4  -4  -5 5025.57 367.217   2
   4   4   6 3399.67 158.712   7
  -4  -4  -6 3542.12 330.584   2
   4   4   6 3543.47 162.168  14
   4   4   7 12412.1 318.519   7
  -4  -4  -7 12145.2 630.455   2
   4   4   7 12175.7 317.764  14
   4   4   8 848.320 97.6312   7
  -4  -4  -8 617.999 159.574   2
   4   4   8 860.654 92.0566  14
   4   4   9 3901.44 192.299   7
   4   4   9 4023.67 197.861  14
   4   4  10 14216.0 360.383   7
   4   4  10 14560.4 373.857  14
   4   4  11 3834.16 175.700   7
   4   4  11 3905.63 191.435  14
   4   4  12 24.0167 25.0339   7
   4   4  12-35.1168 31.5374  14
   4   4  13 4217.56 143.443  14
   4   5  -9 274.222 41.9498   6
   4   5  -8 3088.35 150.439   6
   4   5  -7 1731.74 131.090  11
   4   5  -7 1890.66 130.205   6
   4   5  -6 2669.45 174.968  11
   4   5  -6 2793.10 165.967   6
   4   5  -5 3154.12 192.097  11
   4   5  -5 3105.93 175.603   6
   4   5  -4 2116.53 160.949  11
   4   5  -4 2061.10 142.852   6
   4   5  -4 1969.40 126.880  16
   4   5  -3 2679.09 174.848  11
   4   5  -3 2697.39 157.214   6
   4   5  -3 2577.60 141.731  16
   4   5  -2 23458.5 472.473  11
   4   5  -2 23024.8 422.018   6
   4   5  -2 21734.0 393.962  16
   4   5  -2 24005.2 817.042   4
   4   5  -1 15707.0 365.865  11
   4   5  -1 15414.5 330.598   6
   4   5  -1 15465.2 320.584  16
   4   5  -1 14799.4 338.741   7
   4   5   0 6794.69 447.133   4
   4   5   1 18624.1 739.879   4
   4   5   2 29483.3 933.147   4
   4   5   3 6913.45 458.851   4
   4   5   4 19620.8 774.363   4
  -4  -5  -5 14284.8 594.658   2
   4   5   6 1423.80 100.932   7
  -4  -5  -6 1339.90 192.196   2
   4   5   6 1463.84 107.998  14
   4   5   7 1210.89 98.0704   7
  -4  -5  -7 1083.07 190.082   2
   4   5   7 1247.61 105.538  14
   4   5   8 272.770 53.7258   7
   4   5   8 228.420 52.8442  14
   4   5   9 29107.1 474.774   7
   4   5   9 30929.7 540.512  14
   4   5  10 151.200 47.5842  14
   4   5  11 15790.4 366.737  14
   4   5  12 15491.5 325.952  14
   4   5  13 884.240 67.1186  14
   4   6  -8-16.6946 26.5193   6
   4   6  -7 5366.73 199.062   6
   4   6  -6 1811.53 131.945   6
   4   6  -5 133.273 62.4135  11
   4   6  -5 152.122 55.1651   6
   4   6  -4 6782.37 287.343  11
   4   6  -4 7420.83 271.897   6
   4   6  -3 13967.0 401.553  11
   4   6  -3 13458.4 366.708   6
   4   6  -2 2316.42 131.486  16
   4   6  -2 2613.72 175.385  11
   4   6  -2 2603.33 158.387   6
   4   6  -1 13424.9 367.633  11
   4   6  -1 13292.7 342.200   6
   4   6  -1 12553.8 300.255  16
   4   6  -1 13446.1 670.610   4
   4   6   0 29189.0 511.216  11
   4   6   0 30009.5 493.873   6
   4   6   0 28241.7 449.463  16
   4   6   0 30711.2 1015.30   4
   4   6   0 28195.5 455.622   7
   4   6   1 35941.1 535.146  11
   4   6   1 36427.9 530.388   6
   4   6   1 36660.7 510.177  16
   4   6   2 2749.76 148.492   6
   4   6   2 3030.70 151.558  16
   4   6   2 2934.67 319.464   4
   4   6   3 30122.7 474.244   6
   4   6   3 32398.7 1050.82   4
   4   6   4 12155.7 305.840   6
   4   6   4 12374.1 651.340   4
   4   6   5 685.060 78.0566   6
   4   6   5 813.009 168.223   4
   4   6   5 785.320 78.6552  14
   4   6   6 17059.9 371.184   6
   4   6   6 17766.3 378.644  14
   4   6   7 2493.79 145.010   6
   4   6   7 2725.13 155.907  14
   4   6   8 22981.0 461.522  14
   4   6   9 3307.65 178.169  14
   4   6  10 19657.3 421.427  14
   4   6  11 21763.7 416.538  14
   4   6  12 291.428 49.4352  14
   4   6  13 3933.67 126.119  14
   4   7  -7 74.5355 28.0015   6
   4   7  -6 510.049 66.5116   6
   4   7  -5 4361.36 199.811   6
   4   7  -4 5097.06 225.440   6
   4   7  -3 48.0003 41.0642   6
   4   7  -2 9427.13 309.593   6
   4   7  -1 11033.6 329.976   6
   4   7   0 6871.50 261.724   6
   4   7   0 6873.18 219.642  16
   4   7   0 7199.05 510.282   4
   4   7   1 7218.66 264.013   6
   4   7   1 7307.19 232.472  16
   4   7   1 7540.51 536.544   4
   4   7   2 8890.66 284.881   6
   4   7   2 8836.29 261.480  16
   4   7   2 9109.78 586.600   4
   4   7   3 717.249 179.736   4
   4   7   3 704.244 85.6198   6
   4   7   4 2287.79 147.454   6
   4   7   4 2146.18 292.883   4
   4   7   5 17814.7 402.863   6
   4   7   5 17747.5 392.510   8
   4   7   5 18016.7 371.147  14
   4   7   6 21916.6 444.739   6
   4   7   6 22746.4 437.025  14
   4   7   7 48058.0 658.981   6
   4   7   7 50453.8 666.715  14
   4   7   8 6360.31 241.117  14
   4   7   9 31619.1 529.586  14
   4   7  10 6926.59 239.167  14
   4   7  11 5870.61 202.272  14
   4   7  12 9327.72 221.922  14
   4   8  -6 1860.44 95.0079   6
   4   8  -5 462.060 62.8689   6
   4   8  -4 1053.16 98.7715   6
   4   8  -3 3808.54 193.290   6
   4   8  -2 199.219 63.2734   6
   4   8  -1 73.7020 47.9419   6
   4   8   0 7634.13 278.533   6
   4   8   1 3131.87 179.880   6
   4   8   2 53.7890 46.3896   6
   4   8   2 88.3304 32.6292  16
   4   8   3 2341.23 156.148   6
   4   8   3 2333.34 135.828  16
   4   8   4 7654.10 277.997   6
   4   8   4 7862.97 252.866  16
   4   8   5 3298.36 182.286   6
   4   8   5 3182.62 172.068   8
   4   8   5 3070.81 153.241  14
   4   8   6 12758.6 349.258   6
   4   8   6 12827.4 348.948   8
   4   8   6 12689.2 320.707  14
   4   8   7 7008.15 254.469   6
   4   8   7 7345.56 247.593  14
   4   8   8 5258.08 209.798  14
   4   8   9 294.904 56.8665  14
   4   8  10 15773.9 329.040  14
   4   8  11 12254.1 260.682  14
   4   8  12 510.235 46.7778  14
   4   9  -5 383.331 41.3510   6
   4   9  -4 4259.34 150.960   6
   4   9  -3 2095.76 122.342   6
   4   9  -2 61.6503 39.0830   6
   4   9  -1 11622.0 323.479   6
   4   9   0 1522.06 125.211   6
   4   9   1 2253.64 153.682   6
   4   9   2 3677.85 195.750   6
   4   9   3 1156.96 111.198   6
   4   9   4 75.3771 47.5960   6
   4   9   4 69.6426 38.3849   8
   4   9   5 1108.28 109.217   6
   4   9   5 985.559 84.9667  16
   4   9   5 1044.72 94.9309   8
   4   9   6 17081.3 388.984   6
   4   9   6 15893.4 328.079  14
   4   9   7 2990.33 158.231   6
   4   9   7 2866.24 142.172  14
   4   9   8 5304.91 188.912  14
   4   9   9 19818.4 344.696  14
   4   9  10 2679.24 118.561  14
   4   9  11 2058.62 88.3064  14
   4  10  -3 132.619 27.4095   6
   4  10  -2 103.963 33.2198   6
   4  10  -1 1239.72 92.9733   6
   4  10   0 1619.47 110.151   6
   4  10   1 1245.31 104.305   6
   4  10   2 1409.61 112.214   6
   4  10   3 274.883 56.7453   6
   4  10   4 574.473 74.5411   6
   4  10   5 18574.2 378.277   6
   4  10   6 73.4803 36.6309   6
   4  10   7 12127.5 233.795  14
   4  10   8 13077.4 216.558  16
   4  10   8 13884.5 242.723  14
   4  10   9 76.8099 24.6677  14
   4  11   0 1107.34 65.8569   6
   4  11   1-9.39625 21.7574   6
   4  11   2 202.909 38.4832   6
   4  11   3 92.3564 31.0517   6
   4  11   4 4127.81 147.578   6
   4  11   5 967.780 73.6659   6
   5  -8  -4 1866.72 88.6664  11
   5  -8  -3 1643.41 74.7294  10
   5  -8  -2-5.39893 16.0212  10
   5  -8  -1 1749.11 77.1798  10
   5  -7  -7 3367.26 111.619  15
   5  -7  -6 3903.01 136.793  11
   5  -7  -6 3796.91 121.433  10
   5  -7  -5 10305.6 254.290  11
   5  -7  -5 10222.8 223.063  10
   5  -7  -4 4116.59 152.136  10
   5  -7  -3 515.369 59.9291  10
   5  -7  -2 11241.7 266.440  10
   5  -7  -1 6087.94 197.496  10
   5  -7   0 323.570 49.1221  10
   5  -7   1 30.2630 23.6991  10
   5  -7   2 2097.30 101.010  10
   5  -7   3 1610.09 77.4005  10
   5  -6  -8 918.796 54.6128  11
   5  -6  -8 1076.97 69.9842  15
   5  -6  -7 16531.2 297.268  11
   5  -6  -7 16348.3 275.956  10
   5  -6  -6 19857.8 375.824  11
   5  -6  -6 19123.8 334.794  10
   5  -6  -5 5223.32 214.194  11
   5  -6  -5 5118.46 187.677  10
   5  -6  -4 178.549 43.3783  10
   5  -6  -3 3130.20 158.622  10
   5  -6  -2 65.4468 37.3686  10
   5  -6  -2 138.163 48.0179   9
   5  -6  -1 1211.96 104.260  10
   5  -6  -1 1224.88 99.3596   9
   5  -6   0 979.049 95.1047  10
   5  -6   0 1098.50 90.6590   9
   5  -6   1 5115.06 202.639  10
   5  -6   1 5257.94 181.835   9
   5  -6   1 5086.49 206.988  13
   5  -6   2 550.268 69.7429  10
   5  -6   2 504.093 57.2769   9
   5  -6   2 451.598 68.3708  13
   5  -6   3 1898.86 120.929  13
   5  -6   4 5713.04 194.300  13
   5  -6   5 600.393 60.7118  13
   5  -6   6 530.562 47.6452  13
   5  -5  -9 414.785 43.7706  15
   5  -5  -8 19929.6 311.739  11
   5  -5  -8 20275.2 343.885  15
   5  -5  -7 7900.43 238.514  11
   5  -5  -7 7612.25 214.593  10
   5  -5  -6 17.1987 39.8962  11
   5  -5  -6 12.0142 24.5316  10
   5  -5  -5 4212.96 182.861  10
   5  -5  -4 6060.38 226.905  10
   5  -5  -3 762.605 84.0503  10
   5  -5  -3 846.505 95.0591   9
   5  -5  -2 11608.6 321.007  10
   5  -5  -2 11559.9 322.194   9
   5  -5  -1 17530.0 396.549  10
   5  -5  -1 18072.5 396.286   9
   5  -5   0 25920.0 483.475  10
   5  -5   0 26844.5 475.038   9
   5  -5   0 26126.1 481.686  13
   5  -5   1 5951.02 230.452  10
   5  -5   1 6269.11 229.681   9
   5  -5   1 6190.44 240.609  13
   5  -5   2 1371.24 106.689   9
   5  -5   2 1380.65 118.333  13
   5  -5   3 8721.88 250.946   9
   5  -5   3 8963.86 283.972  13
   5  -5   4 342.406 51.9526   9
   5  -5   4 450.933 71.5581  13
   5  -5   5 3419.20 163.468  13
   5  -5   6 569.285 65.6699  13
   5  -5   7 1154.35 76.8212  13
   5  -4 -10 46.5641 19.9809  15
   5  -4  -9 8498.08 209.126  15
   5  -4  -8 604.640 66.6847  11
   5  -4  -8 662.883 72.4077  15
   5  -4  -7 4343.72 191.350  11
   5  -4  -6 14579.8 375.556  11
   5  -4  -6 14289.1 326.315  10
   5  -4  -5 5092.62 234.707  11
   5  -4  -5 4925.12 199.818  10
   5  -4  -4 5010.25 203.684  10
   5  -4  -4 5326.05 227.060   9
   5  -4  -3 11049.5 301.406  10
   5  -4  -3 11093.3 321.204   9
   5  -4  -2 1290.02 106.218  10
   5  -4  -2 1395.01 117.680   9
   5  -4  -1 2837.31 154.185  10
   5  -4  -1 2727.31 160.254   9
   5  -4   0 94.3169 40.6758  13
   5  -4   0 127.963 46.3609   9
   5  -4   1 182.606 50.8395  13
   5  -4   1 102.804 43.0955   9
   5  -4   2 207.443 48.9785  13
   5  -4   2 159.343 48.8780   9
   5  -4   3 5065.65 214.060   9
   5  -4   3 5349.19 224.050  13
   5  -4   4 14214.0 346.483   9
   5  -4   4 13688.5 357.839  13
   5  -4   5 2871.37 152.471   9
   5  -4   5 3093.90 168.562  13
   5  -4   6 1918.59 113.374   9
   5  -4   6 2013.16 130.010  13
   5  -4   7 2612.19 135.845  13
   5  -4   8 4242.84 146.626  13
   5  -4   9 80.1356 21.5729  13
   5  -3 -10 479.091 46.3252  15
   5  -3  -9 14162.4 259.143  11
   5  -3  -9 14424.0 286.753  15
   5  -3  -8 21856.7 392.525  11
   5  -3  -8 21734.3 395.627  15
   5  -3  -7 10159.0 299.157  11
   5  -3  -6 1210.48 115.454  11
   5  -3  -6 1221.28 97.7874  10
   5  -3  -5 3630.87 198.180  11
   5  -3  -5 3590.76 164.618  10
   5  -3  -4 6069.64 239.314   9
   5  -3  -3 1734.46 128.083   9
   5  -3  -3 1430.98 227.943   3
   5  -3  -2 4.45669 91.9242   1
   5  -3  -2-1.36019 41.6730   9
   5  -3  -1 17026.5 385.872   9
   5  -3  -1 17973.6 813.095   1
   5  -3   0 30451.6 513.533   9
   5  -3   0 29696.7 467.365  13
  -5   3  -1 2729.50 285.735   4
   5  -3   1 3515.58 369.935   1
   5  -3   1 3018.11 166.196   9
  -5   3  -1 3057.18 319.523   2
   5  -3   1 3052.94 155.542  13
   5  -3   2 18126.9 409.190   9
  -5   3  -2 18969.7 780.159   2
   5  -3   2 17846.2 383.523  13
   5  -3   3 28826.5 526.726   9
   5  -3   3 28929.3 500.948  13
   5  -3   4 116.880 43.8349  13
   5  -3   4 128.682 46.5657   9
   5  -3   5 129.319 46.8151  13
   5  -3   6 6969.30 248.548  13
   5  -3   7 1077.96 95.4101   9
   5  -3   7 1059.97 95.9265  13
   5  -3   8 429.941 54.0748   9
   5  -3   8 495.651 63.2480  13
   5  -3   9 2031.87 100.507  13
   5  -2 -10 4677.25 139.868  15
   5  -2  -9 16226.4 294.646  11
   5  -2  -9 16603.8 309.694  15
   5  -2  -8 11353.5 295.929  11
   5  -2  -8 10679.5 276.037  15
   5  -2  -7 271.288 59.4843  11
   5  -2  -7 395.077 61.0418  15
   5  -2  -6 21985.9 465.635  11
   5  -2  -5 4265.58 209.281  11
   5  -2  -4 9585.48 572.813   1
   5  -2  -4 9402.86 308.112  11
   5  -2  -4 10078.8 606.959   3
   5  -2  -4 9646.49 288.260   9
   5  -2  -3 15480.0 724.915   1
   5  -2  -3 15872.4 733.806   3
   5  -2  -3 14968.9 351.648   9
   5  -2  -2 21297.1 851.610   1
   5  -2  -2 21413.0 814.786   3
   5  -2  -2 20795.3 409.373   9
   5  -2  -1 9207.09 504.521   3
   5  -2  -1 9136.17 553.924   1
   5  -2  -1 9028.34 269.579   9
   5  -2   0 1209.27 208.240   1
   5  -2   0 1177.39 101.384   9
   5  -2   1 47603.7 1309.39   1
  -5   2  -1 46660.5 1208.13   2
   5  -2   1 44061.6 606.668   9
   5  -2   2 28167.9 503.642   9
  -5   2  -2 29638.1 970.413   2
  -5   2  -3 3685.16 356.593   2
   5  -2   3 3134.82 151.509  13
  -5   2  -4 13489.9 680.505   2
   5  -2   4 12768.6 317.325  13
   5  -2   5 32447.8 540.720   7
   5  -2   5 32940.3 524.297  13
   5  -2   6 4693.50 201.293  13
   5  -2   6 4737.84 212.382   7
   5  -2   7 4389.32 190.084  13
   5  -2   7 4307.95 202.029   7
   5  -2   8 9337.53 262.526  13
   5  -2   8 8558.76 267.249   7
   5  -2   9 1774.69 113.084   7
   5  -2   9 1824.54 107.181  13
   5  -2  10 1332.49 81.2409   7
   5  -2  10 1455.70 75.7329   9
   5  -1 -10 2784.57 106.351  15
   5  -1  -9 355.814 50.5108  11
   5  -1  -9 470.777 56.9870  15
   5  -1  -8 1244.03 107.162  11
   5  -1  -8 1346.82 98.2876  15
   5  -1  -7 14934.3 370.790  11
   5  -1  -7 13747.7 318.652  15
   5  -1  -6 5054.66 226.211  11
   5  -1  -6 4930.50 193.400  15
   5  -1  -5 1534.38 127.201  11
   5  -1  -4 13192.8 626.975   1
   5  -1  -4 13899.8 362.367  11
   5  -1  -4 14024.8 707.589   3
   5  -1  -4 13021.7 314.605   9
   5  -1  -3 48451.3 1204.65   1
   5  -1  -3 49189.6 669.283  11
   5  -1  -3 50351.2 1281.82   3
   5  -1  -3 47246.9 584.899   9
   5  -1  -2 15019.7 667.380   1
   5  -1  -2 15294.4 357.386  11
   5  -1  -2 15643.5 684.160   3
   5  -1  -2 14886.2 324.678   9
   5  -1  -1 8659.63 477.188   3
   5  -1  -1 8290.86 498.208   1
   5  -1  -1 8203.64 239.946   9
   5  -1   0 91417.0 1422.72   3
   5  -1   0 88219.3 795.319   9
   5  -1   0 87413.4 1624.04   1
  -5   1  -1 53959.6 1259.22   2
   5  -1   1 52306.8 635.786   9
  -5   1  -2 483.294 128.948   2
  -5   1  -3 14100.6 673.827   2
   5  -1   4 32607.2 532.004   7
  -5   1  -4 33136.3 1062.68   2
   5  -1   5 1093.16 109.526   7
  -5   1  -5 1242.93 233.462   2
   5  -1   6 26067.7 444.709  13
   5  -1   6 27635.2 535.261   7
   5  -1   7 8895.64 264.304  13
   5  -1   7 9814.28 325.728   7
   5  -1   8 1256.97 98.9228  13
   5  -1   8 1014.71 107.335   7
   5  -1   9 7473.64 221.423  13
   5  -1   9 7530.40 262.142   7
   5  -1  10 1012.89 74.1525  13
   5  -1  10 927.461 88.4013   7
   5  -1  11 369.582 48.6697   7
   5  -1  11 337.515 34.4460  13
   5   0 -10 74.6114 22.2952   6
   5   0  -9 2213.97 117.617  11
   5   0  -9 2234.71 111.385   6
   5   0  -8 4200.60 186.078  11
   5   0  -8 4009.37 158.045   6
   5   0  -7 356.674 71.4919  11
   5   0  -6 7541.72 273.354  11
   5   0  -5 4047.91 200.585  11
   5   0  -5 4156.75 400.900   3
   5   0  -4 10767.1 313.856  11
   5   0  -4 11087.1 622.767   3
   5   0  -4 9833.61 254.113   9
   5   0  -4 10745.1 299.084  16
   5   0  -3 757.322 86.0840  11
   5   0  -3 676.828 69.8133   9
   5   0  -3 676.931 151.437   3
   5   0  -3 497.495 126.574   1
   5   0  -3 665.394 75.6132  16
   5   0  -2 16335.9 357.680  11
   5   0  -2 16635.0 694.968   3
   5   0  -2 16077.5 640.523   1
   5   0  -1 45911.4 1084.59   3
   5   0  -1 44364.3 1069.68   1
   5   0   0 760.302 136.671   3
   5   0   0 725.807 139.238   1
  -5   0  -1 38435.0 1021.83   2
  -5   0  -2 2627.25 276.030   2
  -5   0  -3 357.340 124.913   2
   5   0   4 26608.9 485.947   7
  -5   0  -4 27283.2 948.145   2
   5   0   5 36505.8 598.287   7
  -5   0  -5 37101.7 1159.02   2
   5   0   6 18275.1 438.275   7
  -5   0  -6 18410.1 844.690   2
   5   0   7 1643.39 140.198   7
   5   0   8 1597.47 107.917  13
   5   0   8 1656.32 143.881   7
   5   0   9 1181.62 89.3815  13
   5   0   9 1235.79 121.507   7
   5   0  10 539.277 56.7183  13
   5   0  10 661.618 86.9016   7
   5   0  11 925.998 59.6552  13
   5   0  11 979.830 84.7210   7
   5   0  12 1253.99 73.2048   7
   5   1 -10 2157.33 92.3187   6
   5   1  -9 3014.24 134.014  11
   5   1  -9 3083.27 132.691   6
   5   1  -8 1983.21 131.304  11
   5   1  -8 1786.65 112.183   6
   5   1  -7 10551.2 320.062  11
   5   1  -7 9952.19 262.874   6
   5   1  -6 2833.54 176.473  11
   5   1  -5-13.4846 51.6425  11
   5   1  -5 59.2832 71.2675   3
   5   1  -4 6167.20 239.049  11
   5   1  -4 5889.04 228.839  16
   5   1  -3 10548.3 298.029  11
   5   1  -3 10118.5 574.252   3
   5   1  -3 10449.8 289.844  16
   5   1  -3 10243.2 277.741   7
   5   1  -2 2390.56 136.952  11
   5   1  -2 2027.70 246.478   3
   5   1  -1 13563.6 534.241   1
   5   1  -1 13897.1 602.339   3
   5   1   0 70268.3 1245.22   3
   5   1   0 73258.8 1294.48   1
   5   1   1 13158.2 483.492   3
  -5  -1  -1 14077.1 594.690   2
  -5  -1  -2 902.203 162.505   2
  -5  -1  -3 96887.6 1675.78   2
   5   1   4 58413.5 699.629   7
  -5  -1  -4 57100.2 1352.78   2
   5   1   5 3751.30 188.639   7
   5   1   5 3790.51 180.548  14
  -5  -1  -5 3877.69 372.832   2
   5   1   6 24019.8 497.390   7
   5   1   6 23077.5 471.114  14
   5   1   7 2651.86 176.851   7
   5   1   7 2596.48 166.550  14
   5   1   8 14597.0 408.319   7
   5   1   8 13892.8 385.212  14
   5   1   9 7607.23 293.882   7
   5   1  10 3961.54 203.085   7
   5   1  11 2513.10 144.886   7
   5   1  12 489.203 55.1783   7
   5   2 -10 160.204 28.4550   6
   5   2  -9 3613.22 138.264  11
   5   2  -9 3807.19 144.893   6
   5   2  -8 4654.29 194.257  11
   5   2  -8 4387.79 175.187   6
   5   2  -7 109.830 54.4977  11
   5   2  -7 132.550 39.6252   6
   5   2  -6 1837.83 143.866  11
   5   2  -6 1879.13 121.343   6
   5   2  -5 16481.6 411.220  11
   5   2  -5 15573.6 331.176   6
   5   2  -5 16867.7 399.150  16
   5   2  -4 19373.6 437.230  11
   5   2  -4 18936.3 833.197   3
   5   2  -4 19346.3 417.997  16
   5   2  -3 1251.14 110.099   7
   5   2  -3 1339.25 112.344  11
   5   2  -3 1222.88 214.189   3
   5   2  -3 1320.48 109.648  16
   5   2  -2 49509.5 627.388  11
   5   2  -2 49817.5 1235.84   3
   5   2  -2 51027.9 622.294  16
   5   2  -2 51336.8 622.492   7
   5   2  -1 82655.0 1490.03   3
  -5  -2   1 80648.2 1318.55   2
   5   2   0 126.151 62.8917   3
  -5  -2   0 79.1890 41.4312   2
   5   2   1 17869.8 596.391   3
  -5  -2  -1 17664.5 646.382   2
  -5  -2  -2 69379.4 1329.20   2
  -5  -2  -3 7003.22 443.920   2
   5   2   4 20740.4 414.831   7
  -5  -2  -4 21412.2 817.516   2
   5   2   5 39612.1 593.104   7
   5   2   5 37334.1 542.208  14
  -5  -2  -5 39576.5 1167.94   2
   5   2   6 12250.7 347.327   7
   5   2   6 11730.9 325.788  14
  -5  -2  -6 12435.1 680.051   2
   5   2   7 1476.68 131.904   7
  -5  -2  -7 1657.16 250.978   2
   5   2   7 1559.64 126.540  14
   5   2   8 10051.8 338.425   7
   5   2   8 10400.7 327.838  14
   5   2   9 17842.7 445.103   7
   5   2   9 17560.1 424.551  14
   5   2  10 4104.60 208.426   7
   5   2  10 4110.76 199.599  14
   5   2  11 1562.18 117.427   7
   5   2  12 2053.13 109.404   7
   5   3  -9 1564.74 91.8487   6
   5   3  -8 240.971 58.2998  11
   5   3  -8 245.807 48.9324   6
   5   3  -7 2265.06 150.980  11
   5   3  -7 2175.07 132.364   6
   5   3  -6 10457.4 336.567  11
   5   3  -6 10466.6 291.836   6
   5   3  -5 3841.95 209.338  11
   5   3  -5 3733.45 172.157   6
   5   3  -5 3790.65 193.803  16
   5   3  -4 2286.18 308.948   3
   5   3  -4 2473.22 162.738  11
   5   3  -4 2635.40 140.026   6
   5   3  -4 2915.00 167.315  16
   5   3  -3 29153.5 1031.08   3
   5   3  -3 28627.4 522.992  11
   5   3  -3 29255.4 507.387  16
   5   3  -2 14176.3 690.779   3
   5   3  -2 13795.5 347.002  11
   5   3  -2 13980.5 338.992  16
   5   3  -2 13412.9 341.180   7
   5   3  -1 21515.7 803.977   3
   5   3  -1 21080.9 402.518  11
   5   3  -1 21476.8 404.280  16
   5   3  -1 20732.2 408.062   7
   5   3   0 42754.0 1065.11   3
  -5  -3  -1 77689.7 1303.39   2
  -5  -3  -2 73.2407 49.7801   2
  -5  -3  -3 57911.0 1256.35   2
   5   3   4 51143.4 646.918   7
  -5  -3  -4 51370.7 1256.63   2
   5   3   5 3893.52 187.020   7
   5   3   5 3537.82 162.717  14
  -5  -3  -5 3821.79 359.006   2
   5   3   6 7648.63 271.145   7
   5   3   6 7541.39 254.880  14
  -5  -3  -6 7913.94 534.042   2
  -5  -3  -7 8188.04 550.725   2
   5   3   7 8222.18 290.855   7
   5   3   7 8040.90 276.215  14
   5   3   8 12404.5 365.359   7
   5   3   8 12049.1 348.967  14
   5   3   9 2868.53 176.695   7
   5   3   9 2971.29 175.603  14
   5   3  10 3593.45 188.944   7
   5   3  10 3577.39 185.222  14
   5   3  11 10233.4 283.060   7
   5   3  11 10268.5 285.463  14
   5   3  12 3747.82 144.222   7
   5   4  -9 1650.19 83.4345   6
   5   4  -8 1356.43 95.6772  11
   5   4  -8 1478.95 95.8840   6
   5   4  -7 571.165 82.3638  11
   5   4  -7 589.394 70.7254   6
   5   4  -6 308.926 75.1055  11
   5   4  -6 260.517 57.6265   6
   5   4  -5 3039.48 189.896  11
   5   4  -5 3216.73 168.126   6
   5   4  -5 3312.90 176.314  16
   5   4  -4 13188.8 379.128  11
   5   4  -4 13186.3 328.285   6
   5   4  -4 13230.9 350.750  16
   5   4  -3 7563.26 282.929  11
   5   4  -3 6911.87 228.144   6
   5   4  -3 7044.31 254.495  16
   5   4  -2 8290.65 285.410  11
   5   4  -2 7602.77 229.026   6
   5   4  -2 8636.10 275.548  16
   5   4  -2 8245.96 286.891   7
   5   4  -1 17407.4 387.879  11
   5   4  -1 17432.7 378.405  16
   5   4  -1 17048.9 387.298   7
   5   4   0 29904.4 474.316  11
   5   4   0 30589.5 491.745  16
   5   4   0 30634.4 500.909   7
   5   4   1 2973.47 154.128  16
   5   4   1 2997.74 155.031   7
   5   4   2 36595.6 538.315  16
   5   4   2 36365.2 531.417   7
  -5  -4  -3 4827.97 351.008   2
   5   4   3 5043.95 202.387   7
  -5  -4  -4 4461.82 357.638   2
   5   4   4 4590.10 196.458   7
   5   4   5 18100.4 395.712   7
   5   4   5 17699.3 354.620  14
  -5  -4  -5 18498.6 755.458   2
   5   4   6 4119.14 195.620   7
  -5  -4  -6 3859.17 356.855   2
   5   4   6 3876.02 179.504  14
   5   4   7 3222.29 177.742   7
   5   4   7 3110.68 169.352  14
   5   4   8 338.916 66.8079   7
   5   4   8 362.436 63.6611  14
   5   4   9 4833.24 217.424   7
   5   4   9 4863.49 218.970  14
   5   4  10 1504.90 116.918   7
   5   4  10 1572.13 126.170  14
   5   4  11 19.2123 25.5734   7
   5   4  11 27.3788 36.0871  14
   5   4  12 1839.34 95.0647   7
   5   4  12 2212.08 116.152  14
   5   5  -8 67.3725 28.9366   6
   5   5  -7 2089.51 127.460  11
   5   5  -7 2024.97 118.888   6
   5   5  -6 9611.51 306.146  11
   5   5  -6 9817.62 280.629   6
   5   5  -5 9767.57 325.111  11
   5   5  -5 9123.73 281.729   6
   5   5  -4 625.693 100.091  11
   5   5  -4 612.353 82.8887   6
   5   5  -4 650.154 83.2841  16
   5   5  -3 21226.0 485.672  11
   5   5  -3 20667.2 420.799   6
   5   5  -3 19937.2 424.526  16
   5   5  -2 2378.85 166.695  11
   5   5  -2 2377.56 140.076   6
   5   5  -2 2326.46 145.580  16
   5   5  -1 655.658 92.4076  11
   5   5  -1 559.616 69.2604   6
   5   5  -1 479.377 72.5399  16
   5   5  -1 668.906 92.4632   7
   5   5   0 34026.2 545.206  11
   5   5   0 32199.1 472.146   6
   5   5   0 34828.4 539.823  16
   5   5   0 34381.3 1045.85   4
   5   5   0 34781.5 550.707   7
   5   5   1 33205.6 499.722  11
   5   5   1 35191.6 542.868  16
   5   5   1 35657.7 1084.35   4
   5   5   1 34045.2 533.809   7
   5   5   2 205.453 50.6068   7
   5   5   2 319.333 53.9945  16
   5   5   3 8826.00 269.584   7
   5   5   4 16634.0 370.726   7
   5   5   5 3657.57 178.154   7
   5   5   6 672.254 77.2855  14
   5   5   6 688.417 83.0769   7
   5   5   7 4993.73 210.674   7
   5   5   7 4918.39 209.085  14
   5   5   8 16856.3 383.361   7
   5   5   8 16329.8 388.983  14
   5   5   9 850.697 89.8709   7
   5   5   9 942.060 98.0223  14
   5   5  10 4510.49 182.045   7
   5   5  10 4991.52 209.082  14
   5   5  11 14589.5 281.995   7
   5   5  11 15652.2 343.704  14
   5   5  12 6673.38 194.390  14
   5   6  -8 1006.97 57.3232   6
   5   6  -7 806.779 69.5538   6
   5   6  -6 1455.89 104.561   6
   5   6  -5 213.222 70.6903  11
   5   6  -5 143.622 46.4714   6
   5   6  -4 2376.75 170.601  11
   5   6  -4 2137.98 142.914   6
   5   6  -4 2254.81 128.698  16
   5   6  -3 73.4547 60.4237  11
   5   6  -3 1.28476 35.5520   6
   5   6  -3-9.70399 32.6380  16
   5   6  -2 69.4375 62.5260  11
   5   6  -2 11.8279 45.2716   6
   5   6  -2 69.9791 39.8930  16
   5   6  -1 11807.4 355.888  11
   5   6  -1 11297.0 314.484   6
   5   6  -1 11127.5 311.620  16
   5   6   0 3685.25 193.557  11
   5   6   0 3851.52 183.069  16
   5   6   0 3649.60 177.305   6
   5   6   0 3623.17 364.653   4
   5   6   0 3809.23 191.260   7
   5   6   1 1774.91 252.882   4
   5   6   1 1728.55 128.303  11
   5   6   1 1745.65 122.061   6
   5   6   1 1884.03 131.146  16
   5   6   1 1839.57 129.806   7
   5   6   2 7479.68 238.794   6
   5   6   2 7494.69 524.672   4
   5   6   2 7754.41 263.409  16
   5   6   2 7417.09 250.817   7
   5   6   3 3868.76 170.354   6
   5   6   3 4253.94 198.700  16
   5   6   3 4136.48 183.816   7
   5   6   4 757.220 82.9795   7
   5   6   5 8233.52 253.756   7
   5   6   6 24066.0 434.098  14
   5   6   6 24464.3 433.442   7
   5   6   7 11293.4 309.561  14
   5   6   7 11514.0 298.082   7
   5   6   8 2019.83 135.635  14
   5   6   9 12182.2 323.383  14
   5   6  10 10266.8 285.332  14
   5   6  11 1711.54 110.868  14
   5   6  12 8772.15 208.474  14
   5   7  -7 341.255 36.2639   6
   5   7  -6 2512.86 115.364   6
   5   7  -5 2037.91 121.449   6
   5   7  -4 2818.42 153.537   6
   5   7  -3 5194.58 219.494   6
   5   7  -2 13253.9 380.124  11
   5   7  -2 13800.6 357.617   6
   5   7  -1 145.416 67.8989  11
   5   7  -1 83.8083 42.2952   6
   5   7  -1 96.5747 44.3369  16
   5   7   0 22818.8 484.154  11
   5   7   0 22820.6 464.683   6
   5   7   0 23740.3 440.501  16
   5   7   1 28814.9 507.289   6
   5   7   1 28252.4 489.363  16
   5   7   2 7638.67 259.472   6
   5   7   2 7817.73 264.522  16
   5   7   2 7433.55 240.686   7
   5   7   3 2129.07 137.781   6
   5   7   3 2444.51 151.579  16
   5   7   4 2906.30 158.255   6
   5   7   4 3281.57 177.326  16
   5   7   5 7723.70 250.815   6
   5   7   6 2570.12 143.447   6
   5   7   6 2640.65 141.316  14
   5   7   7 1473.24 109.793  14
   5   7   8 7132.33 240.118  14
   5   7   9 5503.28 206.139  14
   5   7  10 267.831 51.4481  14
   5   7  11 21955.9 349.492  14
   5   7  12 5692.82 147.749  14
   5   8  -5 1077.87 74.1705   6
   5   8  -4 1174.56 90.6012   6
   5   8  -3 2906.64 150.187   6
   5   8  -2 216.562 54.2839   6
   5   8  -1 4583.89 205.660   6
   5   8   0 4947.16 216.057   6
   5   8   0 4586.18 175.430  16
   5   8   1 4411.47 203.633   6
   5   8   1 4276.33 177.924  16
   5   8   2 48.2249 41.2350   6
   5   8   2 2.94753 28.4186  16
   5   8   3 2757.11 161.182   6
   5   8   3 2772.84 154.697  16
   5   8   4 2741.29 158.545   6
   5   8   4 2633.60 151.997  16
   5   8   5 7422.32 254.004   6
   5   8   5 7668.42 262.275  16
   5   8   6 45827.9 599.154   6
   5   8   7 16677.6 332.141  14
   5   8   8 2.70018 25.6847  14
   5   8   9 7222.93 211.171  14
   5   8  10 14575.2 277.460  14
   5   8  11 380.874 43.1889  14
   5   9  -4 2697.26 98.7651   6
   5   9  -3-3.77523 25.1313   6
   5   9  -2 3061.96 141.016   6
   5   9  -1 744.050 79.5312   6
   5   9   0 221.018 54.1836   6
   5   9   1 4090.15 187.263   6
   5   9   2 1056.79 98.3824   6
   5   9   3 339.179 61.9766   6
   5   9   3 285.453 45.5025  16
   5   9   4 2685.70 151.171   6
   5   9   4 2892.39 139.959  16
   5   9   5 11931.3 304.824   6
   5   9   5 12229.6 288.466  16
   5   9   6 9098.46 253.372   6
   5   9   6 9218.34 251.030  16
   5   9   7 2628.96 134.089  16
   5   9   8 384.026 54.0055  16
   5   9   8 323.229 42.5009  14
   5   9   9 5543.74 169.358  16
   5   9   9 5317.44 147.929  14
   5   9  10 1650.43 82.2964  16
   5   9  10 1433.75 69.4929  14
   5  10  -2 1090.47 62.7480   6
   5  10  -1 1321.56 79.7463   6
   5  10   0 2907.42 126.397   6
   5  10   1 1391.79 94.9918   6
   5  10   2 58.4732 34.8595   6
   5  10   3 2973.31 140.902   6
   5  10   4 2464.13 126.055   6
   5  10   5 1532.03 98.1544   6
   5  10   6 3067.91 106.428  16
   5  10   7 927.074 59.6734  16
   5  10   8 96.7280 23.2659  16
   5  11   2 768.195 53.2535   6
   5  11   3 55.3145 22.0308   6
   5  11   4 3963.73 118.944   6
   6  -7  -3 2026.13 84.1136  11
   6  -7  -2 4138.99 118.803  11
   6  -6  -6 5367.48 138.431  11
   6  -6  -5 1365.25 85.2917  11
   6  -6  -4 5162.00 176.601  11
   6  -6  -3 3350.12 149.643  11
   6  -6  -2 2303.27 125.806  11
   6  -6  -1 4993.45 175.205  11
   6  -6   0 4317.11 150.508  11
   6  -6   0 4855.64 155.637   9
   6  -6   1 666.878 56.4679   9
   6  -6   2 485.580 42.7521   9
   6  -5  -7 1379.19 76.1081  11
   6  -5  -6 3258.37 139.830  11
   6  -5  -6 3010.84 116.550  15
   6  -5  -5 4693.88 185.973  11
   6  -5  -4 4833.32 201.993  11
   6  -5  -3 2873.32 161.554  11
   6  -5  -2 14794.9 358.509  11
   6  -5  -2 15394.2 341.735   9
   6  -5  -1 18749.9 375.518   9
   6  -5   0 395.463 61.6773   9
   6  -5   1 4080.01 169.605   9
   6  -5   2 3252.96 145.412   9
   6  -5   3 150.973 37.3803   9
   6  -5   3 140.387 37.7855  13
   6  -5   4 963.553 66.1870   9
   6  -5   4 699.445 61.9962  13
   6  -5   5 1181.86 68.4906  13
   6  -4  -8 23.1560 20.7151  11
   6  -4  -7 10210.9 240.403  11
   6  -4  -7 9906.53 201.900  15
   6  -4  -6 4553.69 185.996  11
   6  -4  -5 25.5007 37.6294  11
   6  -4  -4 11950.4 345.659  11
   6  -4  -3 4451.82 215.862  11
   6  -4  -3 4309.28 200.200   9
   6  -4  -2 517.665 80.6250  11
   6  -4  -2 523.659 77.4472   9
   6  -4  -1 4161.00 195.576   9
   6  -4   0 40.6801 42.4808   9
   6  -4   1 349.943 64.0762   9
   6  -4   2 1237.28 106.594   9
   6  -4   2 974.167 88.0730  13
   6  -4   3 2122.81 131.905   9
   6  -4   3 2106.18 124.008  13
   6  -4   4 8952.10 254.461   9
   6  -4   4 8451.52 233.487  13
   6  -4   5 6808.63 201.628   9
   6  -4   5 6538.22 192.915  13
   6  -4   6 10232.1 209.024   9
   6  -4   6 10049.4 210.485  13
   6  -3  -8 4664.72 150.209  11
   6  -3  -7 126.039 41.0854  11
   6  -3  -6 1342.52 112.151  11
   6  -3  -6 1197.62 85.2606  15
   6  -3  -5 16016.3 395.389  11
   6  -3  -4 5314.77 236.538  11
   6  -3  -3 591.762 85.9948  11
   6  -3  -3 615.164 85.5969   9
   6  -3  -2 25998.2 519.443  11
   6  -3  -2 26291.8 496.084   9
   6  -3  -1 2672.48 163.207   9
   6  -3   0 2895.31 168.934   9
   6  -3   1 7174.97 264.219   9
   6  -3   2 5597.86 232.761   9
   6  -3   3 272.765 50.0729  13
   6  -3   3 324.596 64.7350   9
   6  -3   4 64.5604 36.9909  13
   6  -3   4 126.694 50.0126   9
   6  -3   5 20537.5 414.311   9
   6  -3   5 19189.2 355.802  13
   6  -3   6 109.404 35.0735  13
   6  -3   6 86.4183 37.5462   9
   6  -3   7 555.291 59.4327   9
   6  -3   7 538.956 52.3562  13
   6  -3   8 2267.61 86.6313   9
   6  -2  -8 3247.74 136.059  11
   6  -2  -7 12621.0 307.865  11
   6  -2  -6 27279.1 495.356  11
   6  -2  -5 1344.66 120.382  11
   6  -2  -4 5231.81 238.945  11
   6  -2  -4 5203.93 218.743   9
   6  -2  -3 28232.1 539.971  11
   6  -2  -3 28848.9 506.399   9
   6  -2  -2 288.016 65.1680  11
   6  -2  -2 353.148 66.0483   9
   6  -2  -1 4316.79 206.429  11
   6  -2  -1 4468.00 205.774   9
   6  -2   0 19188.2 414.563  11
   6  -2   0 19959.1 433.865   9
   6  -2   1 28206.4 476.355  11
   6  -2   1 29295.9 531.451   9
   6  -2   2 1994.19 144.734   9
   6  -2   3 6843.96 265.696   9
   6  -2   4 53743.7 746.155   9
   6  -2   5 908.837 103.203   9
   6  -2   6 5971.91 240.329   9
   6  -2   7 5735.33 189.155   7
   6  -2   7 6541.64 229.866   9
   6  -2   8 28.4933 21.4379   7
   6  -2   8-8.80498 27.4429   9
   6  -2   9 376.527 40.6183   9
   6  -1  -9 2815.59 98.8401  11
   6  -1  -8 10422.6 251.393  11
   6  -1  -7 12697.3 320.394  11
   6  -1  -6 515.094 78.1964  11
   6  -1  -5 8757.68 302.272  11
   6  -1  -4 11735.1 347.634  11
   6  -1  -4 10726.5 297.642   9
   6  -1  -3 8675.23 300.632  11
   6  -1  -3 8364.27 264.332   9
   6  -1  -2 20823.7 452.936  11
   6  -1  -2 20989.4 422.492   9
   6  -1  -1 9017.33 560.689   1
   6  -1  -1 9598.28 297.262  11
   6  -1  -1 9877.37 295.006   9
   6  -1   0 4750.15 202.504  11
   6  -1   0 4924.17 211.459   9
   6  -1   1 892.748 85.0898  11
   6  -1   1 989.287 100.406   9
   6  -1   2 7689.94 276.917   9
   6  -1   3 42681.3 667.750   9
   6  -1   3 42348.9 594.300   7
   6  -1   4 10543.9 309.649   7
   6  -1   5 20797.8 436.060   7
   6  -1   6 19751.2 427.381   7
   6  -1   7 11.9527 32.6996   7
   6  -1   8 2938.46 152.889   7
   6  -1   9 2551.21 124.875   7
   6  -1  10 1314.39 73.5529   7
   6  -1  10 1591.12 78.9570   9
   6   0  -9 3048.38 104.758  11
   6   0  -8 1580.89 106.087  11
   6   0  -7 9167.39 279.929  11
   6   0  -6 20832.5 450.859  11
   6   0  -5 12415.2 356.500  11
   6   0  -4 10759.9 331.491  11
   6   0  -3 22318.9 469.765  11
   6   0  -3 20960.9 391.043   9
   6   0  -3 22100.8 432.547  16
   6   0  -2 13572.4 359.604  11
   6   0  -2 14230.5 669.321   3
   6   0  -2 13352.5 315.232   9
   6   0  -2 13621.9 328.747  16
   6   0  -1 1667.57 124.872  11
   6   0  -1 1479.04 110.486   9
   6   0  -1 1563.03 109.272   7
   6   0  -1 1518.12 107.344  16
   6   0   0 18072.3 381.565  11
   6   0   0 17673.7 376.507   9
  -6   0   0 17869.0 759.247   2
   6   0   0 17994.9 369.082   7
   6   0   1 33846.6 537.422   9
  -6   0  -1 34927.4 1075.71   2
   6   0   1 33921.7 517.997   7
   6   0   2 35792.6 577.861   9
  -6   0  -2 36635.3 1131.71   2
   6   0   2 35736.7 556.325   7
  -6   0  -3 32139.1 1078.72   2
   6   0   3 29944.6 533.109   7
   6   0   4 9857.55 316.022   7
   6   0   5 2309.66 157.046   7
   6   0   6 946.586 104.555   7
   6   0   7 47.1916 38.6207   7
   6   0   8 112.822 46.6828   7
   6   0   9 1005.74 95.0489   7
   6   0  10 2115.48 113.828   7
   6   0  11 1138.58 66.3060   7
   6   1  -9 690.937 51.4812  11
   6   1  -8 2626.44 132.318  11
   6   1  -7 4132.25 187.310  11
   6   1  -6 850.206 99.6740  11
   6   1  -5 15978.0 406.686  11
   6   1  -4 7494.36 283.218  11
   6   1  -4 7877.93 280.745  16
   6   1  -3 221.839 61.7562  11
   6   1  -3 359.407 71.4912  16
   6   1  -2 11064.4 322.236  11
   6   1  -2 11309.5 601.537   3
   6   1  -2 11269.9 317.154  16
   6   1  -2 11302.7 312.650   7
   6   1  -1 25960.5 470.778  11
   6   1  -1 26233.3 862.915   3
  -6  -1   1 24587.4 844.946   2
   6   1  -1 25654.9 459.385  16
   6   1  -1 26299.8 471.002   7
   6   1   0 6513.08 225.857  11
   6   1   0 6225.76 206.812   9
  -6  -1   0 6449.10 440.223   2
   6   1   0 6357.32 220.861  16
   6   1   0 6831.26 239.807   7
   6   1   1 2277.71 132.449   9
  -6  -1  -1 2266.78 262.787   2
   6   1   1 2097.01 125.137  16
   6   1   1 2125.57 136.530   7
   6   1   2 53620.8 668.328   9
   6   1   2 54553.3 700.093   7
  -6  -1  -3 1599.86 239.472   2
   6   1   3 1480.72 123.193   7
   6   1   4 2029.85 146.840   7
  -6  -1  -4 1393.46 236.928   2
   6   1   5 25469.1 522.137   7
   6   1   6 15401.5 408.566   7
   6   1   7 3965.38 210.295   7
   6   1   8 337.995 67.0552   7
   6   1   9 10184.5 309.278   7
   6   1  10 1460.29 106.892   7
   6   1  11 72.6141 27.8954   7
   6   2  -8 193.484 46.4908  11
   6   2  -7 8276.80 260.997  11
   6   2  -6 28254.2 519.813  11
   6   2  -5 2273.28 159.080  11
   6   2  -4 30.7620 45.1844  11
   6   2  -4 122.413 59.4611  16
   6   2  -3 134.586 51.9148  11
   6   2  -3 388.289 75.4859  16
   6   2  -2 4639.75 390.616   3
   6   2  -2 4004.77 200.215  11
   6   2  -2 4281.59 202.897  16
   6   2  -2 4312.57 205.367   7
   6   2  -1 4296.86 363.644   3
   6   2  -1 4276.96 195.771  11
   6   2  -1 4310.49 198.351  16
   6   2  -1 4177.97 196.895   7
   6   2   0 135.380 42.2477   7
   6   2   0 274.505 54.9394  11
   6   2   0 171.176 49.8660  16
  -6  -2  -1 91738.0 1640.34   2
   6   2   1 90838.8 852.274  16
   6   2   1 92006.6 904.120   7
  -6  -2  -2 298.284 108.956   2
   6   2   2 431.117 56.3481   9
   6   2   2 479.412 67.6508  16
   6   2   2 560.913 79.9238   7
   6   2   3 11499.0 297.796  16
  -6  -2  -3 12358.0 645.610   2
   6   2   3 11732.8 336.581   7
   6   2   4 40752.9 647.907   7
   6   2   4 40276.9 548.590  16
   6   2   5 4871.06 230.313   7
   6   2   5 4441.90 193.037  14
   6   2   6 38.7596 39.3771   7
   6   2   6 64.9441 37.8541  14
   6   2   7 1113.94 116.633   7
   6   2   7 949.376 100.500  14
   6   2   8 7067.86 275.697   7
   6   2   9 214.486 59.2472   7
   6   2  10 2424.56 141.111   7
   6   2  11 8765.92 221.712   7
   6   2  12 818.703 53.5424   7
   6   3  -8 2517.59 114.874  11
   6   3  -7 16325.1 349.723  11
   6   3  -6 591.026 86.6490  11
   6   3  -5 6404.18 261.719  11
   6   3  -4 4944.46 236.260  11
   6   3  -4 5267.71 234.122  16
   6   3  -3 2640.11 174.672  11
   6   3  -3 2974.00 179.357  16
   6   3  -2 67590.8 819.519  16
   6   3  -2 66990.5 817.505  11
   6   3  -2 68141.4 831.135   7
   6   3  -1 51975.4 1303.14   3
   6   3  -1 52114.9 687.627  11
   6   3  -1 50715.3 695.151  16
   6   3  -1 51042.2 702.592   7
   6   3   0 55566.7 674.792  11
   6   3   0 55871.5 714.797  16
   6   3   0 54986.1 722.646   7
   6   3   1 9141.62 287.327  16
   6   3   1 9394.41 296.111   7
   6   3   2 5363.94 219.090  16
  -6  -3  -2 5745.35 407.058   2
   6   3   2 5306.42 225.830   7
   6   3   3 11511.2 319.130  16
  -6  -3  -3 11164.2 599.863   2
   6   3   3 11433.9 333.534   7
   6   3   4 3513.56 179.318  16
  -6  -3  -4 3784.51 362.659   2
   6   3   4 3546.31 190.660   7
   6   3   5 578.968 84.7081   7
   6   3   5 523.139 73.2530  16
   6   3   6 17315.0 424.902   7
   6   3   6 17417.2 379.609  16
   6   3   6 16932.5 384.029  14
   6   3   7 31720.7 574.295   7
   6   3   7 30258.4 533.623  14
   6   3   7 30418.0 480.016  16
   6   3   8 436.828 79.0393   7
   6   3   8 439.736 72.0764  14
   6   3   9 9632.65 300.546   7
   6   3   9 9188.11 285.519  14
   6   3  10 14567.4 336.602   7
   6   3  11 533.715 60.6391   7
   6   3  12 424.206 40.2520   7
   6   4  -7 3009.32 141.747  11
   6   4  -7 2748.38 109.584   6
   6   4  -6 3671.18 186.401  11
   6   4  -6 3381.74 139.095   6
   6   4  -5 1841.40 147.051  11
   6   4  -5 1708.47 106.423   6
   6   4  -4 1170.94 123.268  11
   6   4  -4 1275.94 118.734  16
   6   4  -3 3243.82 191.828  11
   6   4  -3 3471.60 190.614  16
   6   4  -2 30993.3 569.807  11
   6   4  -2 31616.2 566.834  16
   6   4  -1 99016.8 981.783  11
   6   4  -1 100433. 997.993  16
   6   4  -1 99044.0 995.566   7
   6   4   0 968.787 99.8985  11
   6   4   0 951.352 102.538  16
   6   4   0 933.255 104.971   7
   6   4   1 10097.1 278.668  11
   6   4   1 10656.5 319.286  16
   6   4   1 9911.11 315.070   7
   6   4   2 6206.41 245.398  16
   6   4   2 5956.74 243.071   7
   6   4   3 12833.1 354.869  16
   6   4   3 12478.0 348.292   7
   6   4   4 29822.1 544.644  16
   6   4   4 29170.7 536.916   7
   6   4   5 21740.0 459.550  16
   6   4   5 21562.5 465.515   7
   6   4   6 6079.89 240.430  16
   6   4   6 6241.00 225.300  14
   6   4   6 6256.85 251.996   7
   6   4   7 9315.35 306.163   7
   6   4   7 9020.33 281.939  14
   6   4   8 11596.7 336.626   7
   6   4   8 10670.7 308.119  14
   6   4   9 5516.54 221.607   7
   6   4   9 5046.56 207.900  14
   6   4  10 2857.69 146.087   7
   6   4  10 2641.21 140.344  14
   6   4  11 6219.14 181.728   7
   6   5  -7 2721.69 96.5661   6
   6   5  -6 813.152 86.2908  11
   6   5  -6 660.933 61.2025   6
   6   5  -5 74.2649 52.4859  11
   6   5  -5 41.0435 28.0336   6
   6   5  -4 3599.17 199.266  11
   6   5  -4 3322.65 152.961   6
   6   5  -4 3387.19 171.697  16
   6   5  -3 114.714 60.0467  11
   6   5  -3 143.419 42.1147   6
   6   5  -3 138.075 53.9518  16
   6   5  -2 3394.45 198.899  11
   6   5  -2 3398.15 186.470  16
   6   5  -1 12426.6 357.060  11
   6   5  -1 12702.6 352.949  16
   6   5  -1 12494.8 369.600   7
   6   5   0 157.831 59.5472   7
   6   5   0 139.609 55.1790  11
   6   5   0 103.845 44.1972  16
   6   5   1 2495.68 148.552  11
   6   5   1 2486.09 158.896  16
   6   5   1 2269.26 155.505   7
   6   5   2 1738.06 136.482  16
   6   5   2 1663.14 130.947   7
   6   5   3 17475.5 422.636  16
   6   5   3 17574.3 412.818   7
   6   5   4 34602.6 601.394  16
   6   5   4 33834.5 571.375   7
   6   5   5 7175.51 273.661  16
   6   5   5 6857.23 258.337   7
   6   5   6 19311.2 428.835   7
   6   5   7 13856.9 335.246  14
   6   5   7 14317.2 363.925   7
   6   5   8 2768.32 152.598  14
   6   5   8 2831.08 158.357   7
   6   5   9 4744.90 192.462  14
   6   5   9 4943.80 195.399   7
   6   5  10 3877.26 146.967  16
   6   5  10 4317.09 172.274  14
   6   5  10 4317.08 163.424   7
   6   5  11 2928.37 126.126  14
   6   5  11 2905.01 109.198   7
   6   6  -6 142.479 27.5957   6
   6   6  -5 706.225 84.6313  11
   6   6  -5 618.781 63.0362   6
   6   6  -4 98.6678 60.3167  11
   6   6  -4 70.3486 33.3706   6
   6   6  -3 248.118 73.2663  11
   6   6  -3 173.711 45.2497   6
   6   6  -3 72.3346 42.3403  16
   6   6  -2 18138.0 431.356  11
   6   6  -2 16930.8 353.445   6
   6   6  -2 17822.7 393.679  16
   6   6  -1 47.1662 58.0241  11
   6   6  -1 19.1808 30.7359   6
   6   6  -1 33.0454 38.5698  16
   6   6   0 1096.00 110.275  11
   6   6   0 1162.08 110.782  16
   6   6   1 6008.37 228.170  11
   6   6   1 6197.82 245.473  16
   6   6   1 6196.63 246.249   7
   6   6   2 2652.13 166.109  16
   6   6   2 2556.33 159.541   7
   6   6   3 472.557 72.8472   7
   6   6   3 447.804 75.2969  16
   6   6   4 1027.74 109.457  16
   6   6   4 1064.95 102.521   7
   6   6   5 23968.0 495.253  16
   6   6   5 23347.1 448.338   7
   6   6   6 2447.15 158.082  16
   6   6   6 2353.24 143.754   7
   6   6   7 1497.01 103.032  14
   6   6   7 1621.58 116.127   7
   6   6   8 16899.1 348.699  14
   6   6   8 17378.5 348.863   7
   6   6   9 869.840 80.9570  14
   6   6   9 823.448 71.8571   7
   6   6  10 2065.33 109.201  16
   6   6  10 2226.03 114.871  14
   6   6  11 11392.6 203.205  16
   6   6  11 12907.9 238.289  14
   6   7  -5 346.880 40.1737   6
   6   7  -4 131.926 33.2930   6
   6   7  -3 9278.85 242.425   6
   6   7  -2 597.233 87.1895  11
   6   7  -2 484.239 62.2846   6
   6   7  -2 538.304 69.6202  16
   6   7  -1 2145.72 148.893  11
   6   7  -1 2053.39 125.100   6
   6   7  -1 2116.38 131.823  16
   6   7   0 12571.3 335.897  11
   6   7   0 12272.9 302.226   6
   6   7   0 12821.6 328.008  16
   6   7   1 7024.95 228.373   6
   6   7   1 7538.03 258.682  16
   6   7   2 312.900 68.6008   7
   6   7   2 205.554 57.2213  16
   6   7   3 12383.4 341.568  16
   6   7   3 12519.3 315.835   7
   6   7   4 17404.9 406.119  16
   6   7   4 16543.9 353.662   7
   6   7   5 4213.74 203.125  16
   6   7   5 4218.33 174.042   7
   6   7   6 15940.3 385.664  16
   6   7   7 11876.8 322.998  16
   6   7   8 68.3300 35.3172  16
   6   7   8 121.526 32.5452  14
   6   7   9 3470.85 153.887  16
   6   7   9 3368.14 135.584  14
   6   7  10 13486.5 262.562  16
   6   7  10 13852.4 247.459  14
   6   7  11 1532.98 71.6609  16
   6   7  11 1514.89 69.4082  14
   6   8  -4 3914.31 112.854   6
   6   8  -3 954.050 70.3895   6
   6   8  -2 1529.31 96.2474   6
   6   8  -1 5317.52 185.657   6
   6   8  -1 5025.97 161.497  16
   6   8   0 1552.97 105.511   6
   6   8   0 1440.65 98.2916  16
   6   8   1 504.852 63.7839   6
   6   8   1 500.962 65.4469  16
   6   8   2 6427.47 211.877   6
   6   8   2 6650.81 224.891  16
   6   8   3 7408.85 222.824   6
   6   8   3 7862.69 247.605  16
   6   8   4 8287.22 258.302  16
   6   8   5 28171.2 471.983  16
   6   8   6 25447.1 441.780  16
   6   8   7-10.4001 32.9947  16
   6   8   8 6162.24 201.519  16
   6   8   9 8662.19 216.427  16
   6   8  10 468.480 46.5495  16
   6   9  -2 192.149 30.7339   6
   6   9  -1 25.4684 21.4708   6
   6   9   0 815.502 68.1282   6
   6   9   1 3112.44 132.100   6
   6   9   2 1328.42 88.6578   6
   6   9   2 1409.73 85.0956  16
   6   9   3 9140.32 225.656   6
   6   9   3 9410.74 225.401  16
   6   9   4 6957.82 190.766   6
   6   9   4 7408.98 205.014  16
   6   9   5 1943.04 96.0709   6
   6   9   5 2056.61 110.851  16
   6   9   6 1049.28 79.2771  16
   6   9   7 185.231 37.9837  16
   6   9   8 257.256 39.2147  16
   6   9   9 2492.31 94.8320  16
   6  10   1 231.258 32.2547   6
   6  10   2 5426.22 138.734   6
   6  10   3 375.359 40.5050   6
   6  10   4 250.038 32.7207   6
   7  -5  -4 33.1882 20.4766  11
   7  -5  -3 1660.01 85.2277  11
   7  -5  -2 2900.75 110.680  11
   7  -5  -1 313.630 37.3355  11
   7  -5   0 1938.70 95.2976   9
   7  -5   1 4750.76 139.619   9
   7  -5   2 61.7265 23.7962   9
   7  -4  -6 1075.79 64.4156  11
   7  -4  -5 947.205 71.6993  11
   7  -4  -4 2671.73 127.018  11
   7  -4  -3 70.9776 34.3028  11
   7  -4  -2 13644.5 295.633  11
   7  -4  -1 18255.7 329.769  11
   7  -4  -1 18736.8 351.591   9
   7  -4   0 16471.0 286.470  11
   7  -4   0 17676.5 341.278   9
   7  -4   1 43.8008 34.2605   9
   7  -4   2 6156.65 191.419   9
   7  -4   3 3248.36 132.303   9
   7  -4   4 90.1127 28.6308   9
   7  -3  -7 382.256 39.3386  11
   7  -3  -6 5873.33 173.805  11
   7  -3  -5 2350.17 124.666  11
   7  -3  -4 182.205 46.7126  11
   7  -3  -3 10954.6 289.491  11
   7  -3  -2 5393.11 205.177  11
   7  -3  -2 5742.95 211.190   9
   7  -3  -1 4118.14 177.848  11
   7  -3  -1 4305.04 187.639   9
   7  -3   0 852.000 76.3273  11
   7  -3   0 834.125 90.0311   9
   7  -3   1 1175.14 103.348   9
   7  -3   2 653.857 79.0547   9
   7  -3   3 5983.78 211.478   9
   7  -3   4 9386.62 250.446   9
   7  -3   5 23.7517 25.5756   9
   7  -3   6 855.907 61.8282   9
   7  -2  -7 5714.78 157.923  11
   7  -2  -6 2180.18 118.810  11
   7  -2  -5 483.451 68.2976  11
   7  -2  -4 15802.2 358.950  11
   7  -2  -3 3252.23 168.775  11
   7  -2  -3 3386.98 163.821   9
   7  -2  -2 1390.34 112.254  11
   7  -2  -2 1420.62 112.353   9
   7  -2  -1 32246.6 514.331  11
   7  -2  -1 33130.9 531.345   9
   7  -2   0 10118.6 274.907  11
   7  -2   0 10311.5 304.821   9
   7  -2   1 5289.35 220.608   9
   7  -2   2 19804.0 422.104   9
   7  -2   3 8678.52 278.697   9
   7  -2   4 2939.80 160.882   9
   7  -2   5 426.391 65.9939   9
   7  -2   6 2346.40 124.183   9
   7  -2   7 264.616 40.4152   9
   7  -2   8 28.0635 15.9043   9
   7  -1  -7 492.708 56.0739  11
   7  -1  -6 5122.34 187.847  11
   7  -1  -5 4444.77 192.563  11
   7  -1  -4 2968.04 164.127  11
   7  -1  -3 10091.4 300.843  11
   7  -1  -3 10023.2 273.080   9
   7  -1  -2 22898.8 451.086  11
   7  -1  -2 22740.6 425.301   9
   7  -1  -1 575.665 76.9209  11
   7  -1  -1 604.449 78.6911   9
   7  -1   0 16243.1 354.646  11
   7  -1   0 16856.2 386.452   9
   7  -1   1 18849.3 418.417   9
   7  -1   2 2499.44 157.912   9
   7  -1   3 11325.5 331.241   9
   7  -1   4 813.579 93.7489   9
   7  -1   5 15402.7 378.523   9
   7  -1   5 14373.3 307.320   7
   7  -1   6 1338.72 108.761   9
   7  -1   6 1161.78 86.2302   7
   7  -1   7 1761.06 112.237   9
   7  -1   7 1521.28 88.8716   7
   7  -1   8 6703.45 182.239   9
   7  -1   8 5182.50 132.694   7
   7  -1   9 846.029 51.2737   9
   7   0  -7 6024.17 179.531  11
   7   0  -6 6413.84 215.432  11
   7   0  -5 4696.30 201.321  11
   7   0  -4 21871.6 445.272  11
   7   0  -3 31127.9 537.523  11
   7   0  -2 766.456 90.9848  11
   7   0  -2 845.647 83.3980   9
   7   0  -1 34254.1 542.605  11
   7   0  -1 34195.8 515.866   9
   7   0   0 25250.4 445.701  11
   7   0   0 25468.7 460.567   9
   7   0   1 2099.82 139.782   9
   7   0   1 2157.07 131.963   7
   7   0   2 8587.68 284.704   9
   7   0   2 9045.08 273.900   7
   7   0   3 66.6768 36.6222   7
   7   0   3 26.3851 45.0458   9
   7   0   4 10560.4 328.777   9
   7   0   4 10335.5 306.121   7
   7   0   5 748.080 93.7344   9
   7   0   5 745.350 86.1113   7
   7   0   6 6297.27 244.118   9
   7   0   6 6174.20 225.808   7
   7   0   7 5554.34 213.673   9
   7   0   7 5414.59 198.726   7
   7   0   8 73.5846 31.5616   7
   7   0   8 130.544 36.5305   9
   7   0   9 4171.61 140.427   9
   7   0   9 3695.81 124.999   7
   7   1  -7 134.875 39.5744  11
   7   1  -6 5276.65 195.874  11
   7   1  -5 8287.85 268.948  11
   7   1  -4 9481.95 299.627  11
   7   1  -3 4600.44 213.247  11
   7   1  -2 23581.7 466.293  11
   7   1  -2 23174.6 446.844  16
   7   1  -1 1541.43 120.702  11
   7   1  -1 1500.81 114.967  16
   7   1  -1 1611.82 121.022   7
   7   1   0 3389.98 167.710  11
   7   1   0 3387.04 156.646   9
   7   1   0 3580.89 168.600  16
   7   1   0 3775.51 184.022   7
   7   1   1 8001.51 250.644   9
   7   1   1 8612.74 280.247   7
   7   1   2 9027.35 280.345   9
   7   1   2 9396.23 298.523   7
   7   1   3 3101.23 172.941   9
   7   1   3 3064.24 176.335   7
   7   1   4 3028.18 175.523   9
   7   1   4 3184.15 182.928   7
   7   1   5 18235.5 431.812   7
   7   1   6 27914.9 514.833   7
   7   1   7 910.719 97.7795   7
   7   1   8 8915.06 261.415   7
   7   1   9 2688.98 126.517   7
   7   1  10 12.4424 17.6660   7
   7   1  10 5.28475 17.4327   9
   7   2  -7 5520.94 168.135  11
   7   2  -6 1260.48 99.7131  11
   7   2  -5 22.1802 44.5841  11
   7   2  -4 9849.55 302.838  11
   7   2  -3 3153.00 176.257  11
   7   2  -3 3128.34 176.354  16
   7   2  -2 5159.89 222.544  11
   7   2  -2 5246.58 227.036  16
   7   2  -1 14148.1 356.542  11
   7   2  -1 14252.3 368.047  16
   7   2  -1 14312.0 369.410   7
   7   2   0 11658.1 309.676  11
   7   2   0 11757.8 326.736  16
   7   2   0 11844.9 339.620   7
   7   2   1 3742.26 182.308  16
   7   2   1 3886.26 196.400   7
   7   2   2 386.447 71.6133   7
   7   2   2 246.979 51.3820  16
   7   2   3 21392.8 414.769   9
   7   2   3 20873.4 464.561   7
   7   2   4 13112.0 345.704   9
   7   2   4 14300.2 388.712   7
   7   2   5 462.876 79.6797   7
   7   2   6 5452.54 235.294   7
   7   2   7 2342.66 152.880   7
   7   2   8 4201.45 188.462   7
   7   2   9 3073.08 145.689   7
   7   2  10 6932.40 181.903   7
   7   3  -7 31.8657 26.4786  11
   7   3  -6 1584.16 106.841  11
   7   3  -5 18231.4 385.197  11
   7   3  -4 4597.25 210.224  11
   7   3  -3 9980.09 310.916  11
   7   3  -3 10197.7 312.734  16
   7   3  -2 22640.7 463.555  11
   7   3  -2 22803.4 473.360  16
   7   3  -1 6381.44 243.056  11
   7   3  -1 6508.01 258.465  16
   7   3  -1 6393.53 256.211   7
   7   3   0 7883.80 257.941  11
   7   3   0 7826.87 279.191  16
   7   3   0 7999.00 287.216   7
   7   3   1 1108.43 107.054  16
   7   3   1 1094.00 110.540   7
   7   3   2 13233.0 353.331  16
   7   3   2 13136.2 368.685   7
   7   3   3 7737.85 264.787  16
   7   3   3 7699.63 283.193   7
   7   3   4 415.551 74.6245   7
   7   3   4 388.736 65.8848  16
   7   3   5 29236.6 467.720  16
   7   3   5 30073.9 557.475   7
   7   3   6 17394.0 416.867   7
   7   3   7 4683.52 215.067   7
   7   3   8 19542.0 404.065   7
   7   3   9 15638.8 327.870   7
   7   3  10 44.6784 26.8923   7
   7   4  -6 7658.58 203.591  11
   7   4  -5 68.1128 45.6268  11
   7   4  -4 8660.36 274.240  11
   7   4  -3 4416.64 206.000  11
   7   4  -3 4635.50 210.401  16
   7   4  -2 49.4938 49.6156  11
   7   4  -2 183.154 63.2518  16
   7   4  -1 16039.3 381.152  11
   7   4  -1 16372.6 407.442  16
   7   4  -1 16317.6 412.243   7
   7   4   0 219.778 61.7634   7
   7   4   0 169.612 46.5513  11
   7   4   0 197.390 53.6451  16
   7   4   1 21072.1 464.929  16
   7   4   1 21603.8 466.638   7
   7   4   2 867.164 100.972  16
   7   4   2 831.390 99.0191   7
   7   4   3 12678.9 354.920  16
   7   4   3 12441.7 358.949   7
   7   4   4 40674.8 616.068  16
   7   4   4 40310.7 634.964   7
   7   4   5 6615.73 241.886  16
   7   4   5 6513.17 255.798   7
   7   4   6 13369.2 323.599  16
   7   4   6 13349.3 357.938   7
   7   4   7 16573.6 332.006  16
   7   4   7 17527.7 394.243   7
   7   4   8 13972.4 332.143   7
   7   4   9 1078.48 87.5373   7
   7   4  10 7857.47 194.067   7
   7   5  -5 4531.41 167.566  11
   7   5  -4 2303.14 135.205  11
   7   5  -3 132.418 54.2182  11
   7   5  -3 74.3899 45.6608  16
   7   5  -2 4972.69 214.581  11
   7   5  -2 5304.46 219.241  16
   7   5  -1 32.0355 46.3815  11
   7   5  -1-21.5601 53.7626  16
   7   5   0 19123.8 395.882  11
   7   5   0 19429.0 436.043  16
   7   5   0 19622.7 442.560   7
   7   5   1 359.748 73.2452   7
   7   5   1 386.392 71.8794  16
   7   5   2 10630.5 330.097  16
   7   5   2 10614.5 324.904   7
   7   5   3 15284.9 392.619  16
   7   5   3 14759.8 377.917   7
   7   5   4 412.170 75.2993   7
   7   5   4 330.346 66.4466  16
   7   5   5 23871.9 469.609  16
   7   5   5 23836.2 464.262   7
   7   5   6 5893.10 223.265  16
   7   5   6 5816.18 226.467   7
   7   5   7 587.910 71.1602  16
   7   5   7 522.854 71.0759   7
   7   5   8 5263.73 178.702  16
   7   5   8 5606.39 197.541   7
   7   5   9 1724.39 84.9196  16
   7   5   9 1939.35 106.531   7
   7   5  10 49.6425 21.4232   7
   7   6  -4 2121.49 113.711  11
   7   6  -3 2981.82 149.852  11
   7   6  -2 3180.98 160.641  11
   7   6  -2 2992.75 150.199  16
   7   6  -1 580.915 77.5686  11
   7   6  -1 604.464 78.2906  16
   7   6   0 5277.33 201.048  11
   7   6   0 5328.95 221.063  16
   7   6   1 12453.9 340.086  16
   7   6   1 12253.8 338.865   7
   7   6   2 4283.80 202.782  16
   7   6   2 4211.81 196.873   7
   7   6   3 6742.50 255.852  16
   7   6   3 6771.94 245.052   7
   7   6   4 24468.5 475.012  16
   7   6   4 24125.1 447.456   7
   7   6   5 2043.93 137.382  16
   7   6   5 1888.25 124.824   7
   7   6   6 912.017 90.3992  16
   7   6   6 944.111 88.0404   7
   7   6   7 14021.7 319.296  16
   7   6   7 14847.9 310.925   7
   7   6   8 3143.61 138.594  16
   7   6   8 2962.05 129.228   7
   7   6   9 1214.02 74.9592  16
   7   6   9 1325.49 74.4807   7
   7   7  -2 1411.85 87.3837  16
   7   7  -1 3482.25 148.847  16
   7   7   0 5689.65 203.674  16
   7   7   1 190.648 52.4779  16
   7   7   2 8687.94 264.830  16
   7   7   3 8055.37 258.002  16
   7   7   3 8001.73 240.096   7
   7   7   4 4401.33 190.061  16
   7   7   4 4361.16 173.289   7
   7   7   5 12785.5 315.147  16
   7   7   5 12700.8 279.874   7
   7   7   6 14961.5 330.367  16
   7   7   6 15253.9 287.610   7
   7   7   7-26.5556 27.2006   7
   7   7   7-8.23117 26.0070  16
   7   7   8 4630.95 158.037  16
   7   7   9 6120.61 156.417  16
   7   8  -1 67.3072 26.3803  16
   7   8   0 6832.63 177.207  16
   7   8   1 14937.1 284.542  16
   7   8   2 2757.71 130.467  16
   7   8   3 5053.39 179.184  16
   7   8   4 3616.05 151.592  16
   7   8   5 5173.58 178.766  16
   7   8   6 6.18562 25.3665  16
   7   8   7 1540.88 89.9117  16
   7   8   8 3887.69 126.880  16
   7   9   2 2603.78 90.7789  16
   7   9   3 935.519 60.9309  16
   7   9   4 152.118 31.1957  16
   7   9   5 12476.1 220.337  16
   7   9   6 11073.3 199.379  16
   7   9   7 1233.52 63.4699  16
   8  -3   0 4317.90 141.367   9
   8  -3   1 1994.94 96.8537   9
   8  -3   2 2409.06 101.457   9
   8  -3   3 3651.53 114.092   9
   8  -2  -4 2992.41 111.113  11
   8  -2  -3 836.632 65.0780  11
   8  -2  -2 10389.3 218.428  11
   8  -2  -1 1204.11 74.1667  11
   8  -2  -1 1340.56 88.7089   9
   8  -2   0 3510.70 143.150   9
   8  -2   1 10490.8 248.415   9
   8  -2   2 127.348 39.5391   9
   8  -2   3 560.476 59.0607   9
   8  -2   4 556.296 54.4835   9
   8  -2   5 1243.50 69.0831   9
   8  -1  -5 498.678 48.4226  11
   8  -1  -4 3526.58 134.873  11
   8  -1  -3 12568.9 262.738  11
   8  -1  -2 468.346 56.8623  11
   8  -1  -1 8922.89 216.610  11
   8  -1  -1 9323.73 231.120   9
   8  -1   0 28914.5 423.415   9
   8  -1   1 3860.57 161.584   9
   8  -1   2 1393.66 99.5428   9
   8  -1   3 7145.24 216.075   9
   8  -1   4 4285.72 161.077   9
   8  -1   5 395.759 49.9779   9
   8  -1   6 784.036 58.9529   9
   8   0  -5 3055.71 120.197  11
   8   0  -4 2379.37 116.801  11
   8   0  -3 2500.05 125.844  11
   8   0  -2 9785.32 247.733  11
   8   0  -1 8187.92 221.603  11
   8   0  -1 8342.30 208.549   9
   8   0   0 39.0141 29.5886   9
   8   0   1 1019.07 86.4674   9
   8   0   2 3931.19 166.247   9
   8   0   3 3535.50 159.003   9
   8   0   4 3504.94 154.229   9
   8   0   4 3421.71 133.371   7
   8   0   5 9493.25 239.334   9
   8   0   5 9045.93 202.136   7
   8   0   6 6772.22 187.496   9
   8   0   6 5839.74 146.335   7
   8   0   7 816.493 59.1706   9
   8   1  -5 1663.97 92.1984  11
   8   1  -4 4390.75 162.046  11
   8   1  -3 12595.8 284.300  11
   8   1  -2 7444.82 222.534  11
   8   1  -1 2517.20 127.808  11
   8   1   0 10316.0 262.334   7
   8   1   1 9879.80 236.483   9
   8   1   1 10364.2 268.860   7
   8   1   2 1458.04 97.9494   9
   8   1   2 1359.58 103.766   7
   8   1   3 4091.84 166.286   9
   8   1   3 4303.26 178.108   7
   8   1   4 2933.78 140.536   9
   8   1   4 3001.24 147.307   7
   8   1   5 2609.54 129.753   9
   8   1   5 2643.94 133.761   7
   8   1   6 2548.73 121.769   9
   8   1   6 2513.12 120.612   7
   8   1   7 1703.51 91.2060   9
   8   1   7 1627.95 87.9252   7
   8   1   8 2816.84 97.2836   9
   8   1   8 2426.95 87.9357   7
   8   2  -5 4263.61 141.058  11
   8   2  -4 1913.03 108.901  11
   8   2  -3 107.000 39.3012  11
   8   2  -2 8514.06 239.542  11
   8   2  -1 4122.45 165.334  11
   8   2  -1 4103.96 171.194  16
   8   2   0 1747.77 112.690  16
   8   2   0 1795.99 123.269   7
   8   2   1 69.3976 41.3042   7
   8   2   1 66.2531 33.0625  16
   8   2   2 7348.92 247.615   7
   8   2   3 598.210 75.9987   7
   8   2   4 1165.50 84.3380   9
   8   2   4 1251.83 104.807   7
   8   2   5 6736.15 197.808   9
   8   2   5 6543.68 223.170   7
   8   2   6 14487.6 280.642   9
   8   2   6 15473.9 321.393   7
   8   2   7 1097.45 74.3180   9
   8   2   7 1273.94 88.6430   7
   8   2   8 2740.23 99.4131   9
   8   2   8 2702.61 110.297   7
   8   3  -5 1649.09 85.1238  11
   8   3  -4 788.815 70.3906  11
   8   3  -3 1254.54 92.6062  11
   8   3  -2 3799.55 159.609  11
   8   3  -1 1477.06 100.662  11
   8   3  -1 1650.34 117.494  16
   8   3   0 4737.61 194.454  16
   8   3   0 4882.80 204.396   7
   8   3   1 21105.6 402.524  16
   8   3   1 20966.1 425.323   7
   8   3   2 5.30672 45.4115   7
   8   3   2 66.4173 40.2541  16
   8   3   3 8971.40 241.244  16
   8   3   3 9172.48 281.752   7
   8   3   4 9584.07 282.122   7
   8   3   5 8040.77 250.315   7
   8   3   6 10.8144 33.5804   7
   8   3   7 2764.69 104.680   9
   8   3   7 3165.72 140.075   7
   8   3   8 3385.30 102.074   9
   8   3   8 3911.72 138.263   7
   8   3   9 760.936 52.3207   7
   8   4  -4 416.245 51.0524  11
   8   4  -3 6056.02 183.417  11
   8   4  -2 13690.4 286.002  11
   8   4  -2 14068.6 311.000  16
   8   4  -1 13624.6 285.188  11
   8   4  -1 13813.3 325.517  16
   8   4   0 8231.28 258.433  16
   8   4   1 511.910 75.2528  16
   8   4   1 630.668 82.8905   7
   8   4   2 3887.65 177.771  16
   8   4   2 3849.11 183.565   7
   8   4   3 5655.95 205.712  16
   8   4   3 5726.13 220.279   7
   8   4   4 5564.78 192.331  16
   8   4   4 5373.62 209.163   7
   8   4   5 4823.49 164.624  16
   8   4   5 4902.51 193.726   7
   8   4   6 19104.1 360.870   7
   8   4   7 8693.45 227.704   7
   8   4   8 3715.19 133.393   7
   8   4   9 10346.3 182.277   7
   8   5  -3 5155.31 151.919  11
   8   5  -2 29213.7 379.875  11
   8   5  -2 29117.3 407.680  16
   8   5  -1 17900.7 300.682  11
   8   5  -1 18065.9 348.778  16
   8   5   0 3558.76 166.224  16
   8   5   1 7811.38 248.910  16
   8   5   1 7931.61 252.137   7
   8   5   2 99.2090 46.6980   7
   8   5   2 76.7446 39.8595  16
   8   5   3 4127.64 176.765  16
   8   5   3 4100.73 179.169   7
   8   5   4 13833.8 309.198  16
   8   5   4 13327.8 312.793   7
   8   5   5 6824.42 204.620  16
   8   5   5 6828.80 217.665   7
   8   5   6 358.498 53.6373   7
   8   5   6 326.408 43.5638  16
   8   5   7 5204.46 135.813  16
   8   5   7 5911.09 176.785   7
   8   5   8 5804.20 153.660   7
   8   6  -1 2578.74 119.215  16
   8   6   0 1711.57 105.200  16
   8   6   1 14.8565 31.2488  16
   8   6   2 2142.55 123.838  16
   8   6   3 16579.1 334.191  16
   8   6   3 17045.1 332.031   7
   8   6   4 7916.42 225.705  16
   8   6   4 7871.92 220.063   7
   8   6   5 10.0128 27.5272   7
   8   6   5 56.7648 31.6253  16
   8   6   6 10810.3 229.947  16
   8   6   6 10940.3 232.291   7
   8   6   7 4638.33 132.268  16
   8   6   7 4934.70 141.236   7
   8   7   0 3539.63 124.373  16
   8   7   1 1173.98 78.9804  16
   8   7   2 1154.01 80.8199  16
   8   7   3-21.3536 28.5133  16
   8   7   4 697.603 63.7341  16
   8   7   5 5898.40 168.996  16
   8   7   5 5867.45 151.471   7
   8   7   6 572.034 52.0730  16
   8   7   6 473.665 41.8664   7
   8   7   7 2514.58 90.3404  16
   8   8   2 1455.38 70.0204  16
   8   8   3 2004.63 85.3402  16
   8   8   4 527.296 46.8111  16
   8   8   5 2010.55 82.3084  16
   9   2   3 1100.96 67.4145   7
   9   2   4 8664.04 172.704   7
   9   3   3 13341.5 247.445   7
   9   3   4 2636.39 107.386   7
   9   3   5 6039.63 149.303   7
   9   4   2 5460.68 129.259  16
   9   4   3 162.158 37.2202   7
   9   4   4 13960.7 244.917   7
   9   4   5 2331.52 94.5693   7
   9   5   1 1314.66 66.6557  16
   9   5   2 2445.86 90.0658  16
   9   5   4 592.739 50.4259   7
   9   5   5-2.67243 17.3448   7
   0   0   0    0.00    0.00   0
TITL rweB151g_ABS3 in P-1
REM P-1 (#2 in standard setting)
CELL 1.54184   7.540350   9.511196  11.633857  75.1085  82.4441  76.9943
ZERR    2.00   0.000287   0.000392   0.000554   0.0039   0.0035   0.0034
LATT  1
SFAC C H N O Cu
UNIT 34.00 28.00 8.00 2.00 2.00
TREF
HKLF 4
END
;
_shelx_hkl_checksum              67572
loop_
_space_group_symop_operation_xyz
'x, y, z'
'-x, -y, -z'
loop_
_atom_site_label
_atom_site_type_symbol
_atom_site_fract_x
_atom_site_fract_y
_atom_site_fract_z
_atom_site_U_iso_or_equiv
_atom_site_adp_type
_atom_site_occupancy
_atom_site_site_symmetry_order
_atom_site_calc_flag
_atom_site_refinement_flags_posn
_atom_site_refinement_flags_adp
_atom_site_refinement_flags_occupancy
C1 C 0.7385(3) 0.1951(3) 0.2377(2) 0.0308(5) Uani 1 1 d . . .
O1 O 0.062(2) 0.4691(16) -0.0193(13) 0.089(4) Uiso 0.25 1 d . . P
O2 O 0.371(2) 0.3709(17) 1.0345(13) 0.091(4) Uiso 0.25 1 d . . P
O3 O 0.423(3) 0.485(3) 1.005(2) 0.134(6) Uiso 0.25 1 d . . P
O4 O 0.175(3) 0.454(2) -0.0134(16) 0.107(5) Uiso 0.25 1 d . . P
Cu1 Cu 0.34746(4) 0.27385(4) 0.35226(3) 0.03301(18) Uani 1 1 d . . .
N2 N 1.1696(3) 0.1921(3) 0.2990(2) 0.0388(5) Uani 1 1 d . . .
N1 N 0.5903(3) 0.2326(3) 0.2743(2) 0.0378(5) Uani 1 1 d . . .
N4 N 0.3766(3) 0.2646(2) 0.52910(18) 0.0316(4) Uani 1 1 d . . .
C12 C 0.3254(3) 0.3961(3) 0.5599(2) 0.0331(5) Uani 1 1 d . . .
N3 N 0.2283(3) 0.4900(2) 0.3621(2) 0.0359(5) Uani 1 1 d . U .
C2 C 1.0551(3) 0.1737(3) 0.2504(2) 0.0319(5) Uani 1 1 d . . .
C4 C 0.9588(3) 0.0774(3) 0.0932(2) 0.0271(5) Uani 1 1 d . . .
C5 C 0.8210(3) 0.0380(3) 0.0450(2) 0.0298(5) Uani 1 1 d . . .
H5 H 0.6975 0.0641 0.0745 0.036 Uiso 1 1 calc R U .
C6 C 1.1377(3) 0.0385(3) 0.0451(2) 0.0300(5) Uani 1 1 d . . .
H6 H 1.2337 0.0651 0.0749 0.036 Uiso 1 1 calc R U .
C11 C 0.2333(3) 0.5197(3) 0.4694(2) 0.0354(5) Uani 1 1 d . U .
C3 C 0.9173(3) 0.1503(3) 0.1929(2) 0.0308(5) Uani 1 1 d . . .
C16 C 0.4586(4) 0.1462(3) 0.6087(3) 0.0420(6) Uani 1 1 d . . .
H16 H 0.4939 0.0538 0.5867 0.050 Uiso 1 1 calc R U .
C13 C 0.3593(4) 0.4090(4) 0.6717(3) 0.0485(7) Uani 1 1 d . . .
H13 H 0.3251 0.5023 0.6924 0.058 Uiso 1 1 calc R U .
C10 C 0.1528(4) 0.6574(3) 0.4918(3) 0.0506(8) Uani 1 1 d . U .
H10 H 0.1600 0.6762 0.5673 0.061 Uiso 1 1 calc R U .
C7 C 0.1390(4) 0.5966(3) 0.2782(3) 0.0497(7) Uani 1 1 d . U .
H7 H 0.1331 0.5772 0.2028 0.060 Uiso 1 1 calc R U .
C15 C 0.4941(4) 0.1517(4) 0.7198(3) 0.0499(7) Uani 1 1 d . . .
H15 H 0.5526 0.0653 0.7733 0.060 Uiso 1 1 calc R U .
C14 C 0.4431(5) 0.2850(4) 0.7519(3) 0.0545(8) Uani 1 1 d . . .
H14 H 0.4651 0.2921 0.8285 0.065 Uiso 1 1 calc R U .
C8 C 0.0533(4) 0.7371(4) 0.2986(4) 0.0627(10) Uani 1 1 d . U .
H8 H -0.0108 0.8107 0.2382 0.075 Uiso 1 1 calc R U .
C9 C 0.0636(4) 0.7655(4) 0.4054(4) 0.0606(9) Uani 1 1 d . U .
H9 H 0.0089 0.8602 0.4200 0.073 Uiso 1 1 calc R U .
loop_
_atom_site_aniso_label
_atom_site_aniso_U_11
_atom_site_aniso_U_22
_atom_site_aniso_U_33
_atom_site_aniso_U_23
_atom_site_aniso_U_13
_atom_site_aniso_U_12
C1 0.0246(13) 0.0410(12) 0.0359(12) -0.0233(10) -0.0019(9) -0.0086(9)
Cu1 0.0188(2) 0.0467(3) 0.0422(3) -0.02737(18) -0.00068(16) -0.00582(16)
N2 0.0213(10) 0.0593(13) 0.0482(12) -0.0365(11) 0.0009(9) -0.0080(9)
N1 0.0220(11) 0.0557(13) 0.0476(12) -0.0343(10) 0.0021(9) -0.0095(9)
N4 0.0226(10) 0.0402(11) 0.0390(10) -0.0206(9) 0.0003(8) -0.0088(8)
C12 0.0235(12) 0.0453(13) 0.0404(12) -0.0250(10) 0.0080(9) -0.0161(10)
N3 0.0209(10) 0.0400(11) 0.0492(12) -0.0145(9) 0.0003(8) -0.0081(8)
C2 0.0220(12) 0.0420(12) 0.0379(12) -0.0245(10) 0.0041(9) -0.0056(9)
C4 0.0200(11) 0.0351(11) 0.0306(11) -0.0153(9) -0.0007(8) -0.0063(9)
C5 0.0161(10) 0.0429(13) 0.0360(11) -0.0203(10) 0.0008(8) -0.0062(9)
C6 0.0176(11) 0.0434(12) 0.0362(12) -0.0205(10) -0.0021(9) -0.0078(9)
C11 0.0221(12) 0.0399(12) 0.0516(14) -0.0247(11) 0.0118(10) -0.0134(10)
C3 0.0192(11) 0.0428(12) 0.0376(12) -0.0222(10) 0.0003(9) -0.0078(9)
C16 0.0317(14) 0.0493(15) 0.0471(14) -0.0150(12) -0.0038(11) -0.0077(11)
C13 0.0437(16) 0.0659(18) 0.0539(16) -0.0388(15) 0.0113(13) -0.0281(14)
C10 0.0355(15) 0.0423(15) 0.080(2) -0.0310(14) 0.0175(14) -0.0132(12)
C7 0.0296(14) 0.0497(16) 0.0657(18) -0.0020(13) -0.0072(12) -0.0107(12)
C15 0.0378(16) 0.070(2) 0.0443(15) -0.0101(14) -0.0066(12) -0.0169(14)
C14 0.0473(18) 0.088(2) 0.0387(14) -0.0213(15) -0.0010(12) -0.0300(16)
C8 0.0274(15) 0.0437(16) 0.103(3) 0.0075(17) -0.0041(16) -0.0078(12)
C9 0.0348(16) 0.0417(15) 0.105(3) -0.0255(16) 0.0127(16) -0.0085(12)
loop_
_atom_type_symbol
_atom_type_description
_atom_type_scat_dispersion_real
_atom_type_scat_dispersion_imag
_atom_type_scat_source
C C 0.0181 0.0091 'International Tables Vol C Tables 4.2.6.8 and 6.1.1.4'
H H 0.0000 0.0000 'International Tables Vol C Tables 4.2.6.8 and 6.1.1.4'
O O 0.0492 0.0322 'International Tables Vol C Tables 4.2.6.8 and 6.1.1.4'
Cu Cu -1.9646 0.5888 'International Tables Vol C Tables 4.2.6.8 and 6.1.1.4'
N N 0.0311 0.0180 'International Tables Vol C Tables 4.2.6.8 and 6.1.1.4'
loop_
_geom_angle_atom_site_label_1
_geom_angle_atom_site_label_2
_geom_angle_atom_site_label_3
_geom_angle
_geom_angle_site_symmetry_1
_geom_angle_site_symmetry_3
N1 C1 C3 179.7(3) . .
O4 O1 O1 137(3) . 2_565
O4 O1 O4 155.6(19) . 2_565
O1 O1 O4 18.6(14) 2_565 2_565
O3 O2 O4 90.2(15) . 1_556
O2 O3 O3 133(3) . 2_667
O1 O4 O2 158(2) . 1_554
O1 O4 O1 24.4(19) . 2_565
O2 O4 O1 148.7(13) 1_554 2_565
N2 Cu1 N1 114.26(8) 1_455 .
N2 Cu1 N4 124.91(9) 1_455 .
N1 Cu1 N4 107.42(9) . .
N2 Cu1 N3 107.81(9) 1_455 .
N1 Cu1 N3 119.60(9) . .
N4 Cu1 N3 78.99(9) . .
C2 N2 Cu1 165.0(2) . 1_655
C1 N1 Cu1 172.8(2) . .
C16 N4 C12 118.6(2) . .
C16 N4 Cu1 126.23(18) . .
C12 N4 Cu1 114.75(17) . .
N4 C12 C13 120.5(3) . .
N4 C12 C11 115.5(2) . .
C13 C12 C11 124.0(2) . .
C7 N3 C11 118.0(3) . .
C7 N3 Cu1 127.2(2) . .
C11 N3 Cu1 114.61(18) . .
N2 C2 C3 179.4(3) . .
C6 C4 C5 117.1(2) . .
C6 C4 C3 121.6(2) . .
C5 C4 C3 121.3(2) . .
C6 C5 C4 121.1(2) 2_755 .
C5 C6 C4 121.9(2) 2_755 .
N3 C11 C10 121.6(3) . .
N3 C11 C12 115.6(2) . .
C10 C11 C12 122.8(3) . .
C2 C3 C1 116.6(2) . .
C2 C3 C4 121.6(2) . .
C1 C3 C4 121.8(2) . .
N4 C16 C15 123.6(3) . .
C14 C13 C12 119.5(3) . .
C9 C10 C11 119.8(3) . .
N3 C7 C8 121.8(3) . .
C16 C15 C14 118.3(3) . .
C15 C14 C13 119.5(3) . .
C9 C8 C7 119.2(3) . .
C8 C9 C10 119.5(3) . .
loop_
_geom_bond_atom_site_label_1
_geom_bond_atom_site_label_2
_geom_bond_distance
_geom_bond_site_symmetry_2
C1 N1 1.153(3) .
C1 C3 1.393(3) .
O1 O4 0.84(2) .
O1 O1 1.09(3) 2_565
O1 O4 1.80(3) 2_565
O2 O3 1.19(2) .
O2 O4 1.61(2) 1_556
O3 O3 1.24(4) 2_667
O4 O2 1.61(2) 1_554
O4 O1 1.80(3) 2_565
Cu1 N2 1.929(2) 1_455
Cu1 N1 1.937(2) .
Cu1 N4 2.075(2) .
Cu1 N3 2.076(2) .
N2 C2 1.159(3) .
N2 Cu1 1.929(2) 1_655
N4 C16 1.345(4) .
N4 C12 1.348(3) .
C12 C13 1.398(4) .
C12 C11 1.470(4) .
N3 C7 1.339(4) .
N3 C11 1.355(4) .
C2 C3 1.393(3) .
C4 C6 1.397(3) .
C4 C5 1.404(3) .
C4 C3 1.464(3) .
C5 C6 1.389(3) 2_755
C6 C5 1.389(3) 2_755
C11 C10 1.388(4) .
C16 C15 1.370(4) .
C13 C14 1.384(5) .
C10 C9 1.363(6) .
C7 C8 1.412(5) .
C15 C14 1.371(5) .
C8 C9 1.352(6) .
loop_
_geom_torsion_atom_site_label_1
_geom_torsion_atom_site_label_2
_geom_torsion_atom_site_label_3
_geom_torsion_atom_site_label_4
_geom_torsion
C1 C3 C4 C5 -5.6(4)
C2 C3 C4 C6 -5.1(4)
