#------------------------------------------------------------------------------
#$Date: 2015-06-04 06:07:58 +0300 (Thu, 04 Jun 2015) $
#$Revision: 137793 $
#$URL: svn://www.crystallography.net/cod/cif/4/51/30/4513077.cif $
#------------------------------------------------------------------------------
#
# This file is available in the Crystallography Open Database (COD),
# http://www.crystallography.net/
#
# All data on this site have been placed in the public domain by the
# contributors.
#
data_4513077
loop_
_publ_author_name
'Yutronkie, Nathan J.'
'Leitch, Alicea A.'
'Korobkov, Ilia'
'Brusso, Jaclyn L.'
_publ_section_title
;
 1,2,4,6-Thiatriazinyl Radicals and Dimers: Structural and Electronic
 Tuning through Heteroaromatic Substituent Modification
;
_journal_issue                   5
_journal_name_full               'Crystal Growth &amp; Design'
_journal_page_first              2524
_journal_paper_doi               10.1021/acs.cgd.5b00296
_journal_volume                  15
_journal_year                    2015
_chemical_formula_sum            'C10 H7 N3 O S3'
_chemical_formula_weight         281.37
_chemical_name_systematic
; 
 ? 
;
_space_group_crystal_system      monoclinic
_space_group_IT_number           4
_space_group_name_Hall           'P 2yb'
_space_group_name_H-M_alt        'P 1 21 1'
_symmetry_space_group_name_Hall  'P 2yb'
_symmetry_space_group_name_H-M   'P 1 21 1'
_atom_sites_solution_hydrogens   geom
_audit_creation_method           SHELXL-2013
_cell_angle_alpha                90
_cell_angle_beta                 91.627(4)
_cell_angle_gamma                90
_cell_formula_units_Z            2
_cell_length_a                   9.3997(12)
_cell_length_b                   4.2844(5)
_cell_length_c                   14.2053(16)
_cell_measurement_reflns_used    3032
_cell_measurement_temperature    200(2)
_cell_measurement_theta_max      28.13
_cell_measurement_theta_min      2.57
_cell_volume                     571.85(12)
_computing_cell_refinement       'APEX II, Bruker (2009)'
_computing_data_collection       'APEX II, Bruker (2009)'
_computing_data_reduction        'XPREP, Bruker (2009)'
_computing_molecular_graphics    'SHELXTL, Bruker (2004)'
_computing_publication_material  'SHELXTL, Bruker (2004)'
_computing_structure_refinement  'SHELXL-2013 (Sheldrick, 2013)'
_computing_structure_solution    'SHELXS-03 (Sheldrick, 2003)'
_diffrn_ambient_temperature      200(2)
_diffrn_measured_fraction_theta_full 0.993
_diffrn_measured_fraction_theta_max 0.989
_diffrn_measurement_device_type  'Bruker APEX-II CCD'
_diffrn_measurement_method       '\f and \w scans'
_diffrn_radiation_type           MoK\a
_diffrn_radiation_wavelength     0.71073
_diffrn_reflns_av_R_equivalents  0.0249
_diffrn_reflns_av_unetI/netI     0.0458
_diffrn_reflns_laue_measured_fraction_full 0.993
_diffrn_reflns_laue_measured_fraction_max 0.989
_diffrn_reflns_limit_h_max       12
_diffrn_reflns_limit_h_min       -12
_diffrn_reflns_limit_k_max       5
_diffrn_reflns_limit_k_min       -5
_diffrn_reflns_limit_l_max       17
_diffrn_reflns_limit_l_min       -18
_diffrn_reflns_number            5493
_diffrn_reflns_point_group_measured_fraction_full 0.995
_diffrn_reflns_point_group_measured_fraction_max 0.991
_diffrn_reflns_theta_full        25.242
_diffrn_reflns_theta_max         28.276
_diffrn_reflns_theta_min         1.434
_exptl_absorpt_coefficient_mu    0.632
_exptl_absorpt_correction_T_max  0.7457
_exptl_absorpt_correction_T_min  0.6287
_exptl_absorpt_correction_type   multi-scan
_exptl_absorpt_process_details   'SADABS, Bruker (2003)'
_exptl_crystal_colour            colourless
_exptl_crystal_density_diffrn    1.634
_exptl_crystal_density_meas      ?
_exptl_crystal_description       plate
_exptl_crystal_F_000             288
_exptl_crystal_size_max          0.250
_exptl_crystal_size_mid          0.120
_exptl_crystal_size_min          0.010
_refine_diff_density_max         0.298
_refine_diff_density_min         -0.320
_refine_diff_density_rms         0.061
_refine_ls_abs_structure_details
; 
 Refined as an inversion twin. 
;
_refine_ls_abs_structure_Flack   0.07(13)
_refine_ls_extinction_method     none
_refine_ls_goodness_of_fit_ref   1.089
_refine_ls_hydrogen_treatment    constr
_refine_ls_matrix_type           full
_refine_ls_number_parameters     191
_refine_ls_number_reflns         2617
_refine_ls_number_restraints     394
_refine_ls_restrained_S_all      1.038
_refine_ls_R_factor_all          0.0616
_refine_ls_R_factor_gt           0.0419
_refine_ls_shift/su_max          0.000
_refine_ls_shift/su_mean         0.000
_refine_ls_structure_factor_coef Fsqd
_refine_ls_weighting_details
'w=1/[\s^2^(Fo^2^)+(0.0440P)^2^+0.0318P] where P=(Fo^2^+2Fc^2^)/3'
_refine_ls_weighting_scheme      calc
_refine_ls_wR_factor_gt          0.0841
_refine_ls_wR_factor_ref         0.0925
_reflns_Friedel_coverage         0.772
_reflns_friedel_fraction_full    0.997
_reflns_friedel_fraction_max     0.993
_reflns_number_gt                2116
_reflns_number_total             2617
_reflns_threshold_expression     'I > 2\s(I)'
_cod_data_source_file            cg5b00296_si_006.cif
_cod_data_source_block           jb023
_cod_depositor_comments
;
The following automatic conversions were performed:

'_exptl_crystal_density_meas' value 'n/a' was changed to '?' - the
value is perceived as not measured.

Automatic conversion script
Id: cif_fix_values 3271 2015-04-21 07:52:19Z andrius 
;
_cod_database_code               4513077
_shelx_space_group_comment
; 
The symmetry employed for this shelxl refinement is uniquely defined 
by the following loop, which should always be used as a source of 
symmetry information in preference to the above space-group names. 
They are only intended as comments. 
;
_shelx_estimated_absorpt_t_min   0.858
_shelx_estimated_absorpt_t_max   0.994
_shelxl_version_number           2013-4
_shelx_res_file
; 
TITL jb023 in P2(1) 
CELL 0.71073   9.39970   4.28440  14.20530  90.0000  91.6269  90.0000 
ZERR    2.00   0.00120   0.00050   0.00160   0.0000   0.0043   0.0000 
LATT -1 
SYMM -X, 0.5+Y, -Z 
SFAC C H N O S 
UNIT 20 14 6 2 6 
TEMP -73.150 
SIZE 0.01 0.12 0.25 
  
L.S. 80 
ACTA 
CONF 
LIST 0 
BOND 
FMAP 2 
PLAN 5 
  
TWIN 
  
SIMU 
RIGU 
OMIT     0   5   1 
OMIT     0   0   7 
OMIT    -2   0   4 
OMIT    -3  -3   8 
OMIT    -1   0   4 
OMIT   -11  -1   2 
OMIT    -2  -2  17 
OMIT     8   0  11 
OMIT     7  -3   6 
OMIT    -3   3   8 
OMIT     3   3  14 
OMIT    -1   0   6 
OMIT     0   5   3 
OMIT     4   2  14 
OMIT     7   1  14 
OMIT     9  -1   3 
OMIT    -8  -2   6 
OMIT    -2  -3  11 
OMIT    -1  -4   5 
OMIT   -10  -1   8 
  
WGHT    0.044000    0.031800 
BASF   0.06873 
FVAR       0.32714 
S1    5    0.372524    0.269562    0.895622    11.00000    0.04346    0.03019 = 
         0.03054    0.00270   -0.00715   -0.00599 
N1    3    0.525455    0.631284    0.745179    11.00000    0.03191    0.03448 = 
         0.02729   -0.00056   -0.01232    0.00078 
N2    3    0.550172    0.314808    0.879140    11.00000    0.03532    0.04110 = 
         0.03221    0.00649   -0.01117    0.00961 
AFIX  43 
H2A   2    0.610439    0.199730    0.912582    11.00000   -1.20000 
AFIX   0 
N3    3    0.313929    0.350553    0.788197    11.00000    0.03267    0.04385 = 
         0.02838   -0.00335   -0.00857   -0.00476 
  
O1    4    0.329810    0.527449    0.956685    11.00000    0.03967    0.04633 = 
         0.02861   -0.00395   -0.00197   -0.00076 
C1    1    0.601747    0.518953    0.817191    11.00000    0.03115    0.02893 = 
         0.02757   -0.00717   -0.00796    0.00636 
C2    1    0.389747    0.522484    0.732571    11.00000    0.02998    0.02810 = 
         0.02751   -0.00949   -0.00800    0.00221 
C3    1    0.749863    0.613371    0.826432    11.00000    0.02784    0.04314 = 
         0.02977   -0.01107   -0.00725    0.00743 
C4    1    0.849063    0.542244    0.898373    11.00000    0.03650    0.05831 = 
         0.03219   -0.00855   -0.01168    0.01359 
AFIX  43 
H4A   2    0.827860    0.423349    0.952654    11.00000   -1.20000 
AFIX   0 
C5    1    0.982052    0.665788    0.881109    11.00000    0.03202    0.08108 = 
         0.05034   -0.02469   -0.01447    0.01246 
AFIX  43 
H5A   2    1.062777    0.636530    0.921914    11.00000   -1.20000 
AFIX   0 
C6    1    0.985278    0.830589    0.801092    11.00000    0.02954    0.07966 = 
         0.05862   -0.02687    0.00426   -0.00425 
AFIX  43 
H6A   2    1.067861    0.933675    0.779795    11.00000   -1.20000 
AFIX   0 
S2    5    0.824980    0.835493    0.741463    11.00000    0.03730    0.06763 = 
         0.04008   -0.00451   -0.00294   -0.00624 
C7    1    0.324033    0.606807    0.641208    11.00000    0.02974    0.03727 = 
         0.02659   -0.00762   -0.01063    0.00675 
PART   1 
SAME C4 > S2 
C8    1    0.381557    0.768398    0.568185    10.61000    0.05912    0.07868 = 
         0.05611    0.01190   -0.01188   -0.00875 
AFIX  43 
H8A   2    0.475219    0.851380    0.572798    10.61000   -1.20000 
AFIX   0 
C9    1    0.297653    0.805309    0.487772    10.61000    0.04056    0.06046 = 
         0.03454   -0.00113   -0.00586    0.00999 
AFIX  43 
H9A   2    0.324084    0.917003    0.433205    10.61000   -1.20000 
AFIX   0 
C10   1    0.171075    0.656999    0.498624    10.61000    0.03880    0.05792 = 
         0.02085   -0.00404   -0.01561    0.01428 
AFIX  43 
H10A  2    0.097901    0.650285    0.451142    10.61000   -1.20000 
AFIX   0 
S3    5    0.156952    0.479874    0.609068    10.61000    0.02605    0.06426 = 
         0.02892   -0.01172   -0.01213    0.00033 
PART   2 
SAME C4 > S2 
C8'   1    0.186179    0.509109    0.605630    10.39000    0.02904    0.05122 = 
         0.03168   -0.00629   -0.00936    0.00287 
AFIX  43 
H8B   2    0.120979    0.387856    0.640116    10.39000   -1.20000 
AFIX   0 
C9'   1    0.161528    0.612940    0.516329    10.39000    0.04698    0.06122 = 
         0.04522   -0.00609   -0.01133    0.00718 
AFIX  43 
H9B   2    0.078542    0.566304    0.479250    10.39000   -1.20000 
AFIX   0 
C10'  1    0.270852    0.792065    0.486883    10.39000    0.04708    0.06368 = 
         0.02075    0.00123   -0.01900    0.00648 
AFIX  43 
H10B  2    0.271250    0.888977    0.426741    10.39000   -1.20000 
AFIX   0 
S3'   5    0.409189    0.827390    0.568958    10.39000    0.04956    0.05302 = 
         0.03006    0.00335   -0.00354    0.01180 
PART   0 
  
HKLF 4 
  
REM  jb023 in P2(1) 
REM R1 =  0.0419 for    2116 Fo > 4sig(Fo)  and  0.0616 for all    2617 data 
REM    191 parameters refined using    394 restraints 
  
END 
  
WGHT      0.0427      0.0669 
  
REM Highest difference peak  0.298,  deepest hole -0.320,  1-sigma level  0.061 
Q1    1   0.1790  0.5750  0.6404  11.00000  0.05    0.30 
Q2    1   0.3362  0.3369  0.8412  11.00000  0.05    0.28 
Q3    1   0.3599  0.4792  0.8962  11.00000  0.05    0.28 
Q4    1   0.1309  0.4612  0.6226  11.00000  0.05    0.28 
Q5    1   0.3639  0.0474  0.8951  11.00000  0.05    0.26 
;
_shelx_res_checksum              51139
_shelx_hkl_file
; 
   1   0   0  136.34    2.77 
   1   0   0  130.24    2.72 
  -1   0   0  135.65    2.77 
  -1   0   0  136.00    2.72 
  -2   0   0   60.97    1.30 
  -2   0   0   60.65    1.34 
   2   0   0   60.13    1.28 
   2   0   0   59.88    1.34 
   3   0   0    3.88    0.51 
  -3   0   0    2.43    0.37 
   4   0   0  139.61    2.95 
   5   0   0   97.63    2.23 
   6   0   0  135.98    3.03 
   7   0   0   12.30    1.04 
   8   0   0    0.25    0.71 
  -9   0   0   25.82    1.06 
   9   0   0   25.90    1.30 
  10   0   0    1.36    0.76 
 -10   0   0    0.71    0.43 
  11   0   0    1.68    0.82 
 -11   0   0    1.22    0.49 
  12   0   0    4.35    0.99 
   0  -1   0   -0.30    0.27 
   0  -1   0   -0.18    0.18 
   0   1   0   -0.02    0.25 
   0   1   0   -0.19    0.17 
  -1  -1   0  185.95    3.71 
  -1  -1   0  180.28    3.93 
  -1  -1   0  183.51    3.67 
  -1   1   0  187.03    3.81 
  -1   1   0  191.08    3.71 
   1   1   0  187.32    3.73 
   1   1   0  185.44    3.65 
   1   1   0  182.43    3.76 
  -1   1   0  186.39    3.55 
   1   1   0  191.76    3.88 
  -2  -1   0   25.19    0.81 
   2  -1   0   25.24    0.69 
  -2  -1   0   25.30    0.66 
  -2  -1   0   23.64    0.61 
  -2   1   0   23.08    0.62 
   2   1   0   24.66    0.65 
  -2   1   0   24.65    0.70 
   2   1   0   23.44    0.72 
   3  -1   0    5.15    0.50 
  -3  -1   0    5.05    0.43 
  -3   1   0    4.53    0.49 
   3   1   0    4.75    0.50 
  -3   1   0    4.57    0.39 
   3   1   0    4.98    0.39 
   4  -1   0    5.29    0.63 
  -4  -1   0    6.21    0.50 
  -4   1   0    4.32    0.50 
   4   1   0    5.05    0.60 
   5  -1   0  143.96    3.19 
  -5  -1   0  148.72    3.00 
   5   1   0  147.81    3.21 
  -5   1   0  153.56    3.14 
  -6  -1   0   29.25    0.97 
   6  -1   0   29.62    1.17 
  -6   1   0   29.36    1.04 
   6   1   0   29.22    1.15 
   7  -1   0   33.92    1.34 
  -7  -1   0   32.23    1.07 
  -7   1   0   32.16    1.20 
   7   1   0   31.84    1.31 
   8  -1   0    1.06    0.70 
  -8  -1   0    1.23    0.40 
   8   1   0    1.63    0.67 
   9  -1   0   11.39    1.16 
  -9  -1   0   11.41    0.80 
   9   1   0   10.45    1.11 
 -10  -1   0    7.51    0.84 
  10  -1   0    6.64    1.20 
  10   1   0    7.31    1.14 
 -11  -1   0    1.28    0.48 
  11   1   0    2.54    0.83 
  12   1   0   -0.50    0.85 
   0  -2   0   23.62    0.91 
   0  -2   0   24.22    0.72 
   0   2   0   23.46    0.86 
   0   2   0   23.39    0.66 
   0   2   0   24.03    0.59 
   0   2   0   23.39    0.69 
   1  -2   0   15.18    0.60 
  -1  -2   0   14.88    0.58 
  -1  -2   0   14.83    0.80 
   1   2   0   15.38    0.45 
   1   2   0   15.43    0.59 
   1   2   0   15.52    0.76 
  -1   2   0   15.37    0.75 
   1   2   0   15.27    0.58 
  -1   2   0   15.65    0.58 
  -1   2   0   15.63    0.48 
  -1   2   0   14.81    0.50 
  -2  -2   0   12.25    0.58 
  -2  -2   0   12.51    0.77 
   2   2   0   13.15    0.56 
   2   2   0   13.29    0.63 
  -2   2   0   12.59    0.48 
  -2   2   0   12.00    0.75 
   2   2   0   12.20    0.77 
  -2   2   0   13.24    0.52 
  -2   2   0   12.41    0.56 
   2   2   0   12.85    0.45 
  -3  -2   0   17.09    0.67 
  -3  -2   0   16.41    0.84 
  -3  -2   0   15.99    0.51 
  -3   2   0   16.65    0.67 
  -3   2   0   16.25    0.66 
   3   2   0   17.00    0.65 
  -3   2   0   16.50    0.59 
   3   2   0   17.06    0.76 
   4  -2   0    8.91    0.68 
  -4  -2   0    8.28    0.85 
  -4  -2   0    8.74    0.47 
  -4  -2   0    9.70    0.61 
  -4   2   0    9.68    0.59 
   4   2   0    9.50    0.75 
  -4   2   0    8.28    0.67 
  -5  -2   0   20.01    0.84 
   5  -2   0   19.61    0.95 
  -5  -2   0   18.93    1.15 
  -5  -2   0   19.17    0.71 
  -5   2   0   18.67    0.84 
   5   2   0   19.18    1.00 
  -6  -2   0    2.69    0.42 
  -6  -2   0    2.64    0.59 
  -6  -2   0    2.42    0.40 
   6  -2   0    2.20    0.63 
  -6   2   0    2.26    0.55 
   6   2   0    2.89    0.66 
  -7  -2   0    6.81    0.76 
   7  -2   0    5.72    1.02 
  -7  -2   0    7.00    0.65 
  -7  -2   0    5.23    0.66 
   7   2   0    6.81    1.00 
  -7   2   0    7.23    0.89 
  -8  -2   0    8.95    0.72 
  -8  -2   0    8.12    0.76 
   8   2   0    8.62    1.04 
  -8   2   0    9.97    1.00 
  -9  -2   0    0.91    0.42 
   9   2   0    1.50    0.73 
  -9   2   0    2.12    0.69 
 -10  -2   0    0.37    0.44 
  10   2   0    1.25    0.74 
  11   2   0    6.90    1.29 
   0  -3   0   -0.17    0.30 
   0  -3   0    0.38    0.48 
   0   3   0    0.08    0.25 
   0   3   0    0.21    0.35 
  -1  -3   0    1.91    0.48 
  -1  -3   0    2.08    0.36 
   1  -3   0    2.08    0.37 
   1   3   0    2.47    0.35 
  -1   3   0    2.80    0.41 
  -1   3   0    2.46    0.37 
   1   3   0    2.47    0.44 
  -2  -3   0   24.48    0.94 
  -2  -3   0   23.54    1.20 
   2   3   0   23.56    0.94 
  -2   3   0   23.63    0.79 
   2   3   0   23.76    0.71 
  -2   3   0   24.99    0.77 
  -3  -3   0    6.95    0.73 
  -3  -3   0    6.69    1.04 
  -3   3   0    6.56    0.65 
   3   3   0    7.97    0.83 
  -3   3   0    6.46    0.64 
  -4  -3   0    4.50    0.76 
  -4  -3   0    2.83    0.59 
   4   3   0    3.04    0.60 
  -4   3   0    3.46    0.66 
  -5  -3   0   25.15    1.03 
  -5  -3   0   24.72    1.35 
  -5   3   0   23.96    0.97 
   5   3   0   22.20    1.11 
  -6  -3   0   13.76    0.90 
  -6  -3   0   12.82    1.27 
   6   3   0   12.36    1.01 
  -6   3   0   12.84    0.90 
  -7  -3   0    1.37    0.63 
  -7  -3   0    1.63    0.44 
  -7   3   0    2.37    0.61 
   7   3   0    1.44    0.64 
  -8  -3   0    0.15    0.61 
  -8  -3   0    0.29    0.43 
  -8   3   0    0.62    0.66 
   8   3   0    0.27    0.65 
  -9  -3   0    0.26    0.44 
  -9  -3   0    0.03    0.67 
   9   3   0    0.05    0.70 
  -9   3   0    1.57    0.74 
 -10  -3   0   -1.31    0.74 
 -10   3   0    1.63    0.84 
  10   3   0    0.85    0.80 
   0  -4   0   40.46    1.28 
   0   4   0   39.49    1.13 
  -1  -4   0   10.90    0.84 
  -1  -4   0   11.53    1.21 
   1   4   0   10.06    0.75 
  -1   4   0   10.91    0.71 
  -2  -4   0    1.13    0.55 
  -2  -4   0    1.06    0.41 
   2   4   0    0.99    0.49 
  -2   4   0    1.25    0.40 
  -3  -4   0    7.17    1.22 
  -3  -4   0    7.80    0.83 
  -3   4   0    7.92    0.75 
   3   4   0    7.32    0.88 
  -4  -4   0   24.65    1.47 
  -4  -4   0   25.70    1.13 
   4   4   0   23.77    1.12 
  -4   4   0   24.36    1.02 
  -5  -4   0    7.07    0.89 
  -5  -4   0    7.32    1.32 
   5   4   0    6.37    0.93 
  -5   4   0    7.34    0.89 
  -6  -4   0    0.45    0.62 
  -6  -4   0    0.25    0.44 
  -6   4   0    1.67    0.59 
   6   4   0    0.60    0.60 
  -7  -4   0    0.92    0.69 
  -7  -4   0    0.60    0.48 
   7   4   0    1.10    0.68 
  -7   4   0    1.85    0.69 
  -8  -4   0    3.51    0.82 
  -8   4   0    4.75    0.81 
   8   4   0    4.46    0.83 
   0  -5   0   -0.61    0.46 
   0   5   0    0.53    0.50 
  -1  -5   0    0.81    0.48 
  -1   5   0    2.40    0.52 
   1   5   0    1.92    0.55 
  -2  -5   0    2.19    0.51 
  -2   5   0    2.68    0.52 
   2   5   0    2.10    0.57 
  -3  -5   0    3.05    0.56 
  -3  -5   0    1.98    0.73 
  -3   5   0    3.23    0.60 
   3   5   0    3.47    0.63 
  -4  -5   0    0.54    0.50 
  -4  -5   0    0.58    0.70 
   4   5   0    0.46    0.64 
  -4   5   0    1.04    0.61 
  -5  -5   0    2.10    0.77 
  -5  -5   0    2.23    0.62 
   5   5   0    2.74    0.77 
  -5   5   0    3.17    0.69 
  -6   5   0    2.36    0.74 
   6   5   0    1.92    0.80 
  12   0  -1   -1.35    0.85 
 -11   0   1    0.34    0.45 
  11   0  -1    0.55    0.79 
 -10   0   1    1.44    0.45 
  10   0  -1    1.13    0.75 
   9   0  -1    8.43    1.08 
   8   0  -1   16.73    1.20 
   7   0  -1    0.33    0.61 
   6   0  -1    3.41    0.57 
  -5   0   1   81.79    1.86 
   5   0  -1   84.92    1.95 
  -4   0   1  115.62    2.43 
   4   0  -1  115.14    2.48 
   3   0  -1   75.68    1.67 
  -3   0   1   74.01    1.61 
  -2   0   1  504.45   10.29 
   2   0  -1  506.89   10.40 
  -2   0   1  512.38   10.34 
   2   0  -1  507.52   10.33 
  -1   0   1   47.91    0.98 
   1   0  -1   45.22    0.99 
   1   0  -1   49.21    0.98 
  -1   0   1   47.63    0.99 
   0   0   1   20.65    0.38 
   0   0   1   17.89    0.41 
   1   0   1   13.39    0.36 
  -1   0  -1   13.45    0.31 
  -1   0  -1   13.13    0.35 
   2   0   1   72.92    1.58 
  -2   0  -1   69.71    1.56 
   3   0   1  181.97    3.72 
   4   0   1  119.54    2.57 
   5   0   1   48.72    1.34 
   6   0   1    2.98    0.57 
   7   0   1   59.99    1.76 
  -8   0  -1    4.87    0.79 
   8   0   1    4.42    0.79 
   9   0   1    3.76    0.77 
  -9   0  -1    3.42    0.48 
 -10   0  -1   -0.06    0.43 
  10   0   1    0.27    0.75 
  11   0   1    1.01    0.79 
 -11   0  -1    0.53    0.47 
  12   0   1    9.05    1.43 
  12   1  -1    4.00    0.96 
 -11  -1   1   -0.25    0.42 
  11   1  -1    0.26    0.76 
  10  -1  -1    1.71    0.79 
 -10  -1   1    1.59    0.44 
  10   1  -1    1.97    0.75 
   9  -1  -1    6.62    1.12 
  -9  -1   1    6.66    0.76 
   9   1  -1    7.75    1.06 
   8  -1  -1   10.19    1.13 
  -8  -1   1   10.73    0.79 
  -8   1   1   10.39    0.98 
   8   1  -1   10.98    1.06 
  -7  -1   1   16.96    0.85 
   7  -1  -1   17.38    1.14 
  -7   1   1   16.62    1.03 
   7   1  -1   17.20    1.10 
   6  -1  -1    3.20    0.61 
  -6  -1   1    2.30    0.35 
   6   1  -1    3.56    0.57 
  -6   1   1    2.59    0.52 
  -5  -1   1   49.03    1.18 
   5  -1  -1   47.54    1.33 
  -5   1   1   47.48    1.24 
   5   1  -1   47.06    1.31 
  -4  -1   1   22.69    0.69 
   4  -1  -1   22.11    0.84 
  -4   1   1   22.05    0.74 
   4   1  -1   22.16    0.80 
  -3  -1   1   86.75    1.77 
   3  -1  -1   85.69    1.90 
  -3   1   1   84.67    1.84 
   3   1  -1   91.44    1.76 
   3   1  -1   83.96    1.88 
  -3   1   1   87.65    1.90 
  -2  -1   1  239.78    5.08 
  -2  -1   1  248.24    4.79 
   2  -1  -1  243.88    4.91 
  -2  -1   1  238.32    4.91 
  -2   1   1  249.98    4.91 
   2   1  -1  259.18    4.69 
   2   1  -1  239.59    4.97 
  -2   1   1  238.42    4.92 
   1  -1  -1  208.98    4.03 
   1  -1  -1  208.52    4.22 
   1  -1  -1  217.50    4.22 
  -1  -1   1  210.58    4.59 
  -1  -1   1  210.82    4.12 
  -1   1   1  208.75    4.03 
   1   1  -1  213.77    4.20 
  -1   1   1  204.58    4.33 
   1   1  -1  210.11    4.51 
   1   1  -1  208.23    4.21 
  -1   1   1  219.75    4.22 
   1   1  -1  215.84    4.07 
   0  -1  -1  406.27    8.08 
   0  -1  -1  401.64    8.47 
   0  -1  -1  409.49    8.03 
   0  -1  -1  401.36    8.00 
   0  -1   1  388.33    8.56 
   0  -1   1  399.85    7.76 
   0   1   1  393.09    8.09 
   0   1  -1  392.20    7.77 
   0   1   1  415.34    8.12 
   0   1   1  393.57    8.43 
   0   1   1  401.20    7.83 
   0   1  -1  396.38    8.63 
  -1  -1  -1  447.08    9.33 
  -1  -1  -1  459.71    9.78 
  -1  -1  -1  448.95    9.11 
  -1  -1  -1  472.07    9.31 
  -1   1  -1  456.15    8.89 
   1   1   1  459.21    8.89 
   1   1   1  466.23    9.42 
  -1   1  -1  468.06    9.90 
   1   1   1  470.42    9.67 
   1   1   1  467.35    9.36 
   2  -1   1  130.62    2.64 
  -2  -1  -1  131.96    2.59 
  -2  -1  -1  128.85    2.68 
  -2   1  -1  129.26    2.65 
   2   1   1  128.94    2.68 
   2   1   1  138.79    2.58 
   2   1   1  129.26    2.73 
  -2   1  -1  134.03    2.68 
  -3  -1  -1   25.38    0.71 
   3  -1   1   25.46    0.77 
  -3  -1  -1   25.83    0.73 
   3   1   1   25.46    0.81 
  -3   1  -1   25.84    0.77 
   3   1   1   28.04    0.72 
  -3   1  -1   25.59    0.70 
   4  -1   1  149.58    3.17 
  -4  -1  -1  152.75    3.02 
   4   1   1  147.51    3.21 
   4   1   1  154.44    2.99 
  -4   1  -1  151.57    3.13 
  -5  -1  -1   12.14    0.64 
   5  -1   1   11.11    0.78 
   5   1   1   12.03    0.80 
  -5   1  -1   11.29    0.68 
   6  -1   1   57.30    1.59 
  -6  -1  -1   55.39    1.42 
   6   1   1   56.65    1.61 
  -6   1  -1   55.40    1.48 
  -7  -1  -1    5.91    0.69 
   7  -1   1    5.63    1.05 
   7   1   1    5.64    1.03 
   8  -1   1   19.09    1.21 
  -8  -1  -1   19.57    0.94 
   8   1   1   19.83    1.21 
  -9  -1  -1    0.03    0.37 
   9  -1   1    1.02    0.73 
   9   1   1    0.17    0.67 
 -10  -1  -1    2.63    0.48 
  10  -1   1    3.04    0.86 
  10   1   1    3.06    0.80 
  11   1   1    8.08    1.24 
  12   1   1    4.20    1.01 
  11   2  -1   -0.17    0.79 
 -10  -2   1    0.92    0.72 
 -10  -2   1    1.31    0.46 
  10   2  -1    2.18    0.77 
 -10   2   1    3.33    0.75 
  -9  -2   1    1.90    0.44 
  -9  -2   1    0.82    0.65 
  -9   2   1    3.44    0.73 
   9   2  -1    2.74    0.74 
  -8  -2   1    6.89    1.23 
  -8  -2   1    6.94    0.76 
  -8  -2   1    7.19    0.77 
   8   2  -1    7.17    0.99 
  -8   2   1    8.58    0.98 
  -7  -2   1   12.33    1.26 
   7  -2  -1   10.43    1.06 
  -7  -2   1   10.57    0.71 
  -7  -2   1   10.85    0.80 
  -7   2   1   10.46    0.89 
   7   2  -1   10.16    0.99 
  -6  -2   1    8.15    0.73 
  -6  -2   1    7.79    0.60 
  -6  -2   1    8.04    1.22 
   6  -2  -1    8.61    0.97 
  -6   2   1    6.59    0.85 
   6   2  -1    8.94    0.96 
  -5  -2   1   13.96    1.11 
  -5  -2   1   13.22    0.60 
   5  -2  -1   13.56    0.92 
  -5  -2   1   14.84    0.74 
   5   2  -1   13.72    0.90 
  -5   2   1   13.75    0.79 
  -4  -2   1   32.08    0.85 
   4  -2  -1   33.72    1.04 
  -4  -2   1   33.58    1.24 
  -4  -2   1   33.61    0.96 
   4   2  -1   35.03    0.94 
  -4   2   1   32.05    0.95 
   4   2  -1   33.27    1.06 
   3  -2  -1    7.61    0.60 
  -3  -2   1    8.20    0.84 
  -3  -2   1    8.82    0.55 
   3   2  -1    8.65    0.61 
  -3   2   1    7.93    0.53 
  -3   2   1    7.49    0.55 
  -3   2   1    7.56    0.50 
   3   2  -1    7.86    0.50 
  -2  -2   1   90.27    2.17 
  -2  -2   1   89.78    1.88 
   2   2  -1   89.53    2.14 
   2   2  -1   90.08    1.87 
  -2   2   1   91.97    1.94 
  -2   2   1   88.41    1.91 
   2   2  -1   92.67    1.87 
   2   2  -1   89.21    1.93 
  -2   2   1   88.04    1.92 
   1  -2  -1    2.93    0.47 
  -1  -2   1    2.45    0.41 
  -1  -2   1    2.06    0.38 
   1   2  -1    1.98    0.34 
  -1   2   1    2.62    0.40 
   1   2  -1    2.95    0.39 
  -1   2   1    3.06    0.34 
  -1   2   1    2.38    0.40 
  -1   2   1    2.92    0.58 
   0  -2   1    6.24    0.74 
   0  -2  -1    5.62    0.64 
   0  -2  -1    5.83    0.48 
   0  -2   1    6.01    0.44 
   0   2   1    5.45    0.44 
   0   2  -1    6.13    0.40 
   0   2   1    5.61    0.58 
   0   2  -1    5.46    0.63 
   0   2   1    5.73    0.45 
   0   2   1    5.68    0.35 
  -1  -2  -1    1.61    0.25 
  -1  -2  -1    1.32    0.20 
   1  -2   1    2.47    0.41 
  -1  -2  -1    1.82    0.32 
   1   2   1    1.82    0.31 
   1   2   1    2.11    0.29 
   1   2   1    1.90    0.26 
  -1   2  -1    1.80    0.34 
  -1   2  -1    1.41    0.21 
   1   2   1    2.32    0.35 
  -2  -2  -1   27.29    0.69 
  -2  -2  -1   26.84    0.83 
  -2  -2  -1   26.89    0.96 
  -2   2  -1   26.98    1.01 
  -2   2  -1   27.26    0.69 
   2   2   1   27.42    0.72 
   2   2   1   26.73    0.81 
  -2   2  -1   28.40    0.74 
   2   2   1   27.22    0.93 
   2   2   1   28.04    0.88 
  -2   2  -1   27.99    0.78 
  -3  -2  -1    0.07    0.32 
  -3  -2  -1    0.09    0.26 
  -3  -2  -1    0.28    0.22 
  -3   2  -1   -0.21    0.33 
  -3   2  -1   -0.11    0.21 
   3   2   1    0.05    0.26 
  -3   2  -1    0.10    0.26 
   3   2   1    0.31    0.39 
  -4  -2  -1    4.02    0.79 
  -4  -2  -1    3.93    0.43 
  -4  -2  -1    4.57    0.59 
   4   2   1    3.90    0.72 
  -4   2  -1    3.45    0.64 
  -4   2  -1    3.83    0.52 
  -5  -2  -1   10.92    0.99 
  -5  -2  -1   10.34    0.75 
  -5  -2  -1    9.50    0.60 
   5  -2   1   10.17    0.82 
   5   2   1   11.12    0.92 
  -5   2  -1    9.95    0.75 
   6  -2   1   12.11    0.99 
  -6  -2  -1   12.17    0.72 
  -6  -2  -1   12.89    1.13 
  -6  -2  -1   11.60    0.82 
  -6   2  -1   10.93    0.87 
   6   2   1   12.41    1.05 
  -7  -2  -1   37.26    1.23 
  -7  -2  -1   37.22    1.15 
   7  -2   1   37.18    1.43 
  -7   2  -1   35.80    1.25 
   7   2   1   35.83    1.40 
  -8  -2  -1    2.40    0.44 
  -8  -2  -1    2.93    0.48 
   8   2   1    3.17    0.72 
  -8   2  -1    2.65    0.61 
  -9  -2  -1    5.63    0.85 
   9   2   1    5.93    0.84 
 -10  -2  -1    0.24    0.44 
  10   2   1    1.10    0.76 
  11   2   1    6.08    1.00 
 -10  -3   1    2.04    0.87 
  10   3  -1    4.25    0.88 
 -10   3   1    4.79    0.90 
  -9  -3   1    6.92    0.92 
  -9  -3   1    5.28    0.83 
   9   3  -1    6.69    1.12 
  -9   3   1    9.27    1.27 
  -8  -3   1    6.62    1.34 
  -8  -3   1    6.50    0.86 
  -8   3   1    7.06    1.08 
   8   3  -1    7.86    1.06 
  -7  -3   1   14.72    0.93 
  -7  -3   1   14.01    1.43 
   7   3  -1   15.25    1.09 
  -7   3   1   14.83    1.07 
  -6  -3   1    5.39    0.76 
  -6  -3   1    3.59    0.64 
   6   3  -1    4.12    0.64 
  -6   3   1    4.61    0.82 
  -5  -3   1   36.48    1.19 
  -5  -3   1   37.76    1.59 
   5   3  -1   34.79    1.27 
  -5   3   1   35.52    1.17 
  -4  -3   1    5.21    0.73 
  -4  -3   1    4.12    0.64 
   4   3  -1    5.45    0.84 
  -4   3   1    4.43    0.71 
  -3  -3   1   33.26    1.51 
  -3  -3   1   34.60    1.09 
  -3   3   1   33.55    1.04 
  -3   3   1   34.42    1.05 
   3   3  -1   33.70    1.13 
  -2  -3   1   11.91    1.15 
  -2  -3   1   11.36    0.74 
   2   3  -1   11.11    0.75 
   2   3  -1   11.14    0.48 
  -2   3   1   11.61    0.61 
  -2   3   1   10.97    0.67 
   1  -3  -1    2.76    0.39 
  -1  -3   1    2.61    0.36 
  -1  -3   1    2.52    0.52 
  -1   3   1    2.46    0.43 
  -1   3   1    3.09    0.41 
   1   3  -1    3.14    0.33 
   0  -3   1   35.95    1.08 
   0  -3   1   37.42    1.47 
   0  -3  -1   37.30    1.14 
   0   3   1   36.44    1.05 
   0   3   1   38.57    0.96 
  -1  -3  -1   56.15    1.44 
  -1  -3  -1   55.01    1.62 
   1  -3   1   54.84    1.39 
   1   3   1   54.17    1.28 
   1   3   1   54.79    1.42 
  -2  -3  -1   16.16    1.05 
  -2  -3  -1   17.03    0.85 
  -2   3  -1   16.87    0.65 
   2   3   1   16.68    0.90 
   2   3   1   16.91    0.62 
  -3  -3  -1    4.36    0.72 
  -3  -3  -1    3.33    0.54 
   3   3   1    3.87    0.58 
  -3   3  -1    3.14    0.60 
  -3   3  -1    3.81    0.56 
   3   3   1    2.95    0.48 
  -4  -3  -1   24.53    1.04 
  -4  -3  -1   24.65    1.33 
   4   3   1   23.63    1.16 
  -4   3  -1   23.44    0.87 
  -5  -3  -1   18.38    0.96 
  -5  -3  -1   16.23    1.23 
   5   3   1   16.49    1.06 
  -5   3  -1   16.10    0.83 
  -6  -3  -1    9.46    1.15 
  -6  -3  -1    9.73    0.86 
  -6   3  -1    9.72    0.87 
   6   3   1    9.92    0.99 
  -7  -3  -1   -0.03    0.40 
  -7  -3  -1   -0.53    0.54 
  -7   3  -1   -0.29    0.55 
   7   3   1    0.36    0.62 
  -8  -3  -1    1.26    0.64 
  -8  -3  -1    2.38    0.50 
   8   3   1    2.15    0.71 
  -8   3  -1    3.64    0.69 
  -9  -3  -1    6.92    1.41 
  -9  -3  -1    6.28    0.97 
  -9   3  -1   10.92    1.25 
   9   3   1    9.04    1.18 
 -10  -3  -1   -0.71    0.75 
  10   3   1    1.26    0.84 
  -8  -4   1    0.53    0.76 
  -8  -4   1    1.54    0.56 
   8   4  -1    1.51    0.75 
  -8   4   1    2.34    0.80 
  -7  -4   1    0.33    0.47 
  -7  -4   1    0.42    0.69 
   7   4  -1    0.49    0.63 
  -7   4   1    1.45    0.68 
  -6  -4   1    1.93    0.47 
  -6  -4   1    1.18    0.67 
  -6   4   1    1.60    0.63 
   6   4  -1    1.49    0.61 
  -5  -4   1    2.22    0.68 
  -5  -4   1    1.91    0.45 
   5   4  -1    2.33    0.58 
  -5   4   1    2.14    0.56 
  -4  -4   1    9.48    1.33 
  -4  -4   1    9.78    0.85 
  -4   4   1   11.06    0.88 
   4   4  -1    9.44    0.86 
  -3  -4   1    0.73    0.60 
  -3  -4   1    0.61    0.40 
  -3   4   1    1.27    0.48 
   3   4  -1    0.86    0.51 
  -2  -4   1    8.29    1.24 
  -2  -4   1    6.78    0.81 
  -2   4   1    8.24    0.73 
   2   4  -1    7.47    0.77 
  -1  -4   1   21.33    1.39 
   1  -4  -1   20.65    1.03 
  -1  -4   1   21.12    0.95 
  -1   4   1   21.54    0.89 
   0  -4   1    8.01    0.81 
   0  -4  -1    7.79    0.83 
   0   4   1    8.05    0.73 
  -1  -4  -1    0.42    0.40 
   1   4   1    0.58    0.43 
  -1   4  -1    0.92    0.37 
  -2  -4  -1    9.55    1.14 
  -2  -4  -1   10.72    0.87 
   2   4   1   10.10    0.85 
  -2   4  -1   10.35    0.64 
  -3  -4  -1    9.35    1.15 
  -3  -4  -1    8.41    0.87 
  -3   4  -1    8.27    0.69 
   3   4   1    7.58    0.92 
  -4  -4  -1   18.05    1.02 
  -4  -4  -1   18.17    1.33 
  -4   4  -1   18.08    0.88 
   4   4   1   16.91    1.08 
  -5  -4  -1   -0.03    0.58 
  -5  -4  -1    0.37    0.44 
  -5   4  -1    0.08    0.52 
   5   4   1   -0.18    0.62 
  -6  -4  -1    6.38    0.93 
  -6  -4  -1    6.93    1.35 
   6   4   1    6.31    1.01 
  -6   4  -1    7.63    0.98 
  -7  -4  -1    2.60    0.54 
  -7  -4  -1    3.21    0.73 
   7   4   1    3.27    0.74 
  -7   4  -1    4.52    0.72 
  -8  -4  -1   -0.24    0.70 
   8   4   1    0.82    0.78 
  -8   4  -1    1.08    0.76 
   6   5  -1    2.76    0.78 
  -5  -5   1    0.80    0.52 
  -5  -5   1    0.74    0.75 
  -5   5   1    1.02    0.68 
   5   5  -1    0.79    0.71 
  -4  -5   1    0.67    0.50 
  -4  -5   1    0.51    0.72 
  -4   5   1    0.32    0.62 
   4   5  -1    0.22    0.64 
  -3  -5   1    0.52    0.47 
  -3  -5   1   -0.17    0.71 
   3   5  -1    0.73    0.56 
  -3   5   1    1.12    0.61 
  -2  -5   1    0.42    0.73 
  -2  -5   1    1.89    0.49 
  -2   5   1    2.60    0.57 
   2   5  -1    4.47    0.84 
  -1  -5   1    0.00    0.45 
   1   5  -1    0.97    0.47 
  -1   5   1    1.11    0.55 
   0   5   1    5.43    0.97 
   0   5  -1    5.53    0.80 
  -1  -5  -1    2.31    0.52 
   1   5   1    5.41    0.97 
  -2   5  -1    6.82    0.84 
   2   5   1    7.40    1.01 
  -3  -5  -1    1.76    0.71 
  -3  -5  -1    2.51    0.55 
   3   5   1    3.61    0.70 
  -3   5  -1    4.43    0.85 
  -4  -5  -1    6.07    1.03 
  -4  -5  -1    3.79    0.76 
   4   5   1    6.04    1.12 
   5   5   1    5.46    0.84 
  -5   5  -1    7.11    1.08 
  12   0  -2    1.58    0.93 
 -11   0   2    5.17    0.88 
  11   0  -2    4.92    0.89 
  10   0  -2   -0.14    0.71 
 -10   0   2   -0.37    0.41 
   9   0  -2    1.81    0.71 
   8   0  -2   33.43    1.42 
   7   0  -2    7.32    0.97 
   6   0  -2   35.99    1.20 
  -6   0   2   34.88    1.10 
  -5   0   2    0.44    0.39 
   5   0  -2    0.45    0.41 
  -4   0   2  206.81    4.23 
   4   0  -2  209.46    4.29 
   3   0  -2   81.11    1.80 
  -3   0   2   82.67    1.75 
   2   0  -2   33.12    0.87 
  -2   0   2   34.45    0.87 
  -2   0   2   33.14    0.84 
   2   0  -2   33.04    0.81 
   1   0  -2   70.83    1.39 
   1   0  -2   64.87    1.40 
  -1   0   2   70.07    1.40 
  -1   0   2   65.69    1.40 
   0   0  -2   47.50    0.95 
   0   0  -2   44.67    0.95 
   0   0   2   47.89    0.95 
   0   0  -2   46.71    0.98 
   0   0   2   46.77    0.98 
   0   0   2   43.43    0.95 
   0   0  -2   45.05    0.88 
   0   0   2   45.83    0.88 
   1   0   2  104.50    2.12 
  -1   0  -2  106.81    2.12 
   1   0   2  104.77    1.98 
  -1   0  -2  104.17    2.10 
  -1   0  -2   99.14    1.98 
  -2   0  -2  186.48    3.46 
  -2   0  -2  174.70    3.69 
   2   0   2  183.20    3.69 
  -3   0  -2    3.94    0.35 
   3   0   2    2.97    0.52 
   4   0   2   23.80    0.85 
  -5   0  -2   35.59    0.97 
   5   0   2   34.41    1.13 
   6   0   2    3.22    0.60 
  -6   0  -2    1.91    0.37 
   7   0   2    6.32    1.04 
  -7   0  -2    6.72    0.72 
  -8   0  -2   17.36    0.93 
   8   0   2   17.80    1.23 
   9   0   2    0.80    0.69 
  -9   0  -2    0.36    0.41 
  10   0   2   10.33    1.19 
 -10   0  -2    9.62    0.90 
  11   0   2    0.43    0.81 
  12   1  -2    2.28    0.91 
 -11  -1   2   -0.08    0.42 
  11   1  -2    1.15    0.78 
  10  -1  -2    1.26    0.77 
 -10  -1   2    1.41    0.42 
  10   1  -2    1.70    0.74 
   9  -1  -2    5.54    0.80 
  -9  -1   2    4.93    0.72 
  -9   1   2    5.68    1.00 
   9   1  -2    5.28    1.03 
   8  -1  -2    5.71    1.08 
  -8  -1   2    5.69    0.69 
  -8   1   2    5.47    0.70 
   8   1  -2    5.49    0.99 
   7  -1  -2   54.33    1.70 
  -7  -1   2   55.01    1.42 
   7   1  -2   53.88    1.65 
  -7   1   2   53.47    1.56 
  -6  -1   2   19.41    0.78 
   6  -1  -2   19.61    1.05 
   6   1  -2   19.86    0.98 
  -6   1   2   18.79    0.90 
  -5  -1   2   13.62    0.61 
   5  -1  -2   13.67    0.84 
  -5   1   2   13.53    0.71 
   5   1  -2   13.56    0.76 
   4  -1  -2   24.42    0.90 
  -4  -1   2   24.74    0.72 
   4   1  -2   25.66    0.85 
  -4   1   2   25.80    0.80 
  -3  -1   2   35.54    1.08 
   3  -1  -2   33.81    0.95 
  -3  -1   2   34.48    0.83 
  -3   1   2   34.51    0.88 
   3   1  -2   34.22    0.83 
   3   1  -2   34.53    0.92 
  -2  -1   2    8.42    0.36 
  -2  -1   2    8.42    0.62 
   2  -1  -2    8.52    0.48 
  -2   1   2    7.41    0.41 
   2   1  -2    8.42    0.36 
  -2   1   2    7.52    0.44 
   2   1  -2    8.30    0.43 
  -1  -1   2  934.71   20.32 
   1  -1  -2  948.43   18.59 
   1  -1  -2 1000.00   19.41 
  -1  -1   2  955.10   18.25 
  -1   1   2  970.60   19.49 
   1   1  -2  943.98   20.29 
   1   1  -2  992.78   18.25 
  -1   1   2  980.26   19.39 
  -1   1   2  978.49   18.65 
   0  -1  -2  136.07    2.79 
   0  -1   2  134.07    2.96 
   0  -1  -2  133.79    2.67 
   0  -1  -2  137.40    2.78 
   0  -1   2  135.41    2.62 
   0   1   2  139.55    2.67 
   0   1   2  138.90    2.83 
   0   1   2  139.69    2.78 
   0   1  -2  137.95    2.62 
   0   1  -2  138.04    2.95 
   0   1   2  135.76    2.79 
  -1  -1  -2   17.44    0.52 
  -1  -1  -2   17.69    0.57 
  -1  -1  -2   19.02    0.58 
   1   1   2   16.81    0.51 
   1   1   2   17.47    0.65 
  -1   1  -2   17.83    0.74 
   1   1   2   19.05    0.57 
  -2  -1  -2   14.95    0.55 
  -2  -1  -2   13.95    0.49 
   2   1   2   15.53    0.53 
  -2   1  -2   15.68    0.53 
   2   1   2   14.58    0.63 
   2   1   2   15.44    0.49 
   3  -1   2   13.32    0.57 
  -3  -1  -2   13.47    0.54 
  -3  -1  -2   13.31    0.52 
   3   1   2   13.52    0.65 
   3   1   2   14.28    0.54 
  -3   1  -2   12.82    0.50 
  -3   1  -2   13.81    0.60 
  -4  -1  -2  172.50    3.43 
   4  -1   2  173.35    3.58 
  -4  -1  -2  171.06    3.58 
   4   1   2  177.88    3.39 
  -4   1  -2  166.15    3.54 
  -4   1  -2  178.58    3.61 
   4   1   2  167.66    3.63 
  -5  -1  -2    2.94    0.50 
  -5  -1  -2    2.69    0.52 
   5  -1   2    2.43    0.48 
   5   1   2    2.57    0.51 
  -5   1  -2    1.61    0.36 
  -6  -1  -2    7.02    0.70 
   6  -1   2    6.26    0.91 
   6   1   2    6.22    0.92 
  -7  -1  -2    2.77    0.44 
   7  -1   2    4.23    0.73 
   7   1   2    2.90    0.71 
   8  -1   2   11.87    1.12 
  -8  -1  -2   12.69    0.86 
   8   1   2   13.42    1.11 
  -9  -1  -2    5.27    0.76 
   9  -1   2    5.92    1.12 
   9   1   2    5.92    1.06 
 -10  -1  -2    1.93    0.48 
  10   1   2    2.10    0.80 
  11   1   2    0.43    0.82 
 -12  -1  -2   -0.25    0.77 
  12   1   2    0.73    0.94 
  11   2  -2    0.23    0.82 
 -10  -2   2   11.03    1.56 
 -10  -2   2   12.85    0.98 
  10   2  -2   11.62    1.20 
 -10   2   2   14.65    1.27 
  -9  -2   2    6.19    0.82 
  -9  -2   2    6.74    0.82 
   9   2  -2    6.86    1.04 
  -9   2   2    7.89    1.14 
  -8  -2   2    8.64    0.77 
   8  -2  -2    7.74    1.09 
  -8  -2   2    8.72    1.30 
   8   2  -2    8.71    0.99 
  -8   2   2    9.68    1.00 
  -7  -2   2    0.78    0.39 
  -7  -2   2    1.13    0.36 
   7  -2  -2    0.48    0.67 
  -7  -2   2    1.21    0.60 
   7   2  -2    1.16    0.60 
  -7   2   2    1.78    0.60 
   6  -2  -2   83.22    2.12 
  -6  -2   2   80.60    1.90 
  -6  -2   2   85.41    2.37 
  -6  -2   2   83.70    1.93 
   6   2  -2   81.89    2.10 
  -6   2   2   80.69    2.01 
  -5  -2   2   63.15    1.46 
   5  -2  -2   63.47    1.69 
  -5  -2   2   62.45    1.53 
  -5  -2   2   64.01    1.91 
  -5   2   2   62.50    1.59 
   5   2  -2   64.80    1.68 
   4  -2  -2    2.87    0.49 
  -4  -2   2    2.81    0.35 
  -4  -2   2    1.94    0.46 
  -4  -2   2    2.56    0.31 
   4   2  -2    2.91    0.49 
   4   2  -2    3.27    0.64 
  -4   2   2    2.62    0.41 
  -3  -2   2   22.47    0.73 
  -3  -2   2   21.98    1.06 
   3  -2  -2   22.56    0.84 
  -3   2   2   22.05    0.77 
  -3   2   2   21.37    0.74 
   3   2  -2   21.95    0.78 
  -3   2   2   24.31    0.88 
   3   2  -2   22.57    0.69 
  -2  -2   2   24.66    0.74 
   2  -2  -2   25.36    0.79 
  -2  -2   2   25.12    1.06 
   2   2  -2   25.88    0.73 
   2   2  -2   25.41    1.01 
  -2   2   2   25.01    0.75 
  -2   2   2   26.08    0.80 
  -2   2   2   25.18    0.75 
   2   2  -2   27.32    0.72 
  -1  -2   2  283.36    5.49 
   1  -2  -2  289.34    5.76 
  -1  -2   2  284.52    6.09 
   1  -2  -2  287.38    5.56 
  -1   2   2  296.24    5.79 
  -1   2   2  290.69    5.78 
  -1   2   2  277.22    5.55 
   1   2  -2  291.85    5.48 
   1   2  -2  295.80    6.08 
  -1   2   2  287.78    5.99 
   0  -2   2    7.66    0.75 
   0  -2  -2    7.88    0.53 
   0  -2   2    8.13    0.45 
   0  -2  -2    8.48    0.41 
   0   2   2    7.73    0.51 
   0   2   2    8.53    0.58 
   0   2  -2    8.21    0.41 
   0   2   2    7.59    0.51 
   0   2   2    8.49    0.42 
  -1  -2  -2   19.15    0.74 
  -1  -2  -2   19.22    0.68 
  -1  -2  -2   19.25    0.57 
   1   2   2   18.17    0.68 
   1   2   2   19.32    0.73 
  -1   2  -2   18.75    0.59 
   1   2   2   18.48    0.58 
  -1   2  -2   19.16    0.88 
   1   2   2   19.09    0.73 
  -2  -2  -2   16.41    0.76 
  -2  -2  -2   17.03    0.68 
  -2  -2  -2   16.59    0.54 
   2   2   2   16.26    0.65 
   2   2   2   16.31    0.55 
   2   2   2   16.14    0.76 
  -2   2  -2   16.43    0.57 
  -3  -2  -2   32.14    1.03 
  -3  -2  -2   31.66    0.95 
  -3  -2  -2   31.17    0.84 
   3   2   2   31.89    0.94 
  -3   2  -2   31.61    0.90 
  -3   2  -2   30.48    0.81 
  -3   2  -2   30.17    0.87 
   3   2   2   30.35    1.03 
  -4  -2  -2   46.09    1.36 
  -4  -2  -2   43.72    1.14 
  -4  -2  -2   44.64    1.24 
  -4   2  -2   43.03    1.13 
   4   2   2   44.81    1.33 
  -4   2  -2   46.47    1.25 
  -5  -2  -2   34.79    1.05 
  -5  -2  -2   37.19    1.34 
  -5  -2  -2   35.61    1.16 
   5  -2   2   37.28    1.12 
  -5   2  -2   35.43    1.09 
   5   2   2   36.24    1.28 
  -6  -2  -2   17.73    0.83 
   6  -2   2   17.99    1.02 
  -6  -2  -2   17.57    0.89 
   6   2   2   17.33    1.14 
  -6   2  -2   15.91    0.93 
  -7  -2  -2    4.12    0.75 
  -7  -2  -2    4.63    0.65 
  -7   2  -2    4.23    0.58 
   7   2   2    4.08    0.69 
  -8  -2  -2   26.85    1.03 
  -8  -2  -2   25.83    1.12 
   8   2   2   25.46    1.31 
  -9  -2  -2    2.60    0.54 
  -9  -2  -2    2.33    0.48 
   9   2   2    2.48    0.74 
 -10  -2  -2    0.97    0.48 
  10   2   2    1.01    0.75 
  11   2   2    0.82    0.85 
  10   3  -2    3.08    0.85 
 -10   3   2    3.98    0.90 
  -9  -3   2    1.90    0.77 
  -9  -3   2    2.81    0.49 
  -9   3   2    2.64    0.78 
   9   3  -2    2.48    0.73 
  -8  -3   2    3.73    0.76 
  -8  -3   2    4.20    0.52 
  -8   3   2    6.17    1.12 
   8   3  -2    4.63    0.73 
  -7  -3   2    3.46    0.47 
  -7  -3   2    2.48    0.69 
   7   3  -2    3.29    0.65 
  -7   3   2    3.43    0.65 
  -6  -3   2   -0.58    0.56 
  -6  -3   2   -0.07    0.35 
  -6   3   2    0.46    0.52 
   6   3  -2    0.11    0.54 
  -5  -3   2   16.11    1.33 
  -5  -3   2   17.18    0.86 
  -5   3   2   15.62    0.88 
   5   3  -2   15.73    0.95 
  -4  -3   2   13.62    1.32 
  -4  -3   2   14.47    0.82 
   4   3  -2   14.64    0.91 
  -4   3   2   13.63    0.84 
  -3  -3   2    1.57    0.36 
  -3  -3   2    1.33    0.58 
  -3   3   2    1.05    0.41 
  -3   3   2    1.43    0.45 
   3   3  -2    2.04    0.47 
  -2  -3   2    0.70    0.32 
  -2  -3   2    0.18    0.53 
  -2   3   2    0.38    0.35 
   2   3  -2    0.70    0.41 
   2   3  -2    0.40    0.24 
  -2   3   2    0.53    0.41 
  -1  -3   2   27.23    0.90 
  -1  -3   2   25.31    1.34 
   1  -3  -2   26.24    0.98 
   1   3  -2   27.44    0.87 
  -1   3   2   27.42    0.83 
  -1   3   2   25.83    0.91 
   0  -3  -2   53.68    1.44 
   0  -3   2   52.65    1.75 
   0  -3   2   52.91    1.34 
   0   3  -2   54.26    1.31 
   0   3   2   54.54    1.30 
   0   3   2   52.92    1.37 
   0   3   2   53.89    1.55 
  -1  -3  -2   25.56    1.10 
  -1  -3  -2   25.11    0.95 
   1   3   2   24.27    1.10 
   1   3   2   25.50    0.77 
   1   3   2   25.34    0.98 
  -2  -3  -2    0.34    0.28 
  -2  -3  -2    0.50    0.35 
  -2  -3  -2    0.22    0.42 
   2   3   2    0.99    0.55 
   2   3   2    0.84    0.29 
  -3  -3  -2    3.73    0.53 
  -3  -3  -2    4.70    0.72 
  -3  -3  -2    4.50    0.45 
  -3   3  -2    4.52    0.54 
   3   3   2    5.04    0.91 
  -3   3  -2    3.69    0.60 
  -4  -3  -2   13.25    1.13 
  -4  -3  -2   15.05    0.93 
   4   3   2   13.33    1.06 
  -4   3  -2   12.39    0.74 
  -5  -3  -2    5.97    0.82 
  -5  -3  -2    5.95    1.02 
   5   3   2    6.09    0.92 
  -5   3  -2    6.69    0.74 
  -6  -3  -2    0.28    0.39 
  -6  -3  -2   -0.24    0.50 
   6   3   2    0.77    0.62 
  -6   3  -2    0.34    0.48 
  -7  -3  -2   11.37    0.95 
  -7  -3  -2    9.65    1.21 
  -7   3  -2   12.25    1.02 
   7   3   2   10.71    1.11 
  -8  -3  -2   13.48    1.03 
  -8  -3  -2   13.20    1.35 
  -8   3  -2   14.77    1.17 
   8   3   2   14.66    1.21 
  -9  -3  -2    9.27    1.04 
  -9  -3  -2    7.96    1.39 
  -9   3  -2   11.30    1.13 
   9   3   2   10.48    1.22 
 -10  -3  -2   -1.49    0.72 
  10   3   2   -0.04    0.85 
  -8  -4   2    0.65    0.53 
  -8  -4   2    0.32    0.81 
   8   4  -2   -0.12    0.70 
  -8   4   2    1.41    0.82 
  -7  -4   2   -0.33    0.70 
  -7  -4   2    0.46    0.46 
   7   4  -2   -0.21    0.62 
  -7   4   2    1.50    0.70 
  -6  -4   2    2.73    0.49 
  -6  -4   2    3.09    0.73 
   6   4  -2    3.04    0.62 
  -6   4   2    3.54    0.68 
  -5  -4   2    0.68    0.65 
  -5  -4   2    0.50    0.40 
   5   4  -2    0.45    0.53 
  -5   4   2    0.96    0.58 
  -4  -4   2    1.05    0.40 
  -4  -4   2    1.23    0.65 
   4   4  -2    1.36    0.52 
  -4   4   2    1.18    0.54 
  -3  -4   2    4.82    0.75 
  -3  -4   2    3.14    0.67 
   3   4  -2    4.05    0.70 
  -3   4   2    3.24    0.54 
  -2  -4   2    5.17    0.74 
  -2  -4   2    4.08    0.67 
  -2   4   2    5.24    0.75 
   1  -4  -2    4.78    0.82 
  -1  -4   2    5.75    0.71 
  -1  -4   2    3.94    0.68 
  -1   4   2    5.94    0.75 
   0  -4  -2    7.23    0.83 
   0  -4   2    8.10    0.78 
   0   4   2    8.20    0.80 
  -1  -4  -2    1.30    0.43 
   1   4   2    1.23    0.48 
  -2  -4  -2   19.96    1.04 
  -2  -4  -2   19.63    1.23 
   2   4   2   20.22    0.99 
  -3  -4  -2    1.13    0.52 
  -3  -4  -2    0.97    0.44 
  -3   4  -2    1.19    0.38 
   3   4   2    1.17    0.59 
  -4  -4  -2    7.16    0.92 
  -4  -4  -2    7.29    1.14 
  -4   4  -2    7.30    0.73 
   4   4   2    6.68    1.01 
  -5  -4  -2    9.29    1.25 
  -5  -4  -2    9.37    0.97 
  -5   4  -2    9.64    0.90 
   5   4   2    8.98    1.08 
  -6  -4  -2    9.50    1.30 
  -6  -4  -2   11.50    1.06 
   6   4   2   10.28    1.13 
  -6   4  -2   12.41    1.01 
  -7  -4  -2    1.49    0.68 
  -7  -4  -2    2.42    0.55 
  -7   4  -2    3.37    0.72 
   7   4   2    2.89    0.79 
  -8  -4  -2    0.86    0.72 
   8   4   2    2.00    0.83 
  -8   4  -2    2.99    0.81 
  -5  -5   2    0.35    0.78 
   5   5  -2    0.16    0.64 
  -5   5   2    0.94    0.71 
  -4  -5   2    2.99    0.58 
  -4  -5   2    3.06    0.82 
   4   5  -2    2.66    0.65 
  -4   5   2    3.71    0.71 
  -3  -5   2    3.76    0.54 
  -3  -5   2    3.12    0.79 
   3   5  -2    6.01    0.90 
  -3   5   2    6.51    1.12 
  -2  -5   2   -0.56    0.71 
  -2  -5   2   -0.12    0.42 
  -2   5   2    0.95    0.57 
   2   5  -2    0.48    0.49 
  -1  -5   2    3.11    0.52 
   0   5   2    5.93    1.09 
  -1  -5  -2    6.21    0.97 
   1   5   2    8.57    1.09 
  -2  -5  -2    0.68    0.49 
   2   5   2    1.23    0.66 
  -3  -5  -2    2.16    0.55 
   3   5   2    2.61    0.69 
  -4   5  -2    6.11    0.94 
   4   5   2    3.71    0.76 
   5   5   2    2.40    0.80 
  -5   5  -2    3.05    0.64 
  12   0  -3   -1.41    0.85 
  11   0  -3   -0.65    0.74 
 -11   0   3   -0.79    0.42 
  10   0  -3    7.37    1.16 
   9   0  -3    0.28    0.66 
   8   0  -3   17.51    1.17 
   7   0  -3   21.45    1.13 
  -7   0   3   20.83    1.03 
  -6   0   3    2.73    0.51 
   6   0  -3    3.65    0.56 
  -5   0   3   29.64    0.93 
   5   0  -3   29.50    1.02 
  -4   0   3   20.31    0.71 
   4   0  -3   21.51    0.79 
  -3   0   3   81.91    1.72 
   3   0  -3   78.01    1.77 
   2   0  -3    2.29    0.33 
   2   0  -3    2.98    0.42 
  -2   0   3    2.55    0.38 
  -1   0   3  256.06    5.04 
   1   0  -3  256.55    5.12 
  -1   0   3  254.64    4.80 
  -1   0   3  242.42    5.21 
  -1   0   3  243.51    4.97 
   1   0  -3  244.42    5.06 
   0   0  -3  258.76    5.25 
   0   0  -3  251.61    4.97 
   0   0  -3  269.21    5.36 
   0   0  -3  258.76    5.41 
   0   0   3  254.21    5.46 
   0   0   3  267.03    5.29 
   0   0   3  262.34    4.93 
  -1   0  -3  334.69    6.85 
   1   0   3  351.04    6.88 
   1   0   3  330.49    6.42 
  -1   0  -3  331.00    6.42 
  -1   0  -3  345.87    6.86 
  -2   0  -3   22.01    0.60 
  -2   0  -3   21.94    0.73 
  -2   0  -3   22.09    0.63 
   2   0   3   21.22    0.72 
   3   0   3    0.14    0.35 
  -3   0  -3    0.07    0.21 
  -4   0  -3  134.90    2.62 
   4   0   3  126.27    2.80 
  -5   0  -3  174.06    3.43 
   5   0   3  170.07    3.66 
  -6   0  -3   73.27    1.70 
   6   0   3   73.92    1.92 
   7   0   3    1.55    0.70 
  -7   0  -3    0.54    0.40 
   8   0   3    0.98    0.71 
  -8   0  -3    1.10    0.42 
   9   0   3    3.19    0.78 
  -9   0  -3    2.11    0.46 
 -10   0  -3   25.05    1.15 
  10   0   3   23.86    1.40 
  11   0   3    4.03    0.91 
  12   1  -3   -0.06    0.85 
  11  -1  -3    4.92    0.92 
 -11  -1   3    4.54    0.84 
  11   1  -3    5.95    0.92 
 -10  -1   3    8.03    0.80 
  10  -1  -3    6.38    1.19 
  10   1  -3    8.82    1.14 
 -10   1   3   11.09    1.09 
  -9  -1   3   16.25    0.87 
   9  -1  -3   15.58    1.24 
  -9   1   3   17.15    1.15 
   9   1  -3   15.08    1.16 
  -8  -1   3    2.43    0.39 
   8  -1  -3    3.14    0.73 
  -8   1   3    3.66    0.64 
   8   1  -3    3.14    0.67 
  -7  -1   3    5.84    0.68 
   7  -1  -3    6.03    1.05 
  -7   1   3    4.57    0.89 
   7   1  -3    5.57    0.95 
  -6  -1   3   50.90    1.29 
   6  -1  -3   52.74    1.57 
   6   1  -3   51.88    1.50 
  -6   1   3   52.91    1.46 
   5  -1  -3   25.35    1.01 
  -5  -1   3   25.56    0.77 
   5   1  -3   24.29    0.94 
  -5   1   3   23.65    0.88 
  -4  -1   3   68.64    1.48 
   4  -1  -3   68.84    1.69 
  -4  -1   3   73.12    1.82 
   4   1  -3   70.30    1.65 
  -4   1   3   69.63    1.60 
   3  -1  -3   48.59    1.23 
  -3  -1   3   49.80    1.08 
  -3  -1   3   51.28    1.37 
  -3   1   3   49.62    1.18 
   3   1  -3   50.14    1.12 
   3   1  -3   50.11    1.19 
  -2  -1   3  133.43    2.98 
  -2  -1   3  136.82    2.61 
   2  -1  -3  131.19    2.83 
  -2   1   3  136.98    2.69 
   2   1  -3  137.30    2.96 
  -2   1   3  136.47    2.83 
   2   1  -3  143.99    2.76 
   2   1  -3  135.10    2.78 
  -2   1   3  135.65    2.81 
   1  -1  -3  437.58    8.47 
   1  -1  -3  431.50    8.54 
  -1  -1   3  428.24    8.12 
  -1  -1   3  426.52    9.13 
  -1   1   3  421.85    8.74 
   1   1  -3  437.17    8.66 
  -1   1   3  437.07    8.52 
   1   1  -3  414.33    8.07 
  -1   1   3  425.65    8.41 
   1   1  -3  436.27    9.24 
   0  -1  -3  259.80    5.20 
   0  -1   3  253.89    5.41 
   0  -1  -3  260.43    4.95 
   0   1   3  261.02    4.94 
   0   1  -3  264.36    5.50 
   0   1   3  261.84    5.20 
   0   1   3  258.59    5.30 
   0   1  -3  260.43    4.96 
  -1  -1  -3    6.39    0.42 
  -1  -1  -3    5.96    0.37 
  -1  -1  -3    6.56    0.34 
   1   1   3    6.68    0.42 
   1   1   3    6.06    0.50 
  -1   1  -3    6.10    0.58 
  -2  -1  -3   26.02    0.73 
  -2  -1  -3   27.24    0.76 
   2   1   3   26.29    0.83 
   2   1   3   28.22    0.73 
  -2   1  -3   28.29    0.73 
   3  -1   3   84.24    1.78 
  -3  -1  -3   82.33    1.77 
  -3  -1  -3   77.57    1.80 
  -3   1  -3   85.57    1.82 
   3   1   3   85.74    1.74 
   3   1   3   80.61    1.88 
  -4  -1  -3   13.04    0.64 
  -4  -1  -3   12.56    0.62 
   4  -1   3   12.51    0.68 
  -4   1  -3   13.77    0.74 
   4   1   3   12.55    0.79 
   4   1   3   13.84    0.60 
  -5  -1  -3   17.10    0.75 
   5  -1   3   16.65    0.84 
  -5  -1  -3   16.91    0.73 
   5   1   3   16.15    0.92 
  -6  -1  -3   99.27    2.29 
   6  -1   3   98.89    2.34 
  -6  -1  -3   97.52    2.21 
   6   1   3   97.00    2.40 
  -7  -1  -3   16.34    0.94 
   7  -1   3   15.44    1.15 
  -7  -1  -3   15.17    0.91 
   7   1   3   15.04    1.17 
  -8  -1  -3   11.55    0.86 
   8  -1   3   12.13    1.10 
  -8  -1  -3   10.97    0.89 
   8   1   3   11.74    1.09 
   9  -1   3    1.83    0.75 
  -9  -1  -3    1.71    0.57 
  -9  -1  -3    1.63    0.44 
   9   1   3    3.28    0.78 
 -10  -1  -3    6.96    0.86 
 -10  -1  -3    5.32    1.00 
  10   1   3    7.90    1.20 
 -10   1  -3    7.59    0.86 
 -11  -1  -3   16.23    1.23 
  11   1   3   16.49    1.42 
 -12  -1  -3    4.89    0.87 
  12   1   3    6.68    1.11 
 -11   2   3    5.77    0.91 
  11   2  -3    3.59    0.88 
 -10  -2   3    5.62    0.81 
 -10  -2   3    3.73    0.85 
 -10   2   3    6.88    1.25 
  10   2  -3    6.23    0.86 
  -9  -2   3    2.00    0.73 
  -9  -2   3    2.17    0.43 
   9   2  -3    3.03    0.72 
  -9   2   3    3.28    0.74 
  -8  -2   3    3.03    0.71 
  -8  -2   3    3.40    0.43 
   8  -2  -3    3.51    0.75 
   8   2  -3    5.00    0.94 
  -8   2   3    4.43    0.67 
  -7  -2   3    8.94    0.74 
   7  -2  -3    8.75    1.07 
  -7  -2   3    8.92    1.27 
  -7   2   3   10.01    0.96 
   7   2  -3    9.81    0.95 
  -6  -2   3   74.58    1.76 
  -6  -2   3   70.50    1.71 
  -6  -2   3   76.97    2.26 
   6  -2  -3   75.50    2.01 
   6   2  -3   75.40    1.96 
  -6   2   3   72.79    1.88 
   5  -2  -3   33.48    1.24 
  -5  -2   3   33.87    1.46 
  -5  -2   3   31.63    0.89 
  -5  -2   3   32.07    0.99 
   5   2  -3   33.26    1.13 
  -5   2   3   32.69    1.09 
  -4  -2   3   27.00    0.84 
   4  -2  -3   27.80    1.06 
  -4  -2   3   26.33    1.24 
  -4   2   3   25.61    0.90 
   4   2  -3   28.34    0.82 
   4   2  -3   26.69    0.77 
   4   2  -3   26.90    0.93 
   3  -2  -3  102.12    2.28 
  -3  -2   3  101.64    2.11 
  -3  -2   3  102.03    2.52 
   3   2  -3  107.30    2.10 
   3   2  -3  102.34    2.22 
  -3   2   3  101.44    2.24 
   2  -2  -3   64.96    1.49 
  -2  -2   3   62.92    1.74 
  -2  -2   3   63.62    1.36 
  -2   2   3   62.11    1.46 
   2   2  -3   63.64    1.35 
  -2   2   3   60.86    1.45 
  -2   2   3   63.17    1.49 
  -1  -2   3    5.02    0.82 
   1  -2  -3    5.34    0.47 
   1  -2  -3    5.05    0.49 
  -1  -2   3    4.80    0.38 
   1   2  -3    4.38    0.36 
  -1   2   3    4.31    0.54 
  -1   2   3    4.24    0.41 
   1   2  -3    4.25    0.74 
  -1   2   3    4.27    0.46 
  -1   2   3    4.67    0.51 
   0  -2  -3   67.45    1.53 
   0  -2  -3   69.57    1.51 
   0  -2   3   66.27    1.42 
   0  -2   3   65.25    1.77 
   0   2   3   65.29    1.52 
   0   2   3   70.81    1.58 
   0   2  -3   69.53    1.42 
   0   2  -3   67.90    1.74 
   0   2   3   67.52    1.52 
   0   2   3   67.60    1.55 
  -1  -2  -3   72.23    1.66 
  -1  -2  -3   71.92    1.58 
  -1  -2  -3   72.53    1.62 
  -1   2  -3   72.94    1.52 
   1   2   3   69.98    1.59 
   1   2   3   72.25    1.62 
   1   2   3   71.88    1.67 
   1   2   3   73.68    1.66 
  -2  -2  -3   22.42    0.68 
  -2  -2  -3   23.82    0.82 
  -2  -2  -3   23.71    0.79 
  -2   2  -3   22.41    0.67 
   2   2   3   22.80    0.88 
   2   2   3   23.34    0.78 
  -3  -2  -3   15.38    0.73 
  -3  -2  -3   15.34    0.60 
  -3  -2  -3   16.40    0.77 
   3   2   3   15.54    0.87 
  -3   2  -3   15.18    0.57 
  -3   2  -3   15.51    0.66 
  -4  -2  -3   17.08    0.89 
  -4  -2  -3   15.89    0.67 
  -4  -2  -3   16.61    0.82 
  -4   2  -3   15.72    0.69 
  -4   2  -3   15.85    0.82 
   4   2   3   17.01    0.95 
  -5  -2  -3    8.77    0.95 
  -5  -2  -3    9.34    0.74 
  -5  -2  -3    8.66    0.64 
  -5   2  -3    6.70    0.88 
  -5   2  -3    8.10    0.74 
   5   2   3    8.47    0.99 
  -6  -2  -3   17.54    0.87 
  -6  -2  -3   18.25    0.99 
  -6   2  -3   17.62    0.93 
   6   2   3   18.65    1.20 
  -7  -2  -3   14.15    0.81 
  -7  -2  -3   12.37    0.88 
   7   2   3   13.74    1.11 
  -8  -2  -3   25.09    1.02 
  -8  -2  -3   23.97    1.11 
   8   2   3   23.62    1.31 
  -9  -2  -3    3.21    0.51 
  -9  -2  -3    4.40    0.75 
   9   2   3    2.42    0.77 
 -10  -2  -3    6.74    1.08 
  10   2   3    7.58    1.24 
  11   2   3    0.52    0.86 
 -10  -3   3   -0.16    0.47 
 -10   3   3    1.07    0.84 
  10   3  -3   -0.45    0.75 
  -9  -3   3   -0.99    0.72 
  -9  -3   3   -0.18    0.40 
  -9   3   3    0.40    0.74 
   9   3  -3   -0.51    0.66 
  -8  -3   3   -0.55    0.67 
  -8  -3   3   -0.09    0.38 
  -8   3   3    1.26    0.70 
   8   3  -3    0.28    0.63 
  -7  -3   3    1.55    0.68 
  -7  -3   3    1.49    0.41 
   7   3  -3    1.05    0.58 
  -7   3   3    1.33    0.63 
  -6  -3   3    0.55    0.36 
  -6  -3   3    0.40    0.61 
  -6   3   3    0.32    0.55 
   6   3  -3    0.50    0.52 
  -5  -3   3   30.40    1.55 
  -5  -3   3   30.71    1.05 
  -5   3   3   29.71    1.10 
   5   3  -3   29.82    1.13 
  -4  -3   3    1.61    0.62 
  -4  -3   3    1.94    0.38 
   4   3  -3    1.85    0.53 
  -4   3   3    2.10    0.53 
   3  -3  -3    1.44    0.53 
  -3  -3   3    2.08    0.63 
  -3  -3   3    2.29    0.36 
   3   3  -3    2.27    0.46 
  -3   3   3    1.86    0.49 
  -2  -3   3    3.91    0.60 
  -2  -3   3    3.61    0.62 
   2   3  -3    4.64    0.54 
  -2   3   3    4.44    0.68 
  -1  -3   3    0.67    0.55 
   1  -3  -3    0.64    0.37 
  -1  -3   3    0.52    0.30 
  -1   3   3    0.47    0.39 
   1   3  -3    0.33    0.26 
  -1   3   3    0.81    0.45 
  -1   3   3    0.84    0.34 
   0  -3   3   10.95    0.65 
   0  -3   3   10.16    1.22 
   0  -3  -3    9.86    0.81 
   0   3   3    9.73    0.86 
   0   3  -3    9.67    0.57 
   0   3   3    9.69    0.77 
   0   3   3   10.18    0.57 
  -1  -3  -3   15.71    0.62 
  -1  -3  -3   16.35    0.95 
  -1  -3  -3   16.15    0.87 
   1   3   3   15.89    0.89 
  -1   3  -3   16.23    0.68 
   1   3   3   15.38    0.92 
  -2  -3  -3   -0.19    0.31 
  -2  -3  -3   -0.15    0.35 
  -2  -3  -3    0.20    0.40 
   2   3   3    0.13    0.56 
  -3  -3  -3   25.63    0.82 
  -3  -3  -3   25.07    1.17 
  -3  -3  -3   26.14    1.07 
  -3   3  -3   25.76    0.88 
  -3   3  -3   24.07    0.78 
   3   3   3   26.51    1.19 
  -4  -3  -3   16.26    0.71 
  -4  -3  -3   16.52    0.97 
  -4  -3  -3   16.09    1.09 
  -4   3  -3   15.07    0.76 
   4   3   3   15.95    1.11 
  -5  -3  -3    1.01    0.41 
  -5  -3  -3    0.62    0.47 
  -5   3  -3    1.19    0.45 
   5   3   3    1.17    0.62 
  -6  -3  -3    3.74    0.49 
  -6  -3  -3    3.37    0.56 
  -6   3  -3    4.92    0.82 
   6   3   3    4.17    0.71 
  -7  -3  -3    1.02    0.56 
  -7  -3  -3    1.34    0.46 
  -7   3  -3    2.34    0.60 
   7   3   3    1.24    0.71 
  -8  -3  -3    1.02    0.60 
  -8  -3  -3    2.29    0.50 
   8   3   3    2.06    0.74 
  -9  -3  -3   -0.96    0.62 
   9   3   3    0.62    0.77 
 -10  -3  -3   -0.02    0.73 
  10   3   3    1.54    0.90 
  -8  -4   3    0.11    0.83 
  -8   4   3    0.53    0.80 
   8   4  -3    0.33    0.71 
  -7  -4   3    2.39    0.80 
  -7  -4   3    2.40    0.51 
   7   4  -3    2.73    0.67 
  -7   4   3    3.79    0.77 
  -6  -4   3    2.76    0.48 
  -6  -4   3    2.52    0.74 
  -6   4   3    3.19    0.70 
   6   4  -3    2.26    0.60 
  -5  -4   3    2.66    0.45 
  -5  -4   3    2.24    0.71 
  -5   4   3    2.86    0.64 
   5   4  -3    2.30    0.56 
  -4  -4   3    0.26    0.66 
  -4  -4   3    0.32    0.38 
   4   4  -3   -0.02    0.48 
  -4   4   3    0.25    0.57 
  -3  -4   3    3.60    0.71 
  -3  -4   3    5.09    0.75 
   3   4  -3    2.93    0.48 
  -3   4   3    4.69    0.85 
  -2  -4   3    1.46    0.65 
  -2  -4   3    1.78    0.39 
  -2   4   3    2.58    0.53 
  -1  -4   3    0.78    0.63 
   1  -4  -3    0.35    0.43 
  -1  -4   3    0.73    0.36 
  -1   4   3    1.34    0.50 
   0  -4  -3    1.87    0.44 
   0   4   3    2.58    0.53 
  -1  -4  -3   13.88    0.96 
   1   4   3   13.78    0.95 
  -2  -4  -3    9.14    0.90 
  -2  -4  -3    8.35    1.03 
   2   4   3    8.98    0.92 
  -3  -4  -3    0.31    0.49 
  -3  -4  -3    0.13    0.42 
   3   4   3    0.26    0.60 
  -4  -4  -3    6.38    0.90 
  -4  -4  -3    5.40    1.07 
   4   4   3    6.59    1.04 
  -4   4  -3    7.67    0.71 
  -5  -4  -3   10.31    1.00 
  -5  -4  -3   11.33    1.21 
  -5   4  -3   11.53    0.89 
   5   4   3    9.89    1.13 
  -6  -4  -3    7.63    1.00 
  -6  -4  -3    7.02    1.21 
  -6   4  -3   11.08    1.02 
   6   4   3    8.72    1.18 
  -7  -4  -3    0.13    0.63 
   7   4   3   -0.10    0.74 
  -7   4  -3    1.47    0.68 
  -8   4  -3    0.93    0.75 
   8   4   3    1.04    0.84 
  -5  -5   3    2.42    0.85 
   5   5  -3    1.39    0.64 
  -5   5   3    2.51    0.78 
  -4  -5   3    2.35    0.81 
   4   5  -3    2.41    0.61 
  -4   5   3    2.78    0.75 
  -3  -5   3    0.70    0.76 
   3   5  -3    1.58    0.54 
  -3   5   3    1.71    0.72 
  -2  -5   3   -0.01    0.73 
  -2   5   3    2.26    0.64 
  -1   5   3    6.90    1.12 
   0   5   3    7.27    1.19 
  -1  -5  -3    0.17    0.49 
   1   5   3    1.12    0.65 
  -2  -5  -3    0.35    0.50 
   2   5   3    1.39    0.70 
   3   5   3   12.56    1.23 
   4   5   3    6.64    1.25 
   5   5   3    0.35    0.77 
  -5   5  -3    1.37    0.60 
  12   0  -4   -1.01    0.85 
  11   0  -4   -1.24    0.76 
 -11   0   4   -1.13    0.42 
  10   0  -4    3.67    0.80 
   9   0  -4    7.00    1.07 
   8   0  -4    3.76    0.71 
  -8   0   4    4.65    0.82 
  -7   0   4    4.91    0.89 
   7   0  -4    5.50    1.01 
   6   0  -4    1.29    0.55 
  -6   0   4    1.30    0.49 
  -5   0   4   12.75    0.69 
   5   0  -4   13.26    0.80 
   4   0  -4    3.08    0.57 
  -4   0   4    3.23    0.52 
  -3   0   4   20.58    0.66 
   3   0  -4   20.48    0.70 
   2   0  -4   17.74    0.60 
   2   0  -4   19.52    0.56 
  -2   0   4   18.86    0.57 
   1   0  -4    1.26    0.23 
  -1   0   4    0.74    0.14 
  -1   0   4    1.17    0.25 
  -1   0   4    0.98    0.23 
   1   0  -4    1.17    0.24 
   0   0   4    2.52    0.39 
   0   0  -4    2.62    0.36 
   0   0  -4    2.97    0.38 
   0   0  -4    3.59    0.47 
   0   0  -4    2.70    0.27 
   0   0   4    3.42    0.27 
   0   0   4    3.05    0.47 
   1   0   4   14.15    0.54 
  -1   0  -4   13.96    0.45 
   1   0   4   14.48    0.42 
  -1   0  -4   13.62    0.50 
  -1   0  -4   13.88    0.55 
  -1   0  -4   15.33    0.57 
   2   0   4  184.36    3.73 
   2   0   4  198.71    4.00 
  -2   0  -4  201.06    3.77 
  -2   0  -4  206.04    4.02 
  -2   0  -4  194.54    3.98 
  -3   0  -4   34.75    0.86 
  -3   0  -4   34.08    0.90 
   3   0   4   32.65    0.95 
  -4   0  -4  157.04    3.02 
   4   0   4  146.29    3.22 
  -5   0  -4    3.05    0.55 
   5   0   4    2.51    0.53 
   6   0   4   23.15    1.16 
  -6   0  -4   24.89    0.93 
   7   0   4   13.48    1.15 
  -7   0  -4   12.69    0.87 
   8   0   4   43.32    1.56 
  -8   0  -4   42.74    1.31 
   9   0   4    0.18    0.73 
  -9   0  -4   -0.22    0.42 
  10   0   4    9.62    1.26 
 -10   0  -4   10.33    0.96 
  12   1  -4   -1.13    0.84 
  11  -1  -4   -0.78    0.83 
  11   1  -4   -0.18    0.77 
  10  -1  -4   -0.59    0.75 
 -10  -1   4   -0.24    0.35 
  10   1  -4   -0.22    0.69 
 -10   1   4    0.67    0.68 
   9  -1  -4    7.23    0.87 
  -9  -1   4    8.12    0.74 
   9   1  -4    8.19    1.05 
  -9   1   4    9.69    1.11 
   8  -1  -4    6.26    1.05 
  -8  -1   4    6.91    0.70 
   8   1  -4    5.78    0.93 
  -8   1   4    8.05    0.95 
   7  -1  -4   23.12    1.27 
  -7  -1   4   22.47    0.91 
   7   1  -4   22.96    1.15 
  -7   1   4   20.88    1.11 
  -6  -1   4   48.82    1.25 
   6  -1  -4   51.11    1.56 
   6   1  -4   49.04    1.47 
  -6   1   4   49.19    1.43 
   5  -1  -4   52.33    1.48 
  -5  -1   4   53.46    1.22 
   5   1  -4   51.66    1.41 
  -5   1   4   51.67    1.37 
  -4  -1   4   51.38    1.15 
  -4  -1   4   53.72    1.55 
   4  -1  -4   51.23    1.37 
   4   1  -4   52.55    1.32 
  -4   1   4   51.78    1.29 
   3  -1  -4   25.38    0.84 
  -3  -1   4   25.76    0.65 
  -3  -1   4   26.00    1.01 
  -3   1   4   25.67    0.79 
  -3   1   4   25.52    0.76 
   3   1  -4   26.50    0.70 
   3   1  -4   26.15    0.77 
  -2  -1   4   67.23    1.68 
   2  -1  -4   65.53    1.53 
  -2  -1   4   67.24    1.33 
  -2   1   4   67.43    1.50 
  -2   1   4   67.49    1.44 
   2   1  -4   64.97    1.63 
   2   1  -4   67.39    1.46 
   2   1  -4   70.67    1.43 
   1  -1  -4   22.53    0.66 
  -1  -1   4   22.43    0.87 
   1  -1  -4   22.75    0.65 
   1   1  -4   22.76    0.82 
  -1   1   4   21.07    0.63 
   1   1  -4   22.78    0.56 
   1   1  -4   22.38    0.54 
  -1   1   4   20.88    0.66 
   0  -1  -4   25.73    0.70 
   0  -1  -4   25.62    0.71 
   0  -1   4   26.09    0.92 
   0   1   4   26.19    0.71 
   0   1   4   25.80    0.75 
   0   1  -4   27.32    0.87 
  -1  -1  -4   25.19    0.71 
  -1  -1  -4   25.70    0.71 
   1   1   4   27.16    0.72 
  -1   1  -4   25.96    0.62 
  -1   1  -4   25.93    0.86 
   1   1   4   24.86    0.77 
  -2  -1  -4   21.22    0.67 
  -2  -1  -4   19.54    0.63 
   2   1   4   21.40    0.66 
   2   1   4   19.91    0.75 
  -2   1  -4   19.52    0.82 
  -2   1  -4   20.63    0.63 
  -3  -1  -4   18.01    0.67 
   3  -1   4   17.27    0.62 
  -3  -1  -4   16.67    0.66 
   3   1   4   18.40    0.62 
   3   1   4   17.68    0.81 
  -3   1  -4   18.29    0.72 
   4  -1   4    9.43    0.64 
  -4  -1  -4    9.26    0.60 
  -4  -1  -4    9.48    0.62 
   4   1   4    8.71    0.77 
   4   1   4    9.81    0.56 
  -4   1  -4    8.97    0.71 
   5  -1   4   11.91    0.80 
  -5  -1  -4   11.20    0.72 
  -5  -1  -4   10.61    0.72 
   5   1   4   11.32    0.91 
  -6  -1  -4    2.75    0.51 
   6  -1   4    2.82    0.62 
  -6  -1  -4    2.09    0.41 
   6   1   4    2.71    0.67 
  -7  -1  -4   40.17    1.34 
   7  -1   4   40.82    1.46 
  -7  -1  -4   40.56    1.29 
   7   1   4   39.45    1.54 
  -8  -1  -4   21.93    1.00 
   8  -1   4   22.18    1.21 
  -8  -1  -4   22.17    1.06 
   8   1   4   20.82    1.26 
  -9  -1  -4    9.87    0.95 
  -9  -1  -4    9.64    0.88 
   9   1   4   10.25    1.20 
  -9   1  -4    8.94    0.84 
 -10  -1  -4   -0.26    0.45 
 -10  -1  -4   -0.96    0.57 
 -10   1  -4   -0.35    0.48 
  10   1   4   -0.34    0.75 
 -11  -1  -4    2.42    0.75 
  11   1   4    2.69    0.91 
  11   2  -4    0.25    0.79 
 -11   2   4    1.63    0.84 
 -10  -2   4   -0.05    0.79 
 -10  -2   4    0.71    0.42 
 -10   2   4    1.61    0.76 
  10   2  -4    1.55    0.74 
  -9  -2   4    9.00    1.51 
  -9  -2   4   11.52    0.82 
   9   2  -4   10.59    1.13 
  -9   2   4   11.85    1.17 
   8  -2  -4    9.63    1.16 
  -8  -2   4    9.24    1.41 
  -8  -2   4   10.85    0.76 
   8   2  -4   10.75    1.02 
  -8   2   4   10.25    1.11 
  -7  -2   4    9.62    1.29 
   7  -2  -4    9.09    1.08 
  -7  -2   4    9.02    0.71 
  -7   2   4    9.39    0.96 
   7   2  -4    8.32    0.91 
  -6  -2   4   11.40    0.71 
  -6  -2   4   11.05    1.28 
   6  -2  -4   11.41    1.12 
  -6   2   4   11.60    0.97 
   6   2  -4   12.26    0.95 
   5  -2  -4    1.23    0.61 
  -5  -2   4    1.45    0.31 
  -5  -2   4    0.98    0.57 
  -5  -2   4    1.02    0.29 
   5   2  -4    2.29    0.53 
  -5   2   4    0.80    0.51 
  -4  -2   4    7.57    0.54 
  -4  -2   4    8.53    1.08 
   4  -2  -4    8.71    0.83 
  -4   2   4    7.14    0.69 
   4   2  -4    8.01    0.49 
   4   2  -4    8.10    0.71 
   3  -2  -4   56.78    1.45 
  -3  -2   4   54.95    1.72 
  -3  -2   4   56.93    1.26 
   3   2  -4   55.35    1.26 
  -3   2   4   54.89    1.40 
   3   2  -4   57.74    1.24 
   3   2  -4   57.30    1.36 
   2  -2  -4  161.02    3.26 
  -2  -2   4  159.60    3.64 
  -2  -2   4  155.59    3.12 
   2  -2  -4  162.10    3.38 
  -2   2   4  159.46    3.37 
   2   2  -4  167.79    3.12 
   1  -2  -4  187.11    3.74 
  -1  -2   4  190.16    3.60 
  -1  -2   4  186.44    4.16 
   1  -2  -4  188.67    3.87 
  -1   2   4  189.08    3.94 
   1   2  -4  189.62    3.60 
  -1   2   4  184.54    3.88 
   0  -2  -4    4.67    0.53 
   0  -2  -4    4.91    0.45 
   0  -2   4    4.17    0.81 
   0   2   4    5.36    0.48 
   0   2  -4    5.37    0.33 
   0   2   4    4.73    0.52 
   0   2   4    5.25    0.57 
  -1  -2  -4   43.57    1.07 
  -1  -2  -4   42.85    1.12 
  -1  -2  -4   42.41    1.07 
   1   2   4   42.92    1.17 
   1   2   4   43.34    1.13 
  -1   2  -4   43.61    0.98 
  -2  -2  -4    6.58    0.56 
  -2  -2  -4    5.87    0.55 
  -2  -2  -4    5.60    0.45 
   2   2   4    6.11    0.70 
  -2   2  -4    6.19    0.39 
  -3  -2  -4  102.05    2.28 
  -3  -2  -4   99.74    2.21 
  -3  -2  -4  101.28    2.22 
   3   2   4  101.93    2.34 
  -3   2  -4  104.45    2.18 
  -3   2  -4   95.47    2.11 
  -4  -2  -4    2.63    0.52 
  -4  -2  -4    2.06    0.41 
  -4  -2  -4    2.22    0.39 
  -4   2  -4    2.18    0.50 
   4   2   4    2.37    0.60 
  -4   2  -4    2.04    0.39 
  -5  -2  -4    7.90    0.68 
  -5  -2  -4    8.00    0.81 
   5   2   4    9.54    1.03 
  -5   2  -4    7.28    0.89 
  -6  -2  -4   19.78    1.04 
  -6  -2  -4   19.26    0.90 
   6   2   4   19.87    1.24 
  -7  -2  -4   21.59    0.94 
  -7  -2  -4   21.08    1.00 
   7   2   4   20.44    1.21 
  -8  -2  -4   13.59    0.96 
  -8  -2  -4   14.64    0.90 
   8   2   4   14.65    1.21 
  -9  -2  -4    1.10    0.45 
  -9  -2  -4    1.89    0.54 
   9   2   4    1.71    0.76 
  10   2   4    4.65    0.88 
  11   2   4    1.08    0.92 
 -10  -3   4    0.39    0.48 
  10   3  -4    0.26    0.77 
 -10   3   4    1.01    0.89 
  -9  -3   4    0.31    0.81 
  -9  -3   4    0.84    0.43 
  -9   3   4    2.12    0.80 
   9   3  -4    1.26    0.70 
  -8  -3   4   10.74    1.57 
  -8  -3   4   10.07    0.87 
  -8   3   4   11.60    1.22 
   8   3  -4   10.68    1.05 
  -7  -3   4   11.52    0.85 
  -7  -3   4   10.52    1.52 
  -7   3   4   11.48    1.14 
   7   3  -4   10.19    0.98 
  -6  -3   4    1.73    0.67 
  -6  -3   4    2.31    0.40 
   6   3  -4    2.47    0.56 
  -6   3   4    2.02    0.61 
  -5  -3   4    3.21    0.65 
  -5  -3   4    4.91    0.67 
  -5   3   4    4.99    0.78 
   5   3  -4    4.73    0.75 
  -4  -3   4   39.69    1.77 
  -4  -3   4   40.58    1.14 
   4   3  -4   38.66    1.21 
  -4   3   4   37.96    1.26 
  -3  -3   4    2.05    0.65 
   3  -3  -4    2.00    0.57 
  -3  -3   4    1.85    0.34 
   3   3  -4    1.58    0.33 
  -3   3   4    1.88    0.52 
   3   3  -4    3.87    0.67 
   2  -3  -4   97.32    2.18 
  -2  -3   4   95.35    2.04 
   2  -3  -4   97.12    2.23 
  -2  -3   4   92.00    2.62 
  -2   3   4   90.11    2.31 
   2   3  -4   97.23    2.03 
  -2   3   4   95.17    2.21 
   1  -3  -4   11.60    0.84 
  -1  -3   4   11.87    1.33 
  -1  -3   4   11.95    0.65 
   1  -3  -4   12.29    0.73 
  -1   3   4   11.75    0.84 
  -1   3   4   11.97    0.87 
   1   3  -4   12.20    0.59 
   0  -3  -4   10.28    0.80 
   0  -3   4   10.13    1.32 
   0  -3  -4    9.82    0.64 
   0   3  -4   10.29    0.57 
   0   3   4   10.31    0.82 
   0   3   4    9.87    0.83 
  -1  -3  -4    8.76    0.80 
  -1  -3  -4    8.28    0.59 
   1   3   4    8.27    0.83 
  -1   3  -4    8.05    0.55 
   1   3   4    7.95    0.87 
  -2  -3  -4   27.43    1.08 
  -2  -3  -4   26.01    0.86 
  -2  -3  -4   26.51    1.08 
  -2   3  -4   25.84    0.85 
   2   3   4   26.12    1.14 
  -3  -3  -4    8.74    0.93 
  -3  -3  -4    9.59    0.85 
  -3  -3  -4    9.58    0.63 
   3   3   4    9.33    1.04 
  -4  -3  -4   10.17    0.86 
  -4  -3  -4    9.56    0.95 
  -4  -3  -4   10.30    0.65 
   4   3   4    8.35    1.05 
  -5  -3  -4   11.18    0.97 
  -5  -3  -4   12.77    0.89 
  -5   3  -4   12.41    0.78 
   5   3   4   11.68    1.07 
  -6  -3  -4   11.75    0.91 
  -6  -3  -4   10.62    1.06 
   6   3   4   10.57    1.12 
  -6   3  -4   12.19    0.89 
  -7  -3  -4    6.03    1.09 
  -7  -3  -4    6.36    0.93 
   7   3   4    8.58    1.14 
  -8  -3  -4    1.49    0.50 
  -8  -3  -4    0.55    0.58 
   8   3   4    2.18    0.77 
  -9  -3  -4   -1.35    0.61 
   9   3   4    0.03    0.80 
 -10  -3  -4   -1.33    0.69 
  10   3   4    0.52    0.90 
   8   4  -4   -0.11    0.70 
  -8   4   4    0.81    0.85 
  -7  -4   4    1.59    0.82 
  -7   4   4    2.34    0.79 
   7   4  -4    1.00    0.64 
  -6  -4   4    7.52    0.87 
  -6  -4   4    8.58    1.67 
   6   4  -4    4.94    0.89 
  -6   4   4    8.01    1.17 
  -5  -4   4    0.85    0.39 
  -5  -4   4    0.68    0.71 
  -5   4   4    1.03    0.65 
   5   4  -4    0.56    0.51 
  -4  -4   4    2.07    0.41 
  -4  -4   4    2.19    0.72 
  -4   4   4    2.68    0.63 
   4   4  -4    2.41    0.50 
  -3  -4   4    0.54    0.68 
  -3  -4   4    0.76    0.36 
  -3   4   4    0.53    0.55 
  -2  -4   4    6.42    0.70 
  -2  -4   4    7.19    1.42 
  -2   4   4    7.96    0.90 
   1  -4  -4    1.42    0.46 
  -1  -4   4    1.67    0.68 
  -1  -4   4    1.91    0.38 
  -1   4   4    2.09    0.55 
   0  -4  -4   14.46    0.99 
   0   4   4   14.75    0.97 
  -1  -4  -4   10.05    0.93 
   1   4   4    9.09    0.94 
  -2  -4  -4    9.72    0.95 
   2   4   4    9.39    0.95 
  -3  -4  -4   14.02    1.09 
  -3  -4  -4   13.38    1.01 
   3   4   4   13.44    1.08 
  -4  -4  -4    5.18    0.91 
  -4  -4  -4    6.59    1.04 
   4   4   4    5.56    1.07 
  -5  -4  -4    5.33    0.97 
  -5  -4  -4    3.65    0.59 
   5   4   4    5.93    1.12 
  -5   4  -4    6.84    0.85 
  -6  -4  -4    3.01    0.55 
  -6   4  -4    5.60    1.00 
   6   4   4    3.82    0.80 
  -7   4  -4    1.38    0.65 
   7   4   4    1.08    0.80 
   8   4   4    0.33    0.86 
  -5   5   4    2.74    0.84 
   5   5  -4    1.98    0.62 
  -4  -5   4    0.63    0.82 
  -4   5   4    0.55    0.77 
   4   5  -4    0.03    0.54 
  -3  -5   4    0.29    0.80 
  -3   5   4    1.35    0.74 
  -2  -5   4    0.12    0.75 
  -2   5   4    2.22    0.70 
   1  -5  -4    5.46    0.71 
   0  -5  -4    0.32    0.53 
   0   5   4    1.30    0.70 
  -1  -5  -4    2.70    0.59 
   1   5   4    3.94    0.74 
   2   5   4    3.54    0.77 
   3   5   4    6.83    1.32 
   4   5   4    2.38    0.82 
   5   5   4    1.36    0.85 
  12   0  -5    4.90    1.01 
  11   0  -5    7.92    1.25 
  10   0  -5    4.22    0.80 
   9   0  -5    0.92    0.70 
  -8   0   5    2.39    0.58 
   8   0  -5    2.34    0.67 
  -7   0   5   63.14    1.72 
   7   0  -5   62.92    1.86 
   6   0  -5    2.35    0.60 
  -6   0   5    1.85    0.53 
   5   0  -5   35.18    1.15 
  -5   0   5   36.08    1.07 
  -4   0   5    1.46    0.37 
   4   0  -5    1.23    0.36 
  -3   0   5   10.63    0.54 
   3   0  -5   10.43    0.57 
   2   0  -5   83.44    1.84 
  -2   0   5   84.38    1.81 
  -2   0   5   84.23    1.92 
  -2   0   5   85.91    1.68 
  -1   0   5   20.16    0.60 
   1   0  -5   20.67    0.59 
  -1   0   5   20.27    0.51 
   1   0  -5   19.63    0.61 
  -1   0   5   20.53    0.70 
   0   0  -5   14.56    0.51 
   0   0   5   15.26    0.42 
   0   0  -5   15.95    0.57 
   0   0   5   15.63    0.60 
   0   0  -5   15.65    0.42 
   0   0   5   15.75    0.52 
   0   0  -5   15.73    0.53 
  -1   0  -5    6.01    0.46 
  -1   0  -5    6.16    0.34 
   1   0   5    6.12    0.44 
  -1   0  -5    6.41    0.44 
  -1   0  -5    5.28    0.39 
   1   0   5    5.70    0.31 
  -2   0  -5  206.36    4.04 
  -2   0  -5  209.78    4.29 
   2   0   5  208.05    4.29 
   2   0   5  221.35    4.02 
   3   0   5   22.72    0.82 
  -3   0  -5   24.36    0.71 
  -3   0  -5   23.53    0.76 
   4   0   5   56.36    1.48 
  -4   0  -5   59.14    1.36 
  -4   0  -5   59.30    1.43 
   5   0   5    3.34    0.59 
  -5   0  -5    3.26    0.60 
   6   0   5    1.88    0.66 
  -6   0  -5    1.35    0.41 
   7   0   5    7.04    1.10 
  -7   0  -5    6.87    0.84 
  -8   0  -5    2.62    0.47 
   8   0   5    4.38    0.75 
   9   0   5    1.13    0.76 
  -9   0  -5    0.63    0.46 
  10   0   5   13.98    1.32 
 -10   0  -5   13.00    0.99 
 -11  -1   5    2.74    0.48 
  11  -1  -5    2.99    0.93 
  11   1  -5    4.14    0.88 
  10  -1  -5    2.15    0.81 
 -10  -1   5    2.38    0.42 
  10   1  -5    3.49    0.78 
 -10   1   5    4.36    0.76 
  -9  -1   5    4.63    0.68 
   9  -1  -5    3.41    0.78 
   9   1  -5    4.70    0.77 
  -9   1   5    4.73    0.73 
   8  -1  -5    5.00    0.77 
  -8  -1   5    5.30    0.67 
  -8   1   5    5.90    0.92 
   8   1  -5    5.69    0.94 
   7  -1  -5   11.28    1.15 
  -7  -1   5   12.25    0.75 
  -7   1   5   12.40    1.06 
   7   1  -5   11.98    1.03 
  -6  -1   5   56.15    1.85 
  -6  -1   5   54.55    1.33 
   6  -1  -5   54.61    1.67 
  -6   1   5   53.34    1.54 
   6   1  -5   53.65    1.57 
  -5  -1   5   31.98    1.38 
  -5  -1   5   32.43    0.87 
   5  -1  -5   31.60    1.17 
  -5   1   5   30.74    1.06 
   5   1  -5   31.85    1.08 
  -4  -1   5   21.23    0.62 
   4  -1  -5   20.39    0.85 
  -4  -1   5   20.76    1.07 
   4   1  -5   21.03    0.79 
  -4   1   5   20.63    0.79 
  -3  -1   5   12.36    0.86 
   3  -1  -5   10.82    0.65 
  -3  -1   5   11.55    0.43 
  -3  -1   5   10.45    0.47 
   3   1  -5   11.33    0.47 
  -3   1   5   10.67    0.60 
   3   1  -5   11.41    0.56 
  -3   1   5   10.64    0.54 
  -2  -1   5   50.96    1.06 
  -2  -1   5   53.10    1.46 
   2  -1  -5   50.60    1.28 
  -2   1   5   53.11    1.27 
  -2   1   5   54.83    1.22 
   2   1  -5   54.69    1.21 
   2   1  -5   51.85    1.40 
   2   1  -5   55.91    1.18 
   1  -1  -5   12.25    0.50 
   1  -1  -5   11.68    0.53 
  -1  -1   5   12.30    0.78 
   1   1  -5   12.51    0.43 
   1   1  -5   11.79    0.67 
  -1   1   5   11.97    0.54 
   1   1  -5   12.48    0.39 
  -1   1   5   12.48    0.50 
   0  -1   5   70.23    1.72 
   0  -1  -5   71.24    1.49 
   0  -1  -5   67.55    1.55 
   0   1  -5   67.90    1.68 
   0   1  -5   67.38    1.45 
   0   1  -5   71.55    1.45 
   0   1   5   72.51    1.49 
   0   1   5   67.35    1.56 
  -1  -1  -5   72.56    1.62 
  -1  -1  -5   73.54    1.56 
   1   1   5   71.22    1.65 
   1   1   5   75.08    1.55 
  -1   1  -5   71.09    1.53 
  -1   1  -5   72.54    1.76 
  -1   1  -5   73.53    1.53 
  -2  -1  -5   56.89    1.33 
  -2  -1  -5   56.10    1.36 
   2   1   5   57.49    1.42 
   2   1   5   60.20    1.31 
  -2   1  -5   59.74    1.32 
  -2   1  -5   55.02    1.49 
   3  -1   5  200.31    4.06 
  -3  -1  -5  197.41    3.97 
  -3  -1  -5  195.85    4.15 
   3   1   5  196.46    4.19 
  -3   1  -5  208.69    4.14 
   3   1   5  206.41    3.93 
  -4  -1  -5    6.53    0.57 
   4  -1   5    5.91    0.60 
  -4  -1  -5    5.52    0.59 
   4   1   5    5.98    0.78 
   5  -1   5   68.51    1.70 
  -5  -1  -5   67.23    1.66 
  -5  -1  -5   67.53    1.70 
   5   1   5   68.09    1.84 
  -6  -1  -5   27.54    1.09 
  -6  -1  -5   28.99    1.10 
   6  -1   5   29.85    1.20 
   6   1   5   28.94    1.32 
  -7  -1  -5   48.95    1.47 
  -7  -1  -5   48.69    1.50 
   7  -1   5   51.61    1.59 
   7   1   5   49.03    1.68 
  -8  -1  -5    1.39    0.52 
  -8  -1  -5    1.03    0.44 
   8  -1   5    1.08    0.69 
  -8   1  -5    0.75    0.45 
   8   1   5    1.76    0.74 
  -9  -1  -5   16.79    1.05 
  -9  -1  -5   15.49    1.05 
  -9   1  -5   16.90    1.02 
   9   1   5   17.86    1.30 
 -10  -1  -5    2.14    0.65 
 -10  -1  -5    1.47    0.52 
  10   1   5    1.57    0.81 
 -10   1  -5    1.09    0.50 
 -11  -1  -5    0.14    0.67 
  11   1   5    1.01    0.94 
 -11   2   5    5.54    0.95 
  11   2  -5    3.08    0.89 
 -10  -2   5   -1.58    0.78 
 -10  -2   5   -0.05    0.40 
 -10   2   5    0.87    0.76 
  10   2  -5   -0.67    0.71 
  -9  -2   5    1.10    0.75 
  -9  -2   5    1.32    0.39 
  -9   2   5    1.72    0.70 
   9   2  -5    2.00    0.70 
   8  -2  -5    2.55    0.76 
  -8  -2   5    2.76    0.73 
  -8  -2   5    2.80    0.41 
   8   2  -5    3.55    0.66 
  -8   2   5    4.44    0.73 
   7  -2  -5    5.60    1.03 
  -7  -2   5    6.27    0.65 
  -7  -2   5    5.14    0.73 
  -7   2   5    6.56    0.96 
   7   2  -5    6.95    0.87 
   6  -2  -5   12.16    1.14 
  -6  -2   5   11.87    0.71 
  -6  -2   5   12.38    1.37 
  -6   2   5   11.25    0.98 
   6   2  -5   12.12    0.94 
  -5  -2   5   24.56    1.41 
  -5  -2   5   24.13    0.85 
   5  -2  -5   25.18    1.19 
  -5   2   5   23.92    1.06 
   5   2  -5   24.91    1.04 
  -4  -2   5   20.36    1.34 
  -4  -2   5   20.59    0.70 
   4  -2  -5   20.10    1.01 
  -4   2   5   19.39    0.90 
   4   2  -5   20.36    0.68 
   4   2  -5   20.69    0.88 
  -3  -2   5    5.48    0.44 
   3  -2  -5    5.84    0.72 
  -3  -2   5    5.97    1.07 
  -3   2   5    4.97    0.66 
   3   2  -5    5.82    0.40 
   3   2  -5    6.59    0.55 
  -2  -2   5   53.71    1.65 
   2  -2  -5   53.40    1.37 
  -2  -2   5   53.71    1.15 
   2  -2  -5   53.16    1.34 
   2   2  -5   54.84    1.14 
  -2   2   5   53.33    1.37 
   2   2  -5   54.14    1.21 
   2   2  -5   52.83    1.17 
   1  -2  -5   80.38    1.84 
  -1  -2   5   82.38    2.14 
   1  -2  -5   80.33    1.81 
  -1  -2   5   82.34    1.62 
   1   2  -5   79.31    1.62 
  -1   2   5   83.26    1.80 
  -1   2   5   80.75    1.86 
   0  -2   5   81.03    2.11 
   0  -2  -5   80.08    1.80 
   0  -2  -5   81.19    1.81 
   0   2   5   77.29    1.84 
   0   2  -5   80.77    1.60 
  -1  -2  -5    0.01    0.27 
  -1  -2  -5   -0.01    0.26 
   1   2   5    0.23    0.40 
  -1   2  -5    0.10    0.15 
  -2  -2  -5   21.16    0.70 
  -2  -2  -5   20.70    0.82 
  -2  -2  -5   21.29    0.74 
   2   2   5   21.84    0.92 
  -2   2  -5   22.27    0.63 
  -3  -2  -5   10.51    0.67 
  -3  -2  -5   10.08    0.62 
  -3  -2  -5   10.52    0.76 
  -3   2  -5   10.53    0.69 
   3   2   5   10.37    0.90 
  -4  -2  -5   16.15    0.76 
  -4  -2  -5   15.73    0.89 
  -4  -2  -5   15.98    0.89 
  -4   2  -5   16.64    0.88 
   4   2   5   15.25    1.08 
  -5  -2  -5    8.68    0.72 
  -5  -2  -5    9.27    0.88 
   5   2   5    9.47    1.12 
  -5   2  -5    6.70    0.94 
  -6  -2  -5    8.00    0.87 
  -6  -2  -5    8.31    0.75 
   6   2   5    7.47    1.12 
  -7  -2  -5    3.18    0.52 
  -7  -2  -5    1.95    0.45 
   7   2   5    2.70    0.76 
  -8  -2  -5    7.32    0.82 
  -8  -2  -5    6.32    0.91 
   8   2   5    6.40    1.16 
  -9  -2  -5    7.00    0.87 
  -9  -2  -5    5.20    0.92 
   9   2   5    5.29    0.86 
  10   2   5    8.55    1.36 
  11   2   5    1.78    0.98 
 -10   3   5    4.09    0.92 
  10   3  -5    3.12    0.84 
  -9  -3   5   -0.01    0.84 
  -9   3   5    1.57    0.84 
   9   3  -5    1.18    0.71 
  -8  -3   5   -0.46    0.73 
  -8  -3   5    0.08    0.39 
   8   3  -5    0.01    0.61 
  -8   3   5    0.78    0.74 
  -7  -3   5    3.62    0.80 
  -7  -3   5    4.81    0.74 
   7   3  -5    4.92    0.68 
  -7   3   5    6.01    1.14 
  -6  -3   5    5.27    0.78 
  -6  -3   5    7.49    0.70 
  -6   3   5    6.93    1.01 
   6   3  -5    6.37    0.82 
  -5  -3   5    5.72    0.65 
  -5  -3   5    4.64    0.72 
   5   3  -5    4.69    0.72 
  -5   3   5    4.72    0.85 
  -4  -3   5   19.40    0.78 
  -4  -3   5   18.95    1.50 
   4   3  -5   19.10    0.75 
  -4   3   5   18.70    0.99 
   4   3  -5   18.46    0.85 
   3  -3  -5   10.65    0.92 
  -3  -3   5   12.02    1.46 
  -3  -3   5   11.31    0.65 
   3   3  -5   12.02    0.73 
  -3   3   5    9.87    0.86 
   3   3  -5   11.80    0.65 
   2  -3  -5   23.01    1.03 
  -2  -3   5   22.56    0.79 
   2  -3  -5   22.07    0.98 
  -2  -3   5   22.99    1.55 
  -2   3   5   21.48    1.04 
   2   3  -5   22.27    0.77 
  -2   3   5   21.76    1.00 
   1  -3  -5    9.14    0.74 
   1  -3  -5    9.10    0.84 
  -1  -3   5    9.68    0.60 
  -1  -3   5    8.17    1.36 
  -1   3   5    8.44    0.86 
   1   3  -5    9.10    0.55 
  -1   3   5    9.32    0.80 
   0  -3  -5   19.82    0.84 
   0  -3   5   20.96    1.44 
   0  -3  -5   20.67    1.00 
   0   3   5   19.21    1.01 
   0   3   5   19.50    0.89 
   0   3  -5   20.59    0.69 
  -1  -3  -5   18.77    0.97 
  -1  -3  -5   19.19    0.80 
   1   3   5   18.49    1.03 
  -1   3  -5   19.09    0.68 
  -2  -3  -5   28.06    1.04 
  -2  -3  -5   26.86    0.94 
  -2  -3  -5   27.86    1.10 
   2   3   5   27.24    1.19 
  -2   3  -5   26.52    0.85 
  -3  -3  -5    1.25    0.44 
  -3  -3  -5    0.97    0.40 
  -3  -3  -5    1.42    0.41 
   3   3   5    0.96    0.65 
  -4  -3  -5    0.90    0.40 
  -4  -3  -5    0.89    0.41 
  -4  -3  -5    1.25    0.39 
  -4   3  -5    0.94    0.38 
   4   3   5    1.17    0.65 
  -5  -3  -5   44.39    1.46 
  -5  -3  -5   44.02    1.45 
   5   3   5   44.23    1.58 
  -6  -3  -5   11.41    1.04 
  -6  -3  -5   11.26    0.98 
   6   3   5   12.58    1.18 
  -7  -3  -5    3.00    0.52 
  -7  -3  -5    1.48    0.55 
   7   3   5    3.02    0.78 
  -8  -3  -5    2.30    0.53 
  -8  -3  -5    1.09    0.59 
   8   3   5    3.07    0.83 
  -9  -3  -5    1.08    0.68 
   9   3   5    3.15    0.91 
  10   3   5    2.51    0.96 
   8   4  -5   -0.62    0.69 
  -8   4   5    0.87    0.86 
  -7  -4   5    0.98    0.86 
   7   4  -5    0.69    0.64 
  -7   4   5    2.55    0.84 
  -6  -4   5   -0.05    0.78 
  -6   4   5    0.18    0.69 
   6   4  -5   -0.40    0.56 
  -5  -4   5    0.06    0.72 
   5   4  -5   -0.27    0.50 
  -5   4   5    0.40    0.65 
  -4  -4   5    2.14    0.75 
  -4   4   5    3.77    0.68 
   4   4  -5    2.33    0.50 
  -3  -4   5   12.45    0.77 
  -3  -4   5   13.32    1.61 
  -3   4   5   12.56    1.06 
  -2  -4   5    6.30    0.69 
  -2  -4   5    5.20    0.79 
  -2   4   5    5.44    0.96 
  -1  -4   5    0.88    0.35 
  -1  -4   5    0.68    0.70 
   1  -4  -5    0.80    0.45 
  -1   4   5    1.85    0.57 
   0  -4  -5    5.18    0.84 
   0   4   5    4.97    0.94 
  -1  -4  -5   12.14    0.95 
   1   4   5   12.27    1.03 
  -2  -4  -5    1.73    0.48 
   2   4   5    2.31    0.64 
  -3  -4  -5   11.15    1.02 
   3   4   5   10.07    1.08 
  -4  -4  -5    1.56    0.49 
   4   4   5    2.53    0.70 
  -5  -4  -5    1.67    0.50 
   5   4   5    1.83    0.74 
  -5   4  -5    1.80    0.49 
  -6  -4  -5    1.41    0.52 
   6   4   5    2.83    0.80 
   7   4   5    7.89    1.35 
   8   4   5    3.10    0.95 
   5   5  -5    0.19    0.57 
  -5   5   5    2.24    0.84 
  -4   5   5    0.86    0.78 
   4   5  -5   -0.47    0.51 
  -3  -5   5    1.87    0.90 
  -3   5   5    3.91    0.83 
  -2  -5   5    1.71    0.86 
  -1   5   5    2.32    0.76 
   0   5   5    1.04    0.72 
   1   5   5    2.22    0.76 
   2   5   5    9.71    1.34 
   3   5   5    9.02    1.42 
   4   5   5    1.92    0.83 
  11   0  -6   -1.07    0.79 
  10   0  -6   -0.58    0.70 
   9   0  -6   20.15    1.30 
  -9   0   6   22.87    1.12 
   8   0  -6   -0.17    0.61 
  -8   0   6    0.33    0.55 
  -7   0   6   54.47    1.56 
   7   0  -6   54.78    1.72 
  -6   0   6    3.80    0.55 
   6   0  -6    3.46    0.61 
   5   0  -6   12.95    0.85 
  -5   0   6   13.03    0.79 
   4   0  -6   43.28    1.21 
  -4   0   6   43.31    1.14 
  -3   0   6  118.32    2.69 
   3   0  -6  120.65    2.59 
  -3   0   6  121.02    2.54 
   2   0  -6   81.69    1.83 
  -2   0   6   82.32    1.93 
  -2   0   6   83.80    1.80 
  -2   0   6   83.94    1.67 
   1   0  -6   19.78    0.69 
  -1   0   6   20.99    0.53 
   1   0  -6   20.71    0.66 
  -1   0   6   20.54    0.63 
  -1   0   6   20.37    0.75 
   0   0   6  233.52    4.86 
   0   0  -6  241.40    4.86 
   0   0   6  230.73    4.42 
   0   0  -6  239.92    4.74 
   0   0  -6  230.82    4.74 
   0   0  -6  233.41    4.43 
   0   0   6  234.12    4.73 
  -1   0  -6  140.74    2.79 
   1   0   6  147.43    2.99 
  -1   0  -6  142.38    2.99 
   1   0   6  142.38    2.78 
  -1   0  -6  149.48    3.07 
   2   0   6   11.97    0.45 
  -2   0  -6   11.72    0.57 
  -2   0  -6   12.24    0.51 
   2   0   6   12.37    0.62 
  -3   0  -6    6.40    0.49 
  -3   0  -6    6.57    0.56 
   3   0   6    6.12    0.61 
  -4   0  -6   97.89    2.15 
   4   0   6   94.15    2.17 
  -4   0  -6   92.41    2.02 
  -5   0  -6   71.42    1.68 
  -5   0  -6   74.21    1.80 
   5   0   6   69.44    1.85 
  -6   0  -6  161.34    3.48 
   6   0   6  155.47    3.53 
  -6   0  -6  156.11    3.29 
   7   0   6  105.39    2.64 
  -7   0  -6  104.52    2.54 
  -7   0  -6  108.60    2.44 
  -8   0  -6    0.10    0.43 
   8   0   6   -0.31    0.71 
  -9   0  -6    9.28    0.89 
   9   0   6    9.78    1.24 
 -10   0  -6    3.43    0.76 
 -10   0  -6    2.71    0.55 
 -11   0  -6   16.33    1.45 
  11  -1  -6    0.24    0.87 
 -11  -1   6    0.38    0.41 
  11   1  -6    0.62    0.81 
 -10  -1   6   10.36    0.80 
  10  -1  -6   10.49    1.26 
 -10   1   6   13.83    1.26 
  10   1  -6   11.37    1.18 
   9  -1  -6    0.40    0.75 
  -9  -1   6    0.79    0.36 
  -9   1   6    1.56    0.67 
   9   1  -6    1.21    0.66 
   8  -1  -6   16.44    1.22 
  -8  -1   6   18.49    1.48 
  -8  -1   6   17.73    0.83 
   8   1  -6   18.87    1.12 
  -8   1   6   18.32    1.09 
   7  -1  -6    4.31    0.77 
  -7  -1   6    3.36    0.69 
  -7  -1   6    4.35    0.62 
   7   1  -6    4.86    0.93 
  -7   1   6    4.77    0.71 
  -6  -1   6    0.77    0.65 
  -6  -1   6    0.41    0.31 
   6  -1  -6    0.40    0.64 
  -6   1   6    0.10    0.59 
   6   1  -6    1.18    0.57 
  -5  -1   6   24.10    0.73 
   5  -1  -6   24.47    1.09 
  -5  -1   6   23.43    1.26 
  -5   1   6   22.12    0.97 
   5   1  -6   22.25    0.96 
   4  -1  -6    8.59    0.75 
  -4  -1   6    9.81    1.00 
  -4  -1   6   10.13    0.47 
  -4  -1   6    9.14    0.56 
  -4   1   6    9.03    0.70 
   4   1  -6    9.44    0.64 
  -4   1   6    8.55    0.60 
   3  -1  -6   13.50    0.70 
  -3  -1   6   13.53    0.93 
  -3  -1   6   13.66    0.44 
  -3  -1   6   13.68    0.53 
   3   1  -6   13.07    0.60 
  -3   1   6   13.08    0.68 
  -3   1   6   11.91    0.58 
   3   1  -6   12.94    0.52 
   2  -1  -6   55.04    1.35 
  -2  -1   6   54.97    1.54 
   2   1  -6   55.48    1.22 
   2   1  -6   53.71    1.47 
  -2   1   6   52.78    1.32 
  -2   1   6   54.53    1.25 
   2   1  -6   54.30    1.25 
  -1  -1   6   43.50    1.34 
   1  -1  -6   44.18    1.14 
   1  -1  -6   43.26    1.06 
  -1   1   6   43.97    1.02 
   1   1  -6   45.97    1.01 
   1   1  -6   45.16    1.04 
  -1   1   6   43.20    1.14 
   1   1  -6   44.76    1.27 
  -1   1   6   45.18    1.07 
   0  -1  -6   42.76    1.03 
   0  -1   6   42.52    1.30 
   0  -1  -6   40.59    1.07 
   0   1  -6   42.46    0.96 
   0   1  -6   40.99    0.97 
   0   1   6   43.93    1.04 
   0   1  -6   41.50    1.22 
   0   1   6   41.67    1.11 
  -1  -1  -6  151.43    3.13 
  -1  -1  -6  151.49    2.97 
  -1   1  -6  146.74    3.29 
  -1   1  -6  151.74    3.04 
   1   1   6  146.98    3.14 
  -1   1  -6  142.72    2.82 
   1   1   6  155.86    2.97 
  -1   1  -6  145.97    3.04 
  -2  -1  -6   34.02    0.94 
  -2  -1  -6   34.18    0.97 
   2   1   6   33.95    1.04 
  -2   1  -6   35.55    0.93 
  -2   1  -6   31.81    0.79 
  -2   1  -6   34.07    0.88 
   2   1   6   34.59    0.92 
  -2   1  -6   33.53    1.10 
  -3  -1  -6   15.61    0.67 
   3  -1   6   15.13    0.59 
  -3  -1  -6   14.37    0.69 
   3   1   6   14.91    0.83 
   3   1   6   15.23    0.62 
  -3   1  -6   14.67    0.72 
   4  -1   6   27.45    0.90 
  -4  -1  -6   26.20    0.94 
  -4  -1  -6   27.34    0.96 
   4   1   6   27.63    1.10 
  -5  -1  -6   40.12    1.21 
   5  -1   6   40.67    1.23 
  -5  -1  -6   40.01    1.26 
   5   1   6   41.75    1.43 
  -6  -1  -6   33.79    1.22 
   6  -1   6   34.84    1.27 
  -6  -1  -6   33.41    1.22 
  -6   1  -6   35.43    1.14 
   6   1   6   35.86    1.45 
  -7  -1  -6   34.64    1.25 
  -7  -1  -6   36.71    1.28 
   7  -1   6   37.07    1.34 
   7   1   6   34.66    1.47 
  -7   1  -6   34.94    1.18 
  -8  -1  -6    1.49    0.45 
  -8  -1  -6    1.57    0.56 
  -8   1  -6    1.35    0.45 
   8   1   6    1.64    0.75 
  -9  -1  -6    0.18    0.44 
  -9  -1  -6    0.84    0.59 
   9   1   6    1.32    0.80 
  -9   1  -6    0.62    0.49 
 -10  -1  -6    8.98    1.03 
 -10  -1  -6    7.67    1.00 
  10   1   6    8.92    1.35 
 -10   1  -6    7.40    0.96 
 -11  -1  -6    3.76    0.77 
  11   1   6    3.61    1.01 
 -11   2   6    1.89    0.89 
  11   2  -6    0.63    0.83 
 -10  -2   6    0.39    0.87 
 -10  -2   6    1.33    0.44 
  10   2  -6    1.35    0.77 
 -10   2   6    3.27    0.86 
  -9  -2   6    5.34    0.88 
  -9  -2   6    5.99    0.76 
   9   2  -6    7.19    1.05 
  -9   2   6    8.60    1.24 
  -8  -2   6    0.34    0.34 
  -8  -2   6   -0.28    0.69 
   8  -2  -6   -0.31    0.72 
   8   2  -6    0.82    0.60 
  -8   2   6    1.31    0.71 
   7  -2  -6    3.50    0.74 
  -7  -2   6    2.74    0.37 
  -7  -2   6    2.83    0.70 
   7   2  -6    3.36    0.62 
  -7   2   6    4.73    0.70 
  -6  -2   6    5.00    0.73 
  -6  -2   6    6.63    0.63 
   6  -2  -6    6.23    1.07 
   6   2  -6    6.37    0.84 
  -6   2   6    7.51    0.94 
   5  -2  -6   54.14    1.66 
  -5  -2   6   55.33    1.32 
  -5  -2   6   54.16    1.96 
   5   2  -6   54.97    1.54 
  -5   2   6   54.25    1.57 
   4  -2  -6   32.86    1.22 
  -4  -2   6   33.06    0.88 
  -4  -2   6   32.79    1.56 
   4   2  -6   32.52    1.05 
   4   2  -6   33.23    0.93 
  -4   2   6   32.46    1.14 
  -3  -2   6    8.18    0.46 
   3  -2  -6    8.56    0.79 
  -3  -2   6    8.28    1.18 
  -3   2   6    9.05    0.78 
   3   2  -6    9.08    0.47 
   3   2  -6    9.47    0.58 
   2  -2  -6   14.51    0.71 
  -2  -2   6   13.10    1.17 
   2  -2  -6   13.89    0.75 
  -2  -2   6   13.62    0.46 
  -2   2   6   13.52    0.79 
   1  -2  -6   74.37    1.72 
  -1  -2   6   75.37    2.05 
   1  -2  -6   76.73    1.76 
  -1   2   6   74.88    1.79 
   1   2  -6   72.01    1.46 
   0  -2  -6   38.21    1.06 
   0  -2  -6   36.77    1.07 
   0  -2   6   36.49    1.41 
   0   2   6   37.40    1.12 
   0   2  -6   37.52    0.80 
  -1  -2  -6    0.27    0.28 
  -1  -2  -6    0.43    0.32 
   1   2   6    0.45    0.46 
  -1   2  -6    0.23    0.15 
  -2  -2  -6   33.80    1.01 
  -2  -2  -6   32.72    1.06 
   2   2   6   33.26    1.16 
  -2   2  -6   33.91    0.83 
  -3  -2  -6   14.16    0.71 
  -3  -2  -6   14.25    0.82 
  -3  -2  -6   14.23    0.74 
   3   2   6   14.31    1.01 
  -3   2  -6   14.57    0.79 
  -4  -2  -6    6.34    0.76 
  -4  -2  -6    7.54    0.70 
  -4  -2  -6    6.97    0.82 
   4   2   6    6.98    1.02 
  -4   2  -6    6.13    0.84 
  -5  -2  -6   16.44    0.86 
  -5  -2  -6   16.86    1.00 
   5   2   6   17.55    1.24 
  -6  -2  -6    6.24    0.87 
  -6  -2  -6    6.87    0.76 
   6   2   6    6.95    1.08 
  -7  -2  -6    3.19    0.50 
  -7  -2  -6    4.19    0.74 
   7   2   6    3.71    0.79 
  -8  -2  -6    4.45    0.57 
  -8  -2  -6    6.42    0.81 
   8   2   6    6.06    1.20 
  -9  -2  -6    1.81    0.57 
  -9  -2  -6    1.02    0.50 
   9   2   6    1.63    0.80 
  10   2   6    0.46    0.89 
  -9   3   6    1.69    0.86 
   9   3  -6   -0.38    0.68 
  -8  -3   6    0.95    0.80 
   8   3  -6    1.23    0.64 
  -8   3   6    2.46    0.78 
  -7  -3   6    5.43    0.85 
  -7  -3   6    5.98    0.77 
  -7   3   6    8.17    1.21 
   7   3  -6    5.80    0.89 
  -6  -3   6    5.38    0.67 
  -6  -3   6    3.85    0.76 
   6   3  -6    4.89    0.79 
  -6   3   6    6.69    1.06 
  -5  -3   6    1.38    0.33 
  -5  -3   6    1.01    0.65 
  -5   3   6    1.60    0.60 
   5   3  -6    1.36    0.47 
   4  -3  -6    2.82    0.65 
  -4  -3   6    3.03    0.55 
  -4  -3   6    2.28    0.67 
  -4   3   6    2.34    0.57 
   4   3  -6    2.32    0.45 
   3  -3  -6    4.67    0.63 
  -3  -3   6    4.28    0.73 
  -3  -3   6    5.19    0.55 
   3   3  -6    4.68    0.64 
  -3   3   6    4.36    0.80 
   3   3  -6    4.08    0.50 
  -2  -3   6   18.86    0.68 
  -2  -3   6   17.94    1.54 
   2  -3  -6   18.84    1.01 
   2  -3  -6   17.61    0.95 
   2   3  -6   17.05    0.67 
  -2   3   6   18.04    0.92 
  -2   3   6   16.78    1.00 
  -1  -3   6    0.93    0.67 
   1  -3  -6    0.89    0.49 
   1  -3  -6    1.13    0.42 
   1   3  -6    0.81    0.26 
  -1   3   6    0.74    0.35 
  -1   3   6    1.35    0.59 
   0  -3   6   16.30    1.52 
   0  -3  -6   13.09    0.90 
   0  -3  -6   12.76    0.78 
   0   3   6   13.15    0.98 
   0   3   6   11.84    0.79 
   0   3  -6   13.45    0.57 
  -1  -3  -6    5.80    0.68 
  -1  -3  -6    5.96    0.83 
  -1   3  -6    5.86    0.49 
   1   3   6    6.44    0.95 
  -2  -3  -6    7.54    0.87 
  -2  -3  -6    7.66    0.72 
  -2   3  -6    8.30    0.54 
   2   3   6    6.80    0.96 
  -3  -3  -6   11.46    0.92 
  -3  -3  -6   11.61    0.78 
  -3  -3  -6   11.50    0.74 
   3   3   6   10.47    1.01 
  -4  -3  -6    6.18    0.76 
  -4  -3  -6    6.09    0.84 
  -4  -3  -6    6.48    0.67 
   4   3   6    6.35    1.03 
  -5  -3  -6    5.25    0.83 
  -5  -3  -6    5.39    0.83 
   5   3   6    5.37    0.80 
  -6  -3  -6    2.48    0.50 
  -6  -3  -6    1.70    0.50 
   6   3   6    2.77    0.76 
  -7  -3  -6    2.72    0.57 
  -7  -3  -6    3.28    0.54 
   7   3   6    5.18    0.86 
   8   3   6    2.74    0.85 
   9   3   6    3.53    0.95 
   8   4  -6    1.44    0.73 
  -8   4   6    2.83    0.93 
   7   4  -6    0.21    0.62 
  -7   4   6    0.85    0.83 
  -6  -4   6    1.45    0.85 
  -6   4   6    2.98    0.80 
   6   4  -6    2.38    0.59 
  -5  -4   6    4.89    0.87 
   5   4  -6    4.49    0.80 
  -5   4   6    6.49    1.19 
  -4  -4   6    8.01    1.62 
  -4   4   6    8.57    1.14 
   4   4  -6    6.14    0.73 
  -3  -4   6    2.99    0.79 
  -3   4   6    3.45    0.67 
  -2  -4   6    1.84    0.75 
  -2   4   6    2.18    0.63 
  -1  -4   6    2.21    0.76 
   1  -4  -6    2.32    0.50 
  -1   4   6    3.19    0.67 
   0  -4  -6    6.35    0.91 
   0   4   6    5.67    0.99 
  -1  -4  -6    1.06    0.46 
   1   4   6    0.95    0.65 
  -2  -4  -6   19.59    1.15 
   2   4   6   20.89    1.26 
  -3  -4  -6    9.23    1.01 
   3   4   6    8.44    1.10 
  -4  -4  -6    8.38    0.96 
   4   4   6    9.05    1.16 
  -5  -4  -6    1.22    0.51 
   5   4   6    1.47    0.74 
   6   4   6    7.55    1.29 
   7   4   6    4.82    0.96 
  -4   5   6    0.76    0.86 
  -3   5   6    5.77    0.91 
  -2  -5   6    0.26    0.87 
  -2   5   6    3.78    0.84 
  -1   5   6    1.99    0.82 
   0   5   6    2.87    0.81 
   1   5   6    7.79    1.38 
   2   5   6    1.39    0.84 
   3   5   6    1.00    0.87 
   4   5   6    3.04    0.92 
  11   0  -7    0.45    0.84 
  10   0  -7   -0.65    0.72 
   9   0  -7    0.23    0.70 
  -9   0   7    0.79    0.61 
  -8   0   7    6.61    0.90 
   8   0  -7    5.31    1.02 
   7   0  -7   51.18    1.66 
  -7   0   7   51.24    1.50 
   6   0  -7    0.69    0.59 
  -6   0   7    0.62    0.54 
  -5   0   7    8.64    0.78 
   5   0  -7    9.55    0.82 
  -4   0   7    2.40    0.48 
   4   0  -7    2.90    0.44 
  -4   0   7    2.80    0.45 
  -3   0   7    9.05    0.46 
  -3   0   7   10.48    0.83 
  -3   0   7    9.71    0.59 
   3   0  -7    9.87    0.62 
  -2   0   7    0.81    0.32 
   2   0  -7    0.79    0.30 
  -2   0   7    0.61    0.18 
  -2   0   7    0.67    0.32 
   1   0  -7    0.21    0.29 
   1   0  -7    0.39    0.26 
  -1   0   7    0.23    0.17 
  -1   0   7   -0.01    0.29 
  -1   0   7    0.20    0.31 
   0   0   7    5.55    0.36 
   0   0  -7    5.76    0.33 
   0   0   7    6.35    0.62 
   0   0  -7    5.49    0.47 
   0   0  -7    6.10    0.55 
   0   0   7    6.08    0.50 
   1   0   7   34.04    0.94 
  -1   0  -7   34.41    0.96 
  -1   0  -7   32.97    0.81 
   1   0   7   33.24    0.80 
  -1   0  -7   33.53    0.93 
  -2   0  -7  130.06    2.74 
   2   0   7  128.67    2.73 
  -2   0  -7  131.59    2.81 
  -2   0  -7  129.51    2.56 
   2   0   7  120.94    2.50 
  -3   0  -7   48.52    1.18 
   3   0   7   46.21    1.26 
  -3   0  -7   49.16    1.26 
   4   0   7    5.95    0.78 
  -4   0  -7    5.74    0.59 
  -4   0  -7    6.21    0.71 
  -5   0  -7   56.27    1.44 
  -5   0  -7   55.98    1.55 
   5   0   7   54.63    1.61 
  -6   0  -7   78.98    1.90 
  -6   0  -7   76.73    1.99 
   6   0   7   75.30    2.07 
  -7   0  -7   58.29    1.59 
  -7   0  -7   56.69    1.67 
   7   0   7   56.48    1.76 
  -8   0  -7    1.22    0.60 
   8   0   7    0.73    0.73 
  -8   0  -7    0.64    0.45 
  -9   0  -7    9.21    0.98 
   9   0   7    9.90    1.24 
  -9   0  -7    9.45    1.08 
 -10   0  -7    1.49    0.72 
 -10   0  -7    1.19    0.55 
 -11   0  -7   -0.44    0.75 
 -11  -1   7   -0.20    0.41 
  11  -1  -7   -0.62    0.88 
  11   1  -7   -0.10    0.83 
 -11   1   7    2.38    0.83 
 -10  -1   7   -1.42    0.77 
  10  -1  -7   -0.71    0.76 
 -10  -1   7   -0.15    0.37 
  10   1  -7   -0.75    0.68 
 -10   1   7    0.11    0.72 
  -9  -1   7    0.22    0.75 
   9  -1  -7    0.00    0.75 
  -9  -1   7    0.32    0.35 
  -9   1   7    1.31    0.70 
   9   1  -7    0.27    0.67 
   8  -1  -7   11.19    1.18 
  -8  -1   7   12.28    0.74 
  -8  -1   7   13.66    1.56 
  -8   1   7   11.95    1.07 
   8   1  -7   12.16    1.05 
  -7  -1   7   20.47    0.79 
  -7  -1   7   21.05    1.51 
   7  -1  -7   18.56    1.22 
  -7   1   7   20.08    1.13 
   7   1  -7   20.02    1.10 
   6  -1  -7    6.57    1.02 
  -6  -1   7    7.28    1.37 
  -6  -1   7    5.93    0.57 
   6   1  -7    6.36    0.90 
  -6   1   7    5.08    0.95 
   5  -1  -7    6.36    0.89 
  -5  -1   7    6.69    0.66 
  -5  -1   7    7.07    0.53 
  -5  -1   7    7.31    1.22 
  -5   1   7    6.10    0.82 
   5   1  -7    7.10    0.78 
   4  -1  -7   13.71    0.85 
  -4  -1   7   13.92    0.52 
  -4  -1   7   13.71    1.18 
  -4  -1   7   13.58    0.66 
  -4   1   7   12.40    0.81 
   4   1  -7   12.80    0.74 
   3  -1  -7  118.56    2.61 
  -3  -1   7  114.43    2.25 
  -3  -1   7  121.15    2.80 
  -3  -1   7  116.37    2.44 
   3   1  -7  117.93    2.53 
   3   1  -7  117.51    2.48 
  -3   1   7  112.09    2.42 
  -3   1   7  115.08    2.56 
  -2  -1   7   13.56    0.97 
   2  -1  -7   14.21    0.67 
   2   1  -7   14.22    0.57 
  -2   1   7   13.47    0.59 
   2   1  -7   14.47    0.53 
  -2   1   7   13.49    0.70 
  -1  -1   7   62.09    1.71 
   1  -1  -7   61.87    1.38 
   1  -1  -7   60.86    1.49 
  -1   1   7   59.97    1.39 
   1   1  -7   61.69    1.40 
  -1   1   7   60.36    1.49 
   1   1  -7   61.23    1.63 
   1   1  -7   64.75    1.38 
   0  -1  -7    7.55    0.48 
   0  -1  -7    7.94    0.56 
   0  -1   7    7.21    0.87 
   0   1   7    7.83    0.51 
   0   1  -7    6.73    0.44 
   0   1  -7    8.25    0.43 
   0   1  -7    7.85    0.73 
   0   1   7    7.70    0.63 
  -1  -1  -7   26.40    0.80 
  -1  -1  -7   26.94    0.85 
   1   1   7   26.73    0.91 
   1   1   7   28.29    0.82 
  -1   1  -7   25.56    0.61 
  -1   1  -7   28.10    0.77 
  -1   1  -7   26.98    0.76 
  -1   1  -7   27.59    1.02 
  -2  -1  -7   72.47    1.65 
  -2  -1  -7   73.42    1.73 
   2   1   7   73.54    1.77 
  -2   1  -7   69.10    1.50 
  -2   1  -7   76.64    1.68 
  -2   1  -7   72.57    1.64 
   2   1   7   76.45    1.63 
  -3  -1  -7   26.71    0.93 
  -3  -1  -7   26.67    0.90 
   3  -1   7   27.19    0.81 
   3   1   7   26.42    1.04 
  -3   1  -7   26.28    0.95 
  -3   1  -7   27.89    0.87 
  -3   1  -7   26.47    0.76 
   4  -1   7   21.72    0.84 
  -4  -1  -7   21.72    0.94 
  -4  -1  -7   21.56    0.91 
   4   1   7   22.69    1.10 
  -4   1  -7   23.64    0.89 
  -4   1  -7   22.11    0.79 
  -5  -1  -7    0.92    0.40 
  -5  -1  -7    1.14    0.52 
   5  -1   7    0.91    0.52 
  -5   1  -7    1.31    0.39 
   5   1   7    0.68    0.67 
  -6  -1  -7   25.66    1.13 
   6  -1   7   25.62    1.12 
  -6  -1  -7   25.53    1.10 
   6   1   7   24.77    1.33 
  -6   1  -7   24.53    0.99 
  -7  -1  -7    0.32    0.51 
  -7  -1  -7    0.07    0.40 
   7   1   7    0.52    0.69 
  -7   1  -7   -0.46    0.41 
  -8  -1  -7   14.93    1.03 
  -8  -1  -7   16.76    1.04 
   8   1   7   16.06    1.28 
  -8   1  -7   15.61    0.95 
  -9  -1  -7    0.61    0.49 
  -9  -1  -7    1.98    0.63 
   9   1   7    1.54    0.82 
  -9   1  -7    1.09    0.50 
 -10  -1  -7   13.95    1.14 
  10   1   7   14.32    1.43 
 -10   1  -7   11.36    1.07 
 -11  -1  -7    1.26    0.74 
  11   1   7    0.58    0.96 
 -10   2   7    0.57    0.81 
  10   2  -7   -0.73    0.71 
  -9  -2   7    1.16    0.84 
  -9  -2   7    2.01    0.42 
   9   2  -7    2.28    0.70 
  -9   2   7    4.13    0.83 
  -8  -2   7   10.06    0.76 
  -8  -2   7   10.01    1.58 
   8  -2  -7    9.64    1.26 
  -8   2   7   11.67    1.23 
   8   2  -7   10.65    1.03 
   7  -2  -7   -0.05    0.70 
  -7  -2   7    0.51    0.68 
  -7  -2   7    0.50    0.32 
   7   2  -7    0.65    0.55 
  -7   2   7    0.33    0.68 
  -6  -2   7    4.03    0.60 
  -6  -2   7    3.75    0.70 
   6  -2  -7    4.37    0.72 
   6   2  -7    4.43    0.80 
  -6   2   7    4.67    0.66 
   5  -2  -7    0.20    0.65 
  -5  -2   7    1.06    0.67 
  -5  -2   7    0.96    0.29 
  -5   2   7    2.10    0.62 
   5   2  -7    1.65    0.51 
   4  -2  -7   18.31    1.08 
  -4  -2   7   17.42    0.65 
  -4  -2   7   18.90    1.47 
  -4   2   7   17.79    1.03 
   4   2  -7   18.57    0.70 
   4   2  -7   17.82    0.83 
  -3  -2   7    0.30    0.59 
  -3  -2   7    0.74    0.20 
   3  -2  -7    0.96    0.51 
  -3   2   7    1.07    0.53 
   3   2  -7    0.91    0.28 
   3   2  -7    1.14    0.36 
   2  -2  -7   21.68    0.92 
  -2  -2   7   20.02    1.37 
   2  -2  -7   22.41    0.89 
  -2   2   7   21.45    0.97 
   2   2  -7   22.09    0.65 
   2   2  -7   22.73    0.71 
   1  -2  -7    7.55    0.66 
  -1  -2   7    7.07    1.11 
   1  -2  -7    7.95    0.67 
  -1   2   7    7.43    0.79 
   0  -2  -7    3.15    0.60 
   0  -2  -7    4.12    0.62 
   0  -2   7    2.27    0.58 
   0   2   7    3.08    0.54 
  -1  -2  -7   -0.31    0.36 
  -1  -2  -7   -0.07    0.30 
   1   2   7    0.22    0.51 
  -1   2  -7    0.20    0.14 
  -2  -2  -7   47.91    1.33 
  -2  -2  -7   48.97    1.34 
  -2   2  -7   49.48    1.21 
  -2   2  -7   49.21    1.08 
   2   2   7   46.70    1.45 
  -3  -2  -7   19.14    0.73 
  -3  -2  -7   18.49    0.90 
  -3  -2  -7   18.79    0.87 
   3   2   7   19.91    1.10 
  -3   2  -7   20.23    0.87 
  -4  -2  -7   58.93    1.53 
  -4  -2  -7   58.13    1.60 
  -4  -2  -7   57.15    1.62 
   4   2   7   58.72    1.78 
  -4   2  -7   60.85    1.63 
  -5  -2  -7    6.98    0.77 
  -5  -2  -7    7.47    0.88 
   5   2   7    6.67    1.10 
  -6  -2  -7    1.93    0.45 
  -6  -2  -7    3.28    0.52 
   6   2   7    1.84    0.70 
  -7  -2  -7    5.80    0.90 
  -7  -2  -7    6.97    0.84 
   7   2   7    5.32    0.82 
  -8  -2  -7    6.13    0.87 
  -8  -2  -7    3.72    0.57 
   8   2   7    5.28    0.87 
  -9  -2  -7    7.56    0.94 
   9   2   7    5.86    0.97 
  10   2   7    1.18    0.93 
  -9   3   7    4.08    0.94 
   9   3  -7    2.59    0.78 
  -8  -3   7    1.88    0.85 
   8   3  -7    2.17    0.66 
  -8   3   7    2.81    0.82 
  -7  -3   7    1.99    0.80 
   7   3  -7    3.47    0.62 
  -7   3   7    3.48    0.77 
  -6  -3   7    1.17    0.73 
  -6   3   7    1.40    0.69 
   6   3  -7    0.79    0.51 
  -5  -3   7    1.10    0.71 
   5   3  -7    1.48    0.48 
  -5   3   7    2.13    0.66 
  -4  -3   7    4.05    0.52 
  -4  -3   7    2.62    0.72 
   4  -3  -7    2.69    0.65 
   4   3  -7    3.31    0.48 
  -4   3   7    2.87    0.61 
  -3  -3   7   49.28    1.97 
  -3  -3   7   48.46    1.13 
   3  -3  -7   46.78    1.46 
   3   3  -7   47.04    1.23 
  -3   3   7   44.14    1.43 
  -2  -3   7    2.64    0.70 
   2  -3  -7    2.67    0.46 
   2  -3  -7    2.13    0.56 
  -2  -3   7    3.20    0.44 
   2   3  -7    2.02    0.27 
  -2   3   7    2.08    0.58 
   1  -3  -7    7.05    0.80 
  -1  -3   7    8.19    1.46 
   1  -3  -7    7.87    0.85 
   1   3  -7    7.06    0.47 
  -1   3   7    7.55    0.94 
   0  -3  -7    7.23    0.75 
   0  -3   7    9.94    1.47 
   0  -3  -7    7.77    0.87 
   0   3  -7    6.72    0.45 
   0   3   7    6.75    0.95 
  -1  -3  -7   41.80    1.34 
  -1  -3  -7   41.92    1.27 
  -1   3  -7   40.38    1.00 
   1   3   7   39.50    1.40 
  -2  -3  -7   53.26    1.46 
  -2  -3  -7   53.11    1.57 
  -2   3  -7   52.54    1.24 
   2   3   7   50.31    1.61 
  -3  -3  -7    8.01    0.86 
  -3  -3  -7    8.10    0.73 
  -3  -3  -7    7.54    0.64 
   3   3   7    7.37    1.00 
  -3   3  -7    7.94    0.53 
  -4  -3  -7    7.80    0.73 
  -4  -3  -7    7.71    0.73 
  -4  -3  -7    7.69    0.83 
   4   3   7    8.18    1.08 
  -5  -3  -7    6.40    0.90 
   5   3   7    6.75    1.14 
  -6  -3  -7    3.36    0.54 
   6   3   7    3.75    0.84 
  -7  -3  -7    6.11    0.99 
   7   3   7    8.69    1.26 
   8   3   7    4.78    0.91 
   9   3   7    8.20    1.48 
  -7   4   7    1.25    0.89 
   7   4  -7    0.90    0.64 
  -6  -4   7    4.55    0.96 
  -6   4   7    4.99    0.89 
   6   4  -7    3.93    0.64 
  -5  -4   7    4.83    0.92 
  -5   4   7    7.63    1.30 
   5   4  -7    5.49    0.79 
  -4  -4   7    4.26    0.85 
  -4   4   7    4.21    0.76 
   4   4  -7    2.96    0.50 
  -3  -4   7   15.21    1.72 
  -3   4   7   14.22    1.23 
  -2  -4   7    4.33    0.83 
  -2   4   7    6.53    1.14 
  -1  -4   7    5.33    0.86 
   1  -4  -7    7.20    0.96 
  -1   4   7    7.94    1.21 
   0  -4  -7    0.18    0.43 
   0   4   7    0.16    0.65 
  -1  -4  -7    6.99    0.92 
   1   4   7    7.43    1.12 
  -2  -4  -7    9.91    1.02 
   2   4   7    9.81    1.17 
  -3  -4  -7    8.28    0.96 
   3   4   7    8.06    1.20 
  -4  -4  -7    8.35    1.03 
   4   4   7    8.83    1.21 
   5   4   7    2.48    0.82 
   6   4   7    6.85    1.34 
   7   4   7    4.02    0.96 
  -3   5   7    2.40    0.90 
  -2   5   7    2.23    0.86 
  -1   5   7    1.78    0.86 
   0   5   7   10.70    1.48 
   1   5   7    2.41    0.89 
   2   5   7    1.80    0.89 
   3   5   7    1.69    0.93 
  11   0  -8    5.01    0.98 
  10   0  -8    6.66    0.92 
 -10   0   8    9.07    1.05 
  -9   0   8    6.81    0.95 
   9   0  -8    5.17    0.84 
  -8   0   8   11.62    0.95 
   8   0  -8    9.34    1.11 
   7   0  -8   -0.07    0.58 
  -7   0   8    0.23    0.51 
  -6   0   8   74.34    1.90 
   6   0  -8   74.21    2.02 
  -5   0   8    1.00    0.59 
   5   0  -8    0.61    0.52 
  -5   0   8    0.36    0.52 
   4   0  -8    0.30    0.44 
  -4   0   8    0.37    0.26 
  -4   0   8    0.35    0.46 
  -4   0   8    0.37    0.50 
   3   0  -8   86.07    2.01 
  -3   0   8   88.23    2.15 
  -3   0   8   85.68    1.95 
  -3   0   8   86.46    1.79 
  -2   0   8   33.82    1.12 
  -2   0   8   34.86    0.83 
  -2   0   8   32.77    0.95 
   2   0  -8   33.33    0.97 
   1   0  -8   12.92    0.70 
  -1   0   8   13.89    0.80 
  -1   0   8   13.70    0.48 
  -1   0   8   13.04    0.62 
   1   0  -8   13.11    0.64 
   0   0   8  117.39    2.51 
   0   0  -8  115.40    2.30 
   0   0   8  120.44    2.30 
   0   0   8  117.43    2.61 
   0   0  -8  114.85    2.53 
   0   0  -8  119.81    2.59 
  -1   0  -8    0.07    0.18 
   1   0   8    0.13    0.20 
   1   0   8   -0.06    0.36 
  -1   0  -8    0.07    0.26 
  -1   0  -8    0.32    0.32 
  -2   0  -8   10.83    0.64 
  -2   0  -8   10.35    0.53 
   2   0   8    9.94    0.49 
  -2   0  -8   10.94    0.67 
   2   0   8   10.32    0.67 
  -3   0  -8   62.91    1.66 
  -3   0  -8   63.77    1.48 
  -3   0  -8   64.33    1.61 
   3   0   8   65.78    1.61 
  -4   0  -8   15.18    0.77 
   4   0   8   14.51    0.94 
  -4   0  -8   14.40    0.85 
  -5   0  -8    4.30    0.83 
   5   0   8    4.01    0.68 
  -5   0  -8    5.22    0.71 
   6   0   8   25.48    1.25 
  -6   0  -8   25.48    1.14 
  -6   0  -8   25.58    1.05 
  -7   0  -8    4.68    0.88 
  -7   0  -8    2.94    0.49 
   7   0   8    6.11    1.01 
  -8   0  -8    0.18    0.47 
  -8   0  -8    0.35    0.59 
   8   0   8    1.03    0.73 
  -9   0  -8    7.77    0.98 
  -9   0  -8    9.27    1.03 
 -10   0  -8    1.57    0.72 
 -11   0  -8    3.93    0.85 
  11  -1  -8   -0.69    0.90 
 -11   1   8    2.65    0.87 
  11   1  -8    0.23    0.83 
  10  -1  -8    3.82    0.90 
 -10  -1   8    3.08    0.45 
 -10  -1   8    2.44    0.93 
  10   1  -8    5.46    0.86 
  -9  -1   8    1.95    0.84 
  -9  -1   8    1.87    0.39 
   9  -1  -8    3.27    0.82 
  -9   1   8    5.48    1.08 
   9   1  -8    3.35    0.76 
  -8  -1   8   12.88    1.59 
  -8  -1   8   12.22    0.76 
   8  -1  -8   11.37    1.20 
  -8   1   8   12.57    1.18 
   8   1  -8   12.47    1.09 
  -7  -1   8    2.35    0.34 
   7  -1  -8    3.41    0.72 
  -7  -1   8    1.97    0.70 
  -7   1   8    2.82    0.65 
   7   1  -8    3.20    0.64 
  -6  -1   8    9.63    0.75 
  -6  -1   8    9.79    1.34 
  -6  -1   8    8.33    0.59 
   6  -1  -8    9.00    1.06 
  -6   1   8    9.47    1.01 
   6   1  -8    9.52    0.91 
  -5  -1   8   28.72    0.84 
  -5  -1   8   30.60    1.56 
   5  -1  -8   29.60    1.24 
  -5  -1   8   28.71    0.98 
  -5   1   8   29.68    1.16 
   5   1  -8   29.76    1.11 
  -4  -1   8   21.35    1.32 
  -4  -1   8   19.39    0.62 
  -4  -1   8   19.86    0.77 
   4  -1  -8   20.03    1.01 
  -4   1   8   19.56    0.96 
   4   1  -8   21.00    0.88 
  -3  -1   8    2.79    0.49 
  -3  -1   8    2.99    0.32 
  -3  -1   8    2.50    0.55 
   3  -1  -8    2.64    0.49 
   3   1  -8    3.22    0.57 
  -3   1   8    2.95    0.55 
  -3   1   8    2.09    0.31 
   2  -1  -8    8.50    0.64 
  -2  -1   8    7.59    0.99 
  -2   1   8    8.06    0.54 
  -2   1   8    9.49    0.68 
   2   1  -8    8.89    0.55 
  -2   1   8    8.22    0.69 
   2   1  -8    8.20    0.48 
   1  -1  -8   84.87    1.85 
   1  -1  -8   85.25    2.01 
  -1  -1   8   87.34    2.21 
   1   1  -8   86.85    1.92 
   1   1  -8   88.81    1.89 
  -1   1   8   87.96    1.88 
  -1   1   8   89.73    2.03 
  -1   1   8   84.01    1.86 
   0  -1  -8   64.18    1.57 
   0  -1  -8   63.38    1.45 
   0  -1   8   65.62    1.78 
   0   1   8   63.03    1.59 
   0   1  -8   63.49    1.47 
   0   1  -8   65.40    1.46 
   0   1   8   63.88    1.46 
  -1  -1  -8   32.41    1.02 
  -1  -1  -8   32.84    0.93 
  -1   1  -8   32.73    0.92 
  -1   1  -8   32.48    0.72 
  -1   1  -8   34.93    0.93 
   1   1   8   34.09    0.96 
   1   1   8   33.24    1.07 
  -2  -1  -8    8.35    0.68 
  -2  -1  -8    8.77    0.60 
   2   1   8    9.07    0.60 
   2   1   8    8.66    0.79 
  -2   1  -8    8.68    0.61 
  -2   1  -8    8.43    0.46 
  -2   1  -8    8.54    0.65 
  -3  -1  -8   37.56    1.12 
   3  -1   8   36.87    1.02 
  -3  -1  -8   37.54    1.19 
  -3   1  -8   38.25    0.98 
  -3   1  -8   37.32    1.11 
   3   1   8   37.97    1.25 
  -4  -1  -8   63.55    1.72 
   4  -1   8   63.75    1.58 
  -4  -1  -8   63.15    1.65 
   4   1   8   64.99    1.81 
  -4   1  -8   67.81    1.54 
  -4   1  -8   66.13    1.66 
  -5  -1  -8   24.37    1.08 
   5  -1   8   23.73    1.02 
  -5  -1  -8   24.38    1.11 
   5   1   8   23.98    1.27 
  -5   1  -8   24.07    0.95 
  -5   1  -8   26.31    1.09 
  -6  -1  -8   18.11    0.98 
  -6  -1  -8   18.77    1.04 
  -6   1  -8   18.38    1.02 
  -6   1  -8   19.38    0.92 
   6   1   8   18.89    1.21 
  -7  -1  -8    3.19    0.61 
  -7  -1  -8    1.96    0.46 
   7   1   8    3.32    0.75 
  -7   1  -8    1.95    0.47 
  -8  -1  -8   11.14    1.02 
  -8  -1  -8    8.29    0.95 
  -8   1  -8    9.76    0.91 
   8   1   8   10.91    1.23 
  -9  -1  -8    0.89    0.50 
  -9  -1  -8    1.92    0.66 
   9   1   8    0.83    0.80 
  -9   1  -8    0.31    0.51 
 -10   1  -8    4.00    0.87 
 -10   1  -8    3.13    0.66 
  10   1   8    5.75    0.99 
  10   2  -8    3.13    0.83 
 -10   2   8    3.89    0.88 
  -9  -2   8    1.49    0.86 
  -9   2   8    2.94    0.83 
   9   2  -8    1.95    0.70 
  -8  -2   8    0.19    0.76 
   8  -2  -8   -0.55    0.75 
   8   2  -8    0.78    0.62 
  -8   2   8    0.38    0.74 
  -7  -2   8    0.10    0.71 
   7  -2  -8   -0.58    0.71 
  -7  -2   8    0.17    0.32 
  -7   2   8    0.55    0.71 
   7   2  -8    0.08    0.56 
  -6  -2   8    5.60    0.57 
  -6  -2   8    5.07    0.77 
   6  -2  -8    5.34    1.02 
  -6   2   8    7.07    1.02 
   6   2  -8    5.29    0.83 
  -5  -2   8   18.23    1.47 
   5  -2  -8   19.23    1.13 
  -5  -2   8   19.12    0.69 
   5   2  -8   18.12    0.92 
  -5   2   8   18.05    1.05 
   4  -2  -8    1.89    0.62 
  -4  -2   8    1.75    0.25 
  -4  -2   8    1.62    0.69 
  -4   2   8    2.89    0.68 
   4   2  -8    2.95    0.46 
  -3  -2   8   18.38    1.49 
   3  -2  -8   18.01    1.01 
  -3   2   8   16.84    1.02 
   3   2  -8   18.15    0.77 
   3   2  -8   17.65    0.66 
   2  -2  -8   15.51    0.88 
   2  -2  -8   14.56    0.82 
  -2  -2   8   14.27    1.40 
   2   2  -8   15.03    0.58 
   2   2  -8   15.09    0.65 
  -2   2   8   14.32    0.95 
  -1  -2   8   16.86    1.37 
   1  -2  -8   16.13    0.85 
   1  -2  -8   15.57    0.80 
   1   2  -8   16.21    0.64 
   1   2  -8   16.29    0.56 
  -1   2   8   15.30    0.94 
   0  -2   8   10.02    1.29 
   0  -2  -8    8.49    0.72 
   0  -2  -8    8.33    0.74 
   0   2   8    7.27    0.87 
  -1  -2  -8   59.19    1.54 
  -1  -2  -8   57.74    1.51 
   1   2   8   58.48    1.64 
  -1   2  -8   57.59    1.33 
  -2  -2  -8   15.18    0.83 
  -2  -2  -8   14.50    0.87 
  -2   2  -8   15.21    0.50 
   2   2   8   15.24    1.04 
  -2   2  -8   13.67    0.66 
  -2   2  -8   15.37    0.73 
  -3  -2  -8    9.02    0.80 
  -3  -2  -8    8.34    0.78 
  -3   2  -8    8.77    0.81 
  -3   2  -8    9.07    0.72 
   3   2   8    7.96    1.03 
  -4  -2  -8    1.63    0.35 
  -4  -2  -8    2.54    0.53 
  -4  -2  -8    2.38    0.46 
   4   2   8    2.26    0.71 
  -5  -2  -8   39.53    1.37 
  -5  -2  -8   41.29    1.33 
   5   2   8   41.31    1.52 
  -6  -2  -8    3.69    0.52 
  -6  -2  -8    4.50    0.78 
   6   2   8    5.72    1.11 
  -7  -2  -8    3.00    0.53 
  -7  -2  -8    4.66    0.82 
  -7   2  -8    1.90    0.45 
   7   2   8    3.42    0.81 
  -8  -2  -8    2.43    0.61 
  -8  -2  -8    2.20    0.55 
  -8   2  -8    0.72    0.50 
   8   2   8    2.24    0.80 
  -9  -2  -8    3.54    0.68 
  -9   2  -8    0.64    0.50 
   9   2   8    1.92    0.88 
  10   2   8    3.51    1.01 
   9   3  -8   -0.89    0.70 
  -9   3   8    1.38    0.90 
  -8  -3   8    0.14    0.87 
  -8   3   8    0.74    0.85 
   8   3  -8   -0.15    0.62 
  -7  -3   8    1.49    0.80 
   7   3  -8    1.00    0.56 
  -7   3   8    1.14    0.77 
  -6  -3   8    0.94    0.73 
  -6   3   8    1.23    0.74 
   6   3  -8    0.87    0.52 
  -5  -3   8   11.03    1.60 
  -5   3   8   12.23    1.17 
   5   3  -8    9.11    0.82 
   4  -3  -8    9.78    1.04 
  -4  -3   8   12.31    1.56 
  -4   3   8   11.36    1.11 
   4   3  -8    9.36    0.73 
  -3  -3   8    2.99    0.73 
   3  -3  -8    2.79    0.60 
  -3   3   8    3.38    0.64 
   3   3  -8    3.25    0.53 
   2  -3  -8   13.97    0.95 
  -2  -3   8   16.12    1.54 
   2  -3  -8   14.75    0.94 
  -2   3   8   14.25    1.00 
   1  -3  -8   10.04    0.84 
  -1  -3   8   10.95    1.48 
   1  -3  -8   10.99    0.84 
  -1   3   8   10.90    1.00 
   0  -3  -8   33.87    1.21 
   0  -3  -8   33.47    1.17 
   0  -3   8   35.36    1.76 
   0   3   8   31.07    1.28 
  -1  -3  -8   -0.47    0.45 
  -1  -3  -8    0.06    0.38 
   1   3   8   -0.10    0.59 
  -2  -3  -8    5.61    0.74 
  -2  -3  -8    5.06    0.84 
   2   3   8    5.72    0.98 
  -3  -3  -8    5.84    0.86 
  -3  -3  -8    5.05    0.74 
   3   3   8    5.43    1.03 
  -4  -3  -8   14.51    1.01 
  -4  -3  -8   14.85    0.88 
   4   3   8   14.37    1.20 
  -5  -3  -8    0.78    0.46 
   5   3   8    0.55    0.74 
  -6  -3  -8   18.98    1.13 
   6   3   8   20.00    1.37 
  -7  -3  -8    4.10    0.62 
   7   3   8    6.07    0.93 
   8   3   8    2.71    0.93 
   9   3   8    3.70    1.00 
   7   4  -8    0.57    0.64 
  -7   4   8    2.08    0.95 
  -6   4   8    2.41    0.90 
   6   4  -8   -0.11    0.58 
  -5  -4   8    1.27    0.88 
  -5   4   8    1.94    0.83 
   5   4  -8    0.57    0.51 
  -4  -4   8   -0.17    0.80 
  -4   4   8    0.20    0.74 
  -3  -4   8    5.99    0.90 
  -3   4   8    7.36    1.25 
  -2  -4   8    3.40    0.84 
  -2   4   8    6.55    1.24 
  -1  -4   8    1.35    0.80 
   1  -4  -8    1.11    0.49 
  -1   4   8    2.95    0.72 
   0  -4  -8   -0.06    0.43 
   0   4   8    0.79    0.69 
  -1  -4  -8    1.71    0.49 
   1   4   8    1.63    0.72 
  -2  -4  -8    1.82    0.50 
   2   4   8    2.31    0.77 
  -3  -4  -8    0.84    0.48 
   3   4   8    1.62    0.79 
  -4  -4  -8    0.87    0.53 
   4   4   8    1.24    0.79 
   5   4   8    1.21    0.83 
   6   4   8    7.65    1.47 
   7   4   8    2.22    0.98 
  -3   5   8    1.31    0.93 
  -2   5   8    2.44    0.91 
  -1   5   8    4.32    0.99 
   0   5   8    1.76    0.93 
   1   5   8    0.20    0.91 
   2   5   8    0.57    0.92 
  11   0  -9   -1.47    0.83 
  10   0  -9    2.19    0.86 
  -9   0   9    2.07    0.61 
   9   0  -9    1.28    0.78 
  -8   0   9    6.61    0.90 
   8   0  -9    6.25    0.84 
  -7   0   9   -0.54    0.64 
  -7   0   9    0.15    0.51 
   7   0  -9    0.28    0.61 
   6   0  -9    3.58    0.64 
  -6   0   9    4.23    0.61 
  -6   0   9    3.14    0.69 
  -5   0   9   -0.55    0.55 
  -5   0   9   -0.37    0.30 
   5   0  -9    0.41    0.55 
  -5   0   9    0.74    0.63 
  -4   0   9   33.48    1.12 
  -4   0   9   33.36    0.94 
  -4   0   9   33.25    1.42 
   4   0  -9   34.53    1.17 
  -3   0   9   61.10    1.53 
  -3   0   9   61.58    1.78 
  -3   0   9   60.61    1.35 
   3   0  -9   61.65    1.58 
  -2   0   9   58.62    1.26 
   2   0  -9   55.92    1.46 
  -2   0   9   56.57    1.61 
  -2   0   9   56.73    1.42 
  -1   0   9    1.24    0.41 
  -1   0   9    1.17    0.21 
   1   0  -9    1.33    0.38 
  -1   0   9    1.06    0.40 
   0   0  -9    1.11    0.18 
   0   0   9    1.00    0.41 
   0   0  -9    0.79    0.32 
   0   0   9    0.97    0.22 
   0   0   9    1.15    0.37 
   0   0  -9    1.04    0.36 
  -1   0  -9   63.48    1.56 
   1   0   9   63.38    1.33 
  -1   0  -9   61.30    1.34 
  -1   0  -9   62.01    1.54 
   1   0   9   58.80    1.50 
  -2   0  -9   25.64    0.79 
  -2   0  -9   25.94    0.94 
   2   0   9   25.18    0.74 
  -2   0  -9   26.98    0.97 
   2   0   9   26.45    0.96 
  -3   0  -9   38.00    1.18 
  -3   0  -9   36.43    1.03 
   3   0   9   37.86    1.19 
  -3   0  -9   34.05    1.19 
  -4   0  -9   13.26    0.91 
   4   0   9   14.42    0.97 
  -4   0  -9   13.51    0.78 
  -5   0  -9    0.53    0.41 
   5   0   9    0.42    0.67 
  -5   0  -9    0.37    0.58 
  -6   0  -9    6.81    0.81 
  -6   0  -9    6.57    0.88 
   6   0   9    7.46    0.97 
  -7   0  -9   20.77    1.12 
  -7   0  -9   20.04    1.02 
   7   0   9   20.93    1.22 
  -8   0  -9    1.40    0.52 
  -8   0  -9    2.82    0.67 
  -9   0  -9    8.98    1.07 
  -9   0  -9    6.88    0.99 
 -10   0  -9   16.22    1.28 
  10  -1  -9   -0.71    0.84 
 -10  -1   9   -1.32    0.91 
  10   1  -9   -0.16    0.76 
 -10   1   9    1.01    0.76 
   9  -1  -9    4.18    0.88 
  -9  -1   9    4.53    0.76 
  -9  -1   9    3.64    0.89 
  -9   1   9    6.28    1.11 
   9   1  -9    5.75    0.83 
   8  -1  -9    2.59    0.79 
  -8  -1   9    1.92    0.78 
  -8  -1   9    1.60    0.37 
   8   1  -9    3.06    0.72 
  -7  -1   9    5.60    0.81 
  -7  -1   9    5.66    0.62 
   7  -1  -9    5.74    0.80 
   7   1  -9    5.74    0.93 
  -7   1   9    7.06    1.07 
  -6  -1   9    0.88    0.66 
  -6  -1   9    1.38    0.30 
   6  -1  -9    2.43    0.65 
  -6   1   9    2.00    0.62 
   6   1  -9    2.21    0.56 
  -5  -1   9   11.72    0.76 
   5  -1  -9   11.44    1.05 
  -5  -1   9   12.86    1.39 
  -5  -1   9   11.30    0.58 
   5   1  -9   12.02    0.88 
  -5   1   9   10.93    0.98 
  -4  -1   9   50.48    1.81 
  -4  -1   9   48.51    1.28 
   4  -1  -9   49.62    1.51 
  -4  -1   9   48.48    1.09 
   4   1  -9   49.96    1.41 
  -4   1   9   48.77    1.46 
   3  -1  -9    5.78    0.76 
  -3  -1   9    3.95    0.63 
  -3   1   9    4.94    0.82 
  -3   1   9    6.48    0.88 
   3   1  -9    6.03    0.64 
  -2  -1   9    3.02    0.58 
   2  -1  -9    3.70    0.66 
  -2  -1   9    3.61    0.49 
  -2   1   9    3.64    0.70 
   2   1  -9    4.12    0.59 
  -2   1   9    3.72    0.57 
  -2   1   9    4.20    0.57 
  -1  -1   9   53.11    1.69 
   1  -1  -9   53.62    1.29 
   1  -1  -9   54.10    1.45 
  -1   1   9   52.61    1.31 
   1   1  -9   55.48    1.35 
  -1   1   9   54.38    1.47 
   1   1  -9   52.52    1.30 
   0  -1   9   13.31    1.09 
   0  -1  -9   11.94    0.75 
   0  -1  -9   12.51    0.61 
   0   1   9   12.06    0.83 
   0   1  -9   11.21    0.63 
   0   1  -9   11.52    0.61 
   0   1   9   10.84    0.64 
  -1  -1  -9    6.81    0.56 
  -1  -1  -9    5.87    0.69 
  -1   1  -9    5.75    0.59 
   1   1   9    6.30    0.64 
  -1   1  -9    6.07    0.62 
   1   1   9    6.15    0.80 
   2  -1   9   56.40    1.45 
  -2  -1  -9   65.56    1.68 
  -2  -1  -9   64.56    1.55 
   2   1   9   64.94    1.70 
  -2   1  -9   67.03    1.61 
  -2   1  -9   65.75    1.38 
  -2   1  -9   65.41    1.58 
  -3  -1  -9   26.61    0.98 
  -3  -1  -9   27.30    0.91 
   3  -1   9   26.91    0.90 
  -3  -1  -9   26.64    1.08 
   3   1   9   27.50    1.18 
  -3   1  -9   26.90    1.00 
  -3   1  -9   28.33    0.84 
  -4  -1  -9   13.34    0.87 
   4  -1   9   13.17    0.82 
  -4  -1  -9   12.77    0.93 
  -4   1  -9   13.25    0.89 
   4   1   9   14.49    1.12 
  -4   1  -9   13.62    0.74 
  -5  -1  -9   44.07    1.38 
  -5  -1  -9   46.01    1.47 
   5   1   9   44.08    1.57 
  -5   1  -9   47.48    1.42 
  -5   1  -9   44.54    1.25 
  -6  -1  -9   42.82    1.40 
  -6  -1  -9   41.81    1.42 
  -6   1  -9   41.74    1.38 
  -6   1  -9   44.04    1.30 
   6   1   9   42.44    1.56 
  -7  -1  -9   11.77    1.01 
  -7  -1  -9   10.93    0.96 
  -7   1  -9   10.94    1.01 
  -7   1  -9   10.57    0.92 
   7   1   9   10.49    1.19 
  -8  -1  -9   11.45    1.08 
  -8  -1  -9    9.63    1.00 
  -8   1  -9   10.34    1.09 
  -8   1  -9    7.99    0.92 
   8   1   9   10.73    1.25 
  -9  -1  -9    5.79    1.08 
  -9  -1  -9    3.03    0.58 
  -9   1  -9    2.64    0.58 
   9   1   9    6.50    1.27 
  -9   1  -9    4.65    0.80 
 -10  -1  -9    1.77    0.76 
 -10   1  -9    0.25    0.78 
  10   2  -9    0.42    0.77 
 -10   2   9    1.20    0.87 
  -9  -2   9    0.59    0.91 
  -9   2   9    3.46    0.89 
   9   2  -9    2.09    0.73 
   8  -2  -9    6.37    0.91 
  -8  -2   9    5.90    0.93 
  -8   2   9    9.10    1.29 
   8   2  -9    6.12    0.99 
   7  -2  -9   -0.55    0.71 
  -7  -2   9    0.05    0.74 
  -7   2   9    0.72    0.74 
   7   2  -9    0.30    0.57 
  -6  -2   9    1.66    0.73 
   6  -2  -9    1.63    0.71 
  -6   2   9    2.51    0.70 
   6   2  -9    2.25    0.55 
  -5  -2   9    5.06    0.75 
   5  -2  -9    5.30    0.99 
   5   2  -9    6.37    0.74 
  -5   2   9    6.29    1.02 
  -4  -2   9   29.78    1.63 
   4  -2  -9   29.15    1.26 
   4   2  -9   27.98    1.01 
  -4   2   9   28.16    1.28 
  -3  -2   9   23.18    1.61 
   3  -2  -9   23.17    1.13 
   3   2  -9   22.37    0.86 
  -3   2   9   22.33    1.15 
   2  -2  -9    6.81    0.83 
   2  -2  -9    6.84    0.76 
  -2  -2   9    7.12    1.43 
  -2   2   9    6.58    0.94 
   2   2  -9    8.06    0.52 
   2   2  -9    7.30    0.60 
  -1  -2   9    0.92    0.66 
   1  -2  -9    1.04    0.35 
   1  -2  -9    1.15    0.50 
  -1   2   9    1.24    0.61 
   1   2  -9    1.67    0.32 
   1   2  -9    1.22    0.37 
   0  -2  -9   63.24    1.72 
   0  -2  -9   65.56    1.66 
   0  -2   9   66.80    2.17 
   0   2  -9   64.89    1.52 
   0   2   9   66.43    1.80 
   0   2  -9   65.54    1.49 
  -1  -2  -9  155.36    3.38 
  -1  -2  -9  154.44    3.24 
   1   2   9  151.20    3.41 
  -1   2  -9  148.22    3.18 
  -1   2  -9  154.16    3.19 
  -2  -2  -9   14.76    0.90 
  -2  -2  -9   13.56    0.90 
   2   2   9   14.19    1.08 
  -2   2  -9   12.99    0.53 
  -2   2  -9   14.81    0.48 
  -2   2  -9   14.52    0.73 
  -2   2  -9   14.35    0.78 
  -3  -2  -9    5.89    0.81 
  -3  -2  -9    5.03    0.79 
  -3   2  -9    5.39    0.54 
   3   2   9    6.15    1.05 
  -3   2  -9    5.57    0.70 
  -4  -2  -9   18.33    0.99 
  -4  -2  -9   18.73    0.97 
  -4   2  -9   17.34    0.73 
  -4   2  -9   17.77    0.90 
   4   2   9   17.90    1.18 
  -5  -2  -9   31.36    1.24 
  -5  -2  -9   32.87    1.22 
  -5   2  -9   31.76    1.17 
  -5   2  -9   30.90    1.01 
   5   2   9   31.49    1.41 
  -6  -2  -9    3.97    0.54 
  -6  -2  -9    5.36    0.87 
   6   2   9    4.53    0.80 
  -6   2  -9    2.98    0.46 
  -7  -2  -9    2.07    0.52 
  -7  -2  -9    3.75    0.61 
   7   2   9    3.21    0.83 
  -7   2  -9    1.67    0.45 
  -8  -2  -9    2.40    0.63 
  -8  -2  -9    0.67    0.51 
  -8   2  -9    0.15    0.47 
   8   2   9    1.94    0.82 
  -9   2  -9    3.87    0.62 
   9   2   9    6.39    1.01 
  -9   3   9    3.58    0.99 
  -8   3   9    1.81    0.92 
   8   3  -9    1.09    0.66 
  -7  -3   9    0.99    0.84 
  -7   3   9    2.48    0.86 
   7   3  -9    1.32    0.60 
  -6  -3   9    3.39    0.85 
   6   3  -9    4.41    0.62 
  -6   3   9    5.96    0.87 
  -5  -3   9    6.04    0.88 
   5   3  -9    6.34    0.80 
  -5   3   9    9.26    1.26 
  -4  -3   9    5.84    0.86 
   4  -3  -9    7.53    1.15 
  -4   3   9    9.72    1.17 
   4   3  -9    7.10    0.68 
   3  -3  -9   -0.50    0.58 
  -3  -3   9    0.54    0.71 
  -3   3   9    0.86    0.64 
   3   3  -9    0.01    0.33 
   2  -3  -9    6.37    0.85 
  -2  -3   9    8.23    1.51 
   2  -3  -9    5.00    0.87 
  -2   3   9    7.03    1.01 
   1  -3  -9    1.53    0.54 
  -1  -3   9    1.92    0.73 
   1  -3  -9    1.84    0.42 
  -1   3   9    2.30    0.61 
   0  -3   9    0.10    0.70 
   0  -3  -9   -0.62    0.47 
   0  -3  -9    0.17    0.39 
   0   3   9    0.60    0.60 
  -1  -3  -9   14.37    0.92 
  -1  -3  -9   15.51    0.96 
   1   3   9   15.09    1.10 
  -2  -3  -9   12.57    0.92 
  -2  -3  -9   12.94    0.89 
   2   3   9   13.46    1.11 
  -3  -3  -9    1.48    0.51 
  -3  -3  -9    0.61    0.42 
   3   3   9    1.67    0.72 
  -4  -3  -9    2.42    0.51 
  -4  -3  -9    3.14    0.56 
   4   3   9    2.08    0.75 
  -5  -3  -9    3.37    0.55 
   5   3   9    3.80    0.82 
  -6  -3  -9    1.27    0.50 
   6   3   9    1.16    0.80 
   7   3   9    3.03    0.92 
   8   3   9    1.75    0.92 
  -6   4   9    0.16    0.93 
   6   4  -9   -1.06    0.54 
   5   4  -9   -0.78    0.50 
  -5   4   9    1.07    0.88 
  -4  -4   9    3.34    0.93 
  -4   4   9    4.18    0.86 
   4   4  -9    2.38    0.50 
  -3  -4   9    0.07    0.81 
  -3   4   9    0.61    0.76 
  -2  -4   9    0.06    0.82 
  -2   4   9    1.18    0.77 
   1  -4  -9    0.43    0.47 
  -1  -4   9   -0.42    0.79 
  -1   4   9    1.61    0.76 
   0  -4  -9    1.60    0.49 
   0   4   9    2.73    0.76 
  -1  -4  -9    4.08    0.58 
   1   4   9    5.07    0.84 
  -2  -4  -9   -0.03    0.47 
   2   4   9    0.72    0.79 
  -3  -4  -9    1.07    0.52 
   3   4   9    1.43    0.82 
   4   4   9    2.58    0.90 
   5   4   9    1.74    0.92 
   6   4   9    0.82    0.94 
  -1   5   9    2.93    1.02 
   0   5   9    2.29    0.99 
  10   0 -10   -0.67    0.84 
   9   0 -10   -0.77    0.73 
  -8   0  10    5.55    0.89 
  -8   0  10    3.49    0.83 
   8   0 -10    4.65    0.80 
  -7   0  10    5.24    0.86 
   7   0 -10    4.82    0.72 
  -7   0  10    3.14    0.76 
  -6   0  10    0.81    0.63 
  -6   0  10    1.94    0.57 
   6   0 -10    1.32    0.59 
  -5   0  10    4.30    0.59 
   5   0 -10    4.87    0.89 
  -5   0  10    4.11    0.67 
  -5   0  10    4.21    0.82 
   4   0 -10    8.75    0.88 
  -4   0  10    7.93    0.84 
  -4   0  10    7.49    0.59 
  -4   0  10    7.29    1.25 
   3   0 -10    9.30    0.78 
  -3   0  10    9.41    1.08 
  -3   0  10    7.94    0.78 
  -3   0  10    8.65    0.55 
  -2   0  10   13.29    0.79 
  -2   0  10   13.22    0.57 
  -2   0  10   12.97    1.03 
   2   0 -10   12.68    0.78 
   1   0 -10    7.82    0.70 
  -1   0  10    7.86    0.72 
  -1   0  10    7.48    0.48 
  -1   0  10    7.63    0.92 
   0   0 -10   13.70    0.51 
   0   0  10   14.15    0.99 
   0   0  10   13.52    0.55 
   0   0 -10   12.95    0.84 
   0   0 -10   13.04    0.78 
   0   0  10   13.69    0.78 
  -1   0 -10   29.09    0.80 
  -1   0 -10   30.53    1.06 
   1   0  10   29.68    1.01 
   1   0  10   28.76    0.80 
  -1   0 -10   28.27    1.03 
   2   0  10   14.43    0.89 
  -2   0 -10   15.02    0.88 
  -2   0 -10   14.60    0.64 
   2   0  10   13.70    0.59 
  -2   0 -10   14.90    0.85 
  -3   0 -10    1.33    0.33 
  -3   0 -10    1.22    0.40 
  -3   0 -10    1.47    0.52 
   3   0  10    1.68    0.58 
  -4   0 -10    9.68    0.94 
   4   0  10   10.40    0.97 
  -4   0 -10    9.48    0.76 
  -5   0 -10    5.07    0.75 
  -5   0 -10    5.04    0.90 
   5   0  10    5.64    0.92 
  -6   0 -10    3.39    0.48 
   6   0  10    5.35    0.99 
  -6   0 -10    4.61    0.90 
  -7   0 -10   -0.66    0.43 
  -7   0 -10   -0.18    0.59 
  -8   0 -10   11.19    1.08 
  -8   0 -10   10.33    1.03 
  -9   0 -10    8.36    1.10 
  -9   0 -10   11.28    1.17 
 -10   0 -10    6.38    1.19 
  10  -1 -10   -0.69    0.88 
  10   1 -10   -0.05    0.80 
 -10   1  10    1.67    0.82 
  -9  -1  10    3.63    0.95 
   9  -1 -10    4.84    0.92 
   9   1 -10    6.27    0.87 
  -9   1  10    7.12    1.17 
  -8  -1  10    0.63    0.80 
   8  -1 -10    1.68    0.78 
  -8   1  10    1.94    0.75 
   8   1 -10    1.70    0.68 
   7  -1 -10   11.03    1.16 
  -7  -1  10   11.61    1.53 
  -7   1  10   11.73    1.17 
   7   1 -10   11.15    1.02 
  -6  -1  10   13.27    0.62 
  -6  -1  10   12.09    1.43 
   6  -1 -10   12.39    1.08 
  -6   1  10   13.85    1.07 
   6   1 -10   13.03    0.95 
  -5  -1  10    2.39    0.67 
  -5  -1  10    2.73    0.44 
   5  -1 -10    2.88    0.64 
  -5   1  10    1.86    0.57 
  -5   1  10    2.67    0.62 
   5   1 -10    2.72    0.55 
   4  -1 -10   12.28    1.01 
  -4  -1  10   11.63    0.51 
  -4  -1  10   10.98    0.47 
  -4  -1  10   11.34    1.36 
   4   1 -10   11.41    0.85 
  -4   1  10   10.86    0.97 
  -4   1  10   11.35    1.14 
   3  -1 -10    3.83    0.59 
  -3  -1  10    2.66    0.65 
  -3  -1  10    3.16    0.61 
  -3   1  10    2.93    0.63 
   3   1 -10    3.41    0.50 
  -3   1  10    2.26    0.48 
  -2  -1  10   62.05    1.44 
  -2  -1  10   61.56    1.94 
   2  -1 -10   60.08    1.66 
  -2   1  10   61.60    1.67 
   2   1 -10   62.54    1.57 
  -2   1  10   63.33    1.58 
  -2   1  10   61.93    1.54 
   1  -1 -10   -0.22    0.45 
  -1  -1  10   -0.47    0.54 
  -1  -1  10    0.07    0.33 
   1  -1 -10   -0.03    0.25 
  -1   1  10   -0.13    0.54 
   1   1 -10   -0.09    0.38 
  -1   1  10   -0.30    0.30 
   0  -1 -10   12.53    0.66 
   0  -1 -10   13.72    0.85 
   0  -1  10   13.45    1.23 
   0   1  10   13.63    0.72 
   0   1 -10   13.70    0.73 
   0   1  10   12.83    0.93 
  -1  -1 -10   10.81    0.67 
  -1  -1 -10   10.08    0.82 
  -1   1 -10   10.26    0.72 
   1   1  10   10.56    0.94 
  -2  -1 -10   31.23    1.16 
  -2  -1 -10   32.51    1.03 
  -2   1 -10   30.39    1.05 
   2   1  10   29.73    1.21 
  -2   1 -10   30.73    0.80 
  -3  -1 -10   21.77    0.93 
  -3  -1 -10   21.68    0.85 
  -3  -1 -10   22.46    1.08 
  -3   1 -10   20.35    0.98 
  -3   1 -10   22.26    0.79 
   3   1  10   21.21    1.17 
  -4  -1 -10   26.59    1.18 
  -4  -1 -10   26.74    1.10 
  -4   1 -10   26.26    1.11 
   4   1  10   26.16    1.25 
  -4   1 -10   26.92    0.93 
  -5  -1 -10    5.96    0.78 
  -5  -1 -10    5.95    0.86 
   5   1  10    6.33    1.03 
  -5   1 -10    5.94    0.71 
  -5   1 -10    6.02    0.84 
  -6  -1 -10    7.73    0.96 
  -6  -1 -10    6.75    0.84 
  -6   1 -10    8.45    0.83 
  -6   1 -10    7.81    0.91 
   6   1  10    9.94    1.15 
  -7  -1 -10    3.88    0.56 
  -7  -1 -10    6.10    0.98 
  -7   1 -10    3.00    0.51 
   7   1  10    4.47    0.80 
  -7   1 -10    5.08    0.94 
  -8  -1 -10    6.10    1.04 
  -8  -1 -10    3.40    0.58 
   8   1  10    3.71    0.84 
  -8   1 -10    2.71    0.55 
  -8   1 -10    3.96    0.72 
  -9  -1 -10    2.10    0.73 
  -9   1 -10   -0.02    0.55 
  -9   1 -10    0.97    0.72 
   9   1  10    0.98    0.89 
 -10  -1 -10    8.14    1.29 
 -10   1 -10    6.53    0.92 
   9   2 -10    6.67    0.89 
  -9   2  10    8.11    1.51 
  -8  -2  10   -0.97    0.80 
   8  -2 -10   -1.49    0.79 
  -8   2  10   -0.17    0.80 
   8   2 -10   -1.16    0.59 
   7  -2 -10    4.76    0.85 
  -7  -2  10    3.99    0.86 
  -7   2  10    6.57    1.24 
   7   2 -10    5.06    0.91 
   6  -2 -10    2.20    0.74 
  -6  -2  10    2.82    0.78 
  -6   2  10    3.17    0.76 
   6   2 -10    2.66    0.58 
  -5  -2  10    2.08    0.73 
   5  -2 -10    2.26    0.70 
  -5   2  10    3.01    0.71 
   5   2 -10    3.06    0.52 
  -4  -2  10    0.96    0.67 
   4  -2 -10    0.66    0.59 
  -4   2  10    1.46    0.68 
   4   2 -10    1.28    0.43 
   3  -2 -10   38.56    1.38 
  -3  -2  10   39.79    1.80 
  -3   2  10   38.19    1.19 
   3   2 -10   39.48    1.18 
  -3   2  10   40.26    1.45 
   2  -2 -10    2.02    0.40 
  -2  -2  10    1.68    0.68 
   2  -2 -10    2.16    0.57 
  -2   2  10    1.98    0.65 
   2   2 -10    2.69    0.42 
   1  -2 -10   60.70    1.72 
  -1  -2  10   64.81    2.16 
   1  -2 -10   61.03    1.60 
   1   2 -10   64.17    1.54 
  -1   2  10   61.82    1.78 
   0  -2 -10    2.61    0.41 
   0  -2 -10    3.47    0.58 
   0  -2  10    2.54    0.72 
   0   2  10    3.59    0.73 
   0   2 -10    3.71    0.44 
  -1  -2 -10    4.55    0.75 
  -1  -2 -10    5.39    0.81 
   1   2  10    4.22    0.71 
  -1   2 -10    4.41    0.63 
  -2  -2 -10    0.28    0.49 
  -2  -2 -10    0.42    0.38 
  -2   2 -10    0.83    0.42 
   2   2  10    0.30    0.66 
  -3  -2 -10   74.49    1.88 
  -3  -2 -10   75.86    1.94 
  -3   2 -10   72.66    1.77 
  -3   2 -10   67.06    1.55 
   3   2  10   72.75    2.02 
  -4  -2 -10    4.64    0.83 
  -4  -2 -10    3.70    0.49 
   4   2  10    3.82    0.73 
  -4   2 -10    4.18    0.75 
  -4   2 -10    2.82    0.35 
  -5  -2 -10   30.84    1.26 
  -5  -2 -10   30.29    1.26 
  -5   2 -10   29.47    1.17 
   5   2  10   30.40    1.45 
  -5   2 -10   27.26    0.97 
  -6  -2 -10    1.43    0.58 
  -6  -2 -10    0.82    0.47 
   6   2  10    2.20    0.80 
  -6   2 -10   -0.05    0.41 
  -6   2 -10    0.78    0.58 
  -7  -2 -10   11.15    1.06 
  -7  -2 -10   13.39    1.07 
  -7   2 -10    9.38    0.90 
   7   2  10   11.11    1.32 
  -7   2 -10    8.08    1.10 
  -8  -2 -10   15.61    1.19 
  -8   2 -10   11.58    1.00 
   8   2  10   13.68    1.44 
  -8   2 -10   10.12    1.23 
  -9  -2 -10    3.60    0.77 
   9   2  10    3.03    0.97 
  -9   2 -10    2.29    0.84 
   8   3 -10   -0.42    0.66 
  -8   3  10    1.61    0.96 
  -7  -3  10    0.66    0.87 
   7   3 -10    0.79    0.61 
  -7   3  10    1.79    0.89 
  -6  -3  10    9.06    1.79 
  -6   3  10    8.04    1.38 
   6   3 -10    6.39    0.87 
  -5  -3  10    1.78    0.82 
   5   3 -10    1.38    0.52 
  -5   3  10    1.63    0.80 
  -4  -3  10    1.62    0.81 
  -4   3  10    3.36    0.81 
   4   3 -10    2.25    0.46 
   3  -3 -10    0.57    0.62 
  -3  -3  10    1.60    0.77 
   3   3 -10    0.65    0.38 
  -3   3  10    1.81    0.72 
   2  -3 -10   12.09    1.02 
   2  -3 -10   12.07    0.96 
  -2  -3  10   13.76    1.61 
   2   3 -10   12.29    0.68 
  -2   3  10   14.70    1.27 
   1  -3 -10    0.68    0.40 
   1  -3 -10   -0.22    0.54 
  -1  -3  10    1.27    0.75 
  -1   3  10    1.09    0.67 
   0  -3 -10    3.17    0.59 
   0  -3 -10    2.74    0.46 
   0  -3  10    2.43    0.81 
   0   3  10    3.04    0.73 
  -1  -3 -10    0.63    0.53 
  -1  -3 -10    0.28    0.40 
   1   3  10    1.10    0.70 
  -2  -3 -10   27.90    1.21 
  -2  -3 -10   26.91    1.16 
   2   3  10   26.88    1.38 
  -3  -3 -10   11.04    0.93 
  -3  -3 -10   12.57    1.02 
   3   3  10   11.98    1.23 
  -4  -3 -10    7.38    0.97 
  -4  -3 -10    7.05    0.89 
   4   3  10    7.56    1.25 
  -4   3 -10    7.48    0.83 
  -5  -3 -10    1.62    0.49 
   5   3  10    2.46    0.81 
  -5   3 -10    0.92    0.56 
  -6  -3 -10    1.58    0.56 
   6   3  10    1.51    0.86 
  -6   3 -10    0.15    0.65 
  -7   3 -10    3.12    0.77 
   7   3  10    6.10    1.04 
   8   3  10    1.78    1.00 
  -6   4  10    1.03    1.00 
   6   4 -10   -0.59    0.56 
  -5   4  10    3.17    0.98 
  -4   4  10    5.15    0.95 
  -3  -4  10    2.60    0.91 
  -3   4  10    4.68    0.93 
  -2  -4  10    0.36    0.85 
  -2   4  10    1.82    0.84 
   1  -4 -10    3.53    0.58 
  -1  -4  10    2.82    0.92 
  -1   4  10    7.88    1.38 
   0  -4 -10    6.44    1.00 
   0   4  10   10.05    1.44 
  -1  -4 -10    2.39    0.55 
   1   4  10    4.02    0.88 
   2   4  10    2.83    0.86 
   3   4  10    1.99    0.90 
   4   4  10    0.58    0.95 
  -5   4 -10   -0.25    0.59 
   5   4  10    2.67    1.03 
  10   0 -11    6.15    1.02 
 -10   0  11    3.63    1.07 
  -9   0  11    2.72    0.93 
   9   0 -11    5.87    0.93 
  -8   0  11    0.88    0.81 
   8   0 -11    3.16    0.78 
   7   0 -11    6.87    1.07 
  -7   0  11    8.30    0.89 
  -7   0  11    5.24    0.82 
   6   0 -11    2.23    0.64 
  -6   0  11    3.14    0.61 
  -6   0  11    1.70    0.69 
   5   0 -11   63.48    1.83 
  -5   0  11   65.65    2.06 
  -5   0  11   64.48    1.69 
  -4   0  11   -0.54    0.56 
   4   0 -11    0.42    0.56 
  -4   0  11    0.12    0.52 
  -4   0  11    0.10    0.27 
  -3   0  11    1.51    0.58 
  -3   0  11    1.37    0.29 
  -3   0  11    1.67    0.56 
   3   0 -11    1.98    0.53 
  -2   0  11    4.89    0.79 
  -2   0  11    4.32    0.58 
  -2   0  11    4.98    0.50 
   2   0 -11    5.44    0.77 
  -1   0  11   52.82    1.60 
   1   0 -11   52.96    1.48 
  -1   0  11   50.45    1.42 
  -1   0  11   50.85    1.18 
   0   0 -11   13.99    0.93 
   0   0  11   14.55    0.85 
   0   0  11   13.83    0.60 
   0   0 -11   14.66    0.87 
   0   0 -11   14.78    0.54 
   1   0  11   13.62    0.89 
  -1   0 -11   13.21    0.86 
  -1   0 -11   13.49    0.92 
   1   0  11   11.97    0.59 
  -1   0 -11   13.16    0.58 
  -2   0 -11    8.21    0.57 
   2   0  11    8.60    0.58 
   2   0  11    7.68    0.88 
  -2   0 -11    7.94    0.87 
  -2   0 -11    8.18    0.86 
  -3   0 -11    0.61    0.32 
  -3   0 -11    0.57    0.55 
   3   0  11    0.62    0.59 
  -4   0 -11   29.45    1.03 
  -4   0 -11   30.00    1.21 
   4   0  11   30.24    1.18 
  -5   0 -11    5.11    0.74 
  -5   0 -11    6.33    0.93 
   5   0  11    5.67    0.94 
  -6   0 -11    0.51    0.60 
  -6   0 -11   -0.17    0.41 
  -7   0 -11    0.95    0.66 
  -7   0 -11   -0.39    0.45 
  -8   0 -11    3.83    0.60 
  -9   0 -11   -1.15    0.54 
  -9   0 -11    0.45    0.74 
  10  -1 -11    1.15    0.95 
  10   1 -11    2.36    0.89 
   9  -1 -11    2.10    0.90 
  -9  -1  11    0.46    0.92 
   9   1 -11    2.46    0.82 
  -9   1  11    3.48    0.80 
   8  -1 -11    1.69    0.80 
  -8  -1  11    0.90    0.82 
  -8   1  11    2.31    0.76 
   8   1 -11    1.78    0.72 
   7  -1 -11    1.19    0.74 
  -7  -1  11    1.60    0.79 
  -7   1  11    2.77    0.73 
   7   1 -11    1.81    0.65 
  -7   1  11   -0.34    0.70 
  -6  -1  11   11.76    1.49 
   6  -1 -11   11.30    1.13 
   6   1 -11   11.07    0.95 
  -6   1  11   12.26    1.08 
  -6   1  11    9.52    1.36 
   5  -1 -11    4.30    0.67 
  -5  -1  11    3.10    0.70 
  -5   1  11    4.27    0.67 
   5   1 -11    4.11    0.59 
   4  -1 -11   34.96    1.34 
  -4  -1  11   36.23    1.63 
  -4   1  11   35.26    1.37 
  -4   1  11   36.45    1.30 
   4   1 -11   35.24    1.23 
   3  -1 -11    4.93    0.87 
  -3  -1  11    4.34    0.69 
  -3   1  11    3.55    0.49 
  -3   1  11    5.01    0.93 
   3   1 -11    4.92    0.73 
  -2  -1  11    7.74    1.36 
   2  -1 -11    9.43    0.87 
  -2   1  11    9.09    0.85 
  -2   1  11    8.73    0.98 
   2   1 -11    8.80    0.77 
  -1  -1  11    0.80    0.62 
   1  -1 -11    0.47    0.54 
   1  -1 -11    0.93    0.30 
   1   1 -11    1.52    0.47 
  -1   1  11    0.91    0.62 
   0  -1 -11  100.34    2.19 
   0  -1  11  102.45    2.68 
   0  -1 -11  101.31    2.42 
   0   1 -11   99.84    2.32 
   0   1  11   98.97    2.42 
  -1  -1 -11   93.73    2.09 
  -1  -1 -11   96.33    2.32 
  -1   1 -11   93.17    2.20 
   1   1  11   91.10    2.30 
  -2  -1 -11    4.89    0.69 
  -2  -1 -11    4.96    0.87 
  -2   1 -11    4.19    0.78 
   2   1  11    5.43    0.97 
  -2   1 -11    4.61    0.43 
  -3  -1 -11   12.93    0.83 
  -3  -1 -11   12.64    0.98 
   3   1  11   14.14    1.05 
  -3   1 -11   11.32    0.89 
  -3   1 -11   11.14    0.62 
  -4  -1 -11   11.31    0.87 
  -4  -1 -11   11.14    0.96 
   4   1  11   12.57    1.06 
  -4   1 -11   12.34    0.91 
  -4   1 -11   10.02    0.66 
  -5  -1 -11    9.41    0.98 
  -5  -1 -11    8.42    0.84 
  -5   1 -11    7.98    0.73 
   5   1  11    9.94    1.08 
  -5   1 -11    9.20    0.94 
  -6  -1 -11    5.55    1.01 
  -6  -1 -11    3.11    0.52 
  -6   1 -11    5.46    0.98 
   6   1  11    4.66    0.80 
  -6   1 -11    3.01    0.47 
  -7  -1 -11    8.36    1.09 
  -7  -1 -11    7.60    0.94 
  -7   1 -11    6.49    0.85 
   7   1  11   10.10    1.25 
  -7   1 -11    9.34    1.01 
  -8  -1 -11    1.48    0.54 
  -8  -1 -11    2.66    0.73 
  -8   1 -11    2.48    0.70 
   8   1  11    2.60    0.87 
  -9  -1 -11   14.14    1.33 
  -9   1 -11   12.10    1.22 
  -9   1 -11    9.44    1.13 
   9   2 -11   -0.83    0.72 
  -9   2  11    0.13    0.90 
  -8  -2  11    0.31    0.89 
   8  -2 -11   -0.48    0.85 
  -8   2  11    1.92    0.89 
   8   2 -11    1.07    0.69 
   7  -2 -11    1.72    0.80 
  -7  -2  11    2.17    0.84 
  -7   2  11    3.97    0.87 
   7   2 -11    2.00    0.64 
  -6  -2  11    0.08    0.75 
   6  -2 -11   -1.32    0.68 
  -6   2  11    0.84    0.75 
   6   2 -11   -0.26    0.51 
  -5  -2  11   23.31    1.69 
   5  -2 -11   20.79    1.28 
  -5   2  11   23.63    1.37 
   5   2 -11   20.79    1.01 
   4  -2 -11    3.92    0.69 
  -4  -2  11    3.79    0.77 
  -4   2  11    5.19    0.78 
   4   2 -11    4.38    0.70 
   3  -2 -11    0.01    0.56 
  -3  -2  11    0.42    0.68 
   3   2 -11    0.41    0.41 
  -3   2  11    0.54    0.65 
  -2  -2  11    5.02    0.76 
   2  -2 -11    6.67    0.86 
   2   2 -11    6.10    0.61 
  -2   2  11    6.79    0.99 
   1  -2 -11    0.15    0.51 
  -1  -2  11    0.20    0.65 
   1  -2 -11    0.15    0.32 
  -1   2  11    0.16    0.66 
   1   2 -11    0.08    0.38 
   0  -2 -11    1.08    0.53 
   0  -2 -11    1.16    0.36 
   0  -2  11    0.55    0.66 
   0   2  11    0.71    0.63 
   0   2 -11    1.03    0.41 
  -1  -2 -11   12.24    0.92 
  -1  -2 -11   13.37    0.81 
  -1   2 -11   12.45    0.77 
   1   2  11   12.41    1.07 
  -2  -2 -11   13.88    0.87 
  -2  -2 -11   13.40    0.95 
  -2   2 -11   13.06    0.81 
   2   2  11   12.68    1.08 
  -3  -2 -11   10.61    0.93 
  -3  -2 -11   10.29    0.87 
   3   2  11    9.79    1.08 
  -3   2 -11   11.20    0.84 
  -4  -2 -11    0.95    0.53 
  -4  -2 -11    0.52    0.42 
  -4   2 -11    0.87    0.52 
   4   2  11    0.91    0.73 
  -5  -2 -11    7.28    0.99 
  -5  -2 -11    5.64    0.90 
   5   2  11    4.87    0.86 
  -5   2 -11    5.29    0.91 
  -6  -2 -11   25.90    1.32 
  -6  -2 -11   24.99    1.26 
  -6   2 -11   24.64    1.20 
   6   2  11   26.06    1.48 
  -7  -2 -11    6.45    1.04 
  -7  -2 -11    8.54    1.12 
   7   2  11    8.91    1.37 
  -7   2 -11    6.18    1.04 
  -8  -2 -11    3.24    0.77 
   8   2  11    2.25    0.94 
  -8   2 -11    1.21    0.72 
   7   3 -11    1.00    0.64 
  -7   3  11    2.01    0.95 
  -6  -3  11    0.53    0.89 
  -6   3  11    0.59    0.88 
   6   3 -11   -0.77    0.53 
  -5  -3  11    0.92    0.85 
  -5   3  11    0.57    0.83 
   5   3 -11    0.09    0.48 
  -4  -3  11    2.72    0.86 
   4   3 -11    3.17    0.51 
  -4   3  11    4.51    0.88 
  -3  -3  11    9.04    1.70 
   3  -3 -11    5.58    1.02 
   3   3 -11    6.18    0.67 
  -3   3  11    9.50    1.34 
   2  -3 -11    1.31    0.64 
   2  -3 -11    1.57    0.46 
  -2  -3  11    2.73    0.82 
  -2   3  11    3.44    0.78 
   1  -3 -11    0.77    0.41 
   1  -3 -11   -0.27    0.57 
  -1  -3  11    0.69    0.77 
  -1   3  11    1.78    0.76 
   0  -3 -11    7.96    0.88 
   0  -3 -11    6.28    0.93 
   0   3  11    8.35    1.26 
  -1  -3 -11   15.11    1.00 
  -1  -3 -11   14.78    1.05 
   1   3  11   16.18    1.30 
  -2  -3 -11    5.90    0.89 
  -2  -3 -11    5.18    0.90 
   2   3  11    5.24    0.83 
  -3  -3 -11    0.59    0.46 
  -3  -3 -11    0.70    0.56 
   3   3  11    1.41    0.80 
  -3   3 -11    2.07    0.49 
  -4  -3 -11    9.00    0.99 
  -4  -3 -11    9.88    1.03 
  -4   3 -11   11.00    0.90 
   4   3  11    9.84    1.36 
  -5  -3 -11   13.25    1.16 
  -5   3 -11   14.49    0.99 
   5   3  11   13.70    1.47 
  -6   3 -11    1.61    0.65 
   6   3  11    2.52    0.97 
   7   3  11    2.54    0.98 
  -7   3 -11    1.02    0.69 
   5   4 -11    3.84    0.62 
  -5   4  11    9.42    1.74 
   4   4 -11    1.51    0.53 
  -4   4  11    3.62    1.01 
  -3   4  11    1.66    0.94 
  -2  -4  11    1.89    0.96 
  -2   4  11    3.86    0.94 
  -1  -4  11   -0.26    0.95 
  -1   4  11    3.01    0.96 
   0   4  11    1.78    0.92 
   1   4  11    0.43    0.87 
   2   4  11    0.31    0.88 
   3   4  11    5.64    1.06 
   4   4  11    3.61    1.01 
   9   0 -12    3.67    0.93 
  -9   0  12    1.30    0.97 
   8   0 -12    2.17    0.77 
  -8   0  12    1.29    0.84 
   7   0 -12    8.92    1.13 
  -7   0  12    9.37    1.56 
   6   0 -12   10.07    1.08 
  -6   0  12    9.64    1.46 
  -5   0  12    1.75    0.65 
   5   0 -12    2.88    0.65 
  -5   0  12    3.22    0.57 
  -4   0  12   11.31    0.86 
  -4   0  12   11.40    1.19 
   4   0 -12   12.01    0.93 
   3   0 -12   42.79    1.39 
  -3   0  12   45.81    1.58 
  -3   0  12   43.83    1.33 
   2   0 -12   53.33    1.56 
  -2   0  12   52.94    1.48 
  -2   0  12   53.92    1.70 
  -1   0  12    0.37    0.52 
   1   0 -12   -0.13    0.50 
  -1   0  12   -0.30    0.26 
  -1   0  12    0.46    0.51 
   0   0 -12    0.71    0.45 
   0   0  12    1.72    0.56 
   0   0 -12    2.01    0.54 
   0   0  12    1.28    0.28 
   0   0 -12    1.68    0.24 
  -1   0 -12    0.16    0.43 
  -1   0 -12    0.55    0.24 
   1   0  12    0.08    0.26 
   1   0  12    0.44    0.57 
  -1   0 -12    0.52    0.51 
  -2   0 -12  111.64    2.33 
   2   0  12  112.93    2.56 
   2   0  12  106.21    2.26 
  -2   0 -12  112.49    2.64 
   3   0  12    5.86    0.86 
  -3   0 -12    5.36    0.60 
  -3   0 -12    5.15    0.85 
   4   0  12   15.05    0.98 
  -4   0 -12   16.20    1.03 
  -4   0 -12   14.19    0.81 
  -5   0 -12    8.15    1.02 
  -5   0 -12    6.65    0.78 
  -6   0 -12    2.29    0.48 
  -6   0 -12    4.50    0.72 
  -7   0 -12   26.75    1.20 
  -7   0 -12   28.88    1.43 
  -8   0 -12    3.20    0.79 
  -9   0 -12   17.16    1.46 
   9  -1 -12   -1.31    0.86 
  -9  -1  12   -1.40    0.96 
   9   1 -12   -1.32    0.77 
  -8  -1  12    1.62    0.89 
   8  -1 -12    2.07    0.85 
   8   1 -12    2.47    0.76 
  -8   1  12    3.46    0.81 
  -8   1  12   -0.49    0.82 
   7  -1 -12    0.20    0.75 
  -7  -1  12    1.37    0.80 
  -7   1  12    1.91    0.73 
   7   1 -12    1.78    0.67 
  -6  -1  12    0.91    0.75 
   6  -1 -12    0.90    0.71 
   6   1 -12    0.29    0.57 
  -6   1  12   -0.45    0.64 
  -6   1  12    1.37    0.69 
  -5  -1  12    0.80    0.69 
   5  -1 -12   -0.46    0.63 
  -5   1  12   -0.51    0.57 
   5   1 -12   -0.15    0.52 
  -5   1  12   -0.07    0.64 
  -4  -1  12   18.06    1.49 
   4  -1 -12   17.71    1.10 
  -4   1  12   18.21    1.16 
  -4   1  12   19.70    1.11 
   4   1 -12   17.87    0.97 
  -3  -1  12   11.57    1.34 
   3  -1 -12   11.29    0.94 
  -3   1  12   11.42    1.01 
  -3   1  12   11.91    0.93 
   3   1 -12   11.51    0.81 
  -2  -1  12   15.56    1.33 
   2  -1 -12   15.27    0.96 
  -2   1  12   16.11    1.04 
   2   1 -12   16.66    0.88 
  -2   1  12   15.86    0.86 
   1  -1 -12   19.31    1.06 
   1  -1 -12   18.15    0.76 
  -1  -1  12   19.10    1.38 
  -1   1  12   18.61    1.04 
   1   1 -12   18.48    0.92 
   0  -1  12    2.28    0.66 
   0  -1 -12    3.51    0.60 
   0  -1 -12    3.18    0.55 
   0   1 -12    3.81    0.52 
   0   1  12    3.37    0.69 
  -1  -1 -12    6.74    0.63 
  -1  -1 -12    5.95    0.88 
  -1   1 -12    5.91    0.76 
   1   1  12    6.22    0.94 
  -2  -1 -12    0.15    0.31 
  -2  -1 -12    0.09    0.51 
   2   1  12    0.13    0.62 
  -2   1 -12    0.18    0.18 
  -2   1 -12    0.32    0.46 
  -3  -1 -12   14.25    0.82 
  -3  -1 -12   12.68    0.99 
  -3   1 -12   12.32    0.59 
  -3   1 -12   13.18    0.93 
   3   1  12   13.21    1.02 
  -4  -1 -12    2.43    0.43 
  -4  -1 -12    4.04    0.64 
  -4   1 -12    2.36    0.36 
  -4   1 -12    2.81    0.60 
   4   1  12    3.19    0.70 
  -5  -1 -12    0.47    0.60 
  -5  -1 -12   -0.11    0.40 
   5   1  12    0.55    0.72 
  -5   1 -12   -0.76    0.36 
  -5   1 -12    0.50    0.58 
  -6  -1 -12   12.21    1.17 
  -6  -1 -12    9.75    0.95 
   6   1  12   10.48    1.20 
  -6   1 -12   11.94    1.11 
  -6   1 -12    8.29    0.82 
  -7  -1 -12   12.46    1.09 
  -7  -1 -12   16.42    1.26 
  -7   1 -12   14.97    1.21 
  -7   1 -12   11.55    0.94 
   7   1  12   15.98    1.31 
  -8  -1 -12   14.36    1.36 
  -8  -1 -12    9.76    1.20 
  -8   1 -12   13.19    1.25 
  -8   1 -12   10.53    1.03 
  -9  -1 -12    2.37    0.83 
  -9   1 -12    2.15    0.81 
   8  -2 -12    0.71    0.93 
  -8   2  12    3.48    0.93 
   8   2 -12    1.91    0.76 
   7  -2 -12    0.23    0.81 
  -7  -2  12    1.36    0.89 
  -7   2  12    3.19    0.88 
   7   2 -12    1.47    0.66 
   6  -2 -12   -1.31    0.72 
  -6  -2  12    0.20    0.77 
  -6   2  12    0.24    0.77 
   6   2 -12   -0.74    0.52 
  -5  -2  12    3.16    0.81 
   5  -2 -12    4.96    0.78 
   5   2 -12    4.42    0.61 
  -5   2  12    4.81    0.83 
  -4  -2  12    1.98    0.76 
   4  -2 -12    2.10    0.68 
   4   2 -12    2.64    0.53 
  -4   2  12    3.96    0.83 
   3  -2 -12    7.90    0.98 
  -3  -2  12    9.44    1.59 
   3   2 -12    7.52    0.75 
  -3   2  12    8.82    1.23 
   2  -2 -12    0.03    0.53 
  -2  -2  12    0.36    0.69 
  -2   2  12    0.23    0.66 
   2   2 -12   -0.04    0.39 
   1  -2 -12   10.00    0.94 
  -1  -2  12   10.21    1.51 
   1  -2 -12   10.56    0.75 
   1   2 -12    9.84    0.76 
  -1   2  12   10.96    1.11 
   0  -2 -12    1.27    0.36 
   0  -2 -12    1.91    0.57 
   0  -2  12    1.09    0.73 
   0   2 -12    1.45    0.44 
   0   2  12    2.34    0.71 
  -1  -2 -12   19.40    1.08 
  -1  -2 -12   20.52    0.94 
  -1   2 -12   20.05    0.93 
   1   2  12   19.54    1.20 
  -2  -2 -12   18.67    1.00 
  -2  -2 -12   17.91    1.07 
   2   2  12   17.53    1.19 
  -2   2 -12   18.42    0.97 
  -3  -2 -12    5.53    0.82 
  -3  -2 -12    4.48    0.66 
   3   2  12    6.03    1.11 
  -3   2 -12    5.94    0.88 
  -4  -2 -12    6.79    0.97 
  -4  -2 -12    6.15    0.91 
   4   2  12    7.62    1.18 
  -4   2 -12    6.96    0.97 
  -5  -2 -12   14.06    1.06 
  -5  -2 -12   15.07    1.18 
  -5   2 -12   16.87    1.11 
   5   2  12   15.45    1.36 
  -6  -2 -12    6.57    1.00 
  -6  -2 -12    9.43    1.14 
   6   2  12    9.44    1.34 
  -6   2 -12    8.94    1.05 
  -7  -2 -12    7.42    1.26 
  -7   2 -12    6.49    1.10 
   7   2  12    8.31    1.42 
  -8  -2 -12    1.77    0.81 
   8   2  12    1.45    0.98 
  -8   2 -12    1.71    0.73 
  -7   3  12    0.76    0.97 
   7   3 -12   -0.79    0.63 
  -6   3  12    1.42    0.95 
   6   3 -12    0.40    0.60 
  -5  -3  12    4.38    0.98 
  -5   3  12    5.72    1.01 
   5   3 -12    4.02    0.79 
  -4  -3  12    9.01    1.74 
   4   3 -12    5.48    0.73 
  -4   3  12    7.96    1.45 
  -3  -3  12    2.08    0.83 
   3  -3 -12    0.41    0.70 
  -3   3  12    2.37    0.88 
   3   3 -12    1.61    0.44 
  -2  -3  12    1.63    0.81 
   2  -3 -12    0.81    0.65 
  -2   3  12    2.55    0.81 
   2   3 -12    1.89    0.43 
   1  -3 -12    5.58    0.84 
  -1  -3  12    4.13    0.88 
   1  -3 -12    4.90    0.71 
   1   3 -12    4.67    0.68 
  -1   3  12    8.08    1.38 
   0  -3 -12    9.68    1.02 
   0  -3 -12   11.66    0.92 
   0   3  12   12.43    1.40 
  -1  -3 -12    1.41    0.61 
  -1  -3 -12    1.51    0.45 
   1   3  12    2.29    0.78 
  -2  -3 -12    5.88    0.91 
  -2  -3 -12    4.34    0.69 
   2   3  12    4.65    0.86 
  -3  -3 -12    1.16    0.48 
  -3  -3 -12    0.84    0.60 
   3   3  12    1.08    0.81 
  -3   3 -12    1.76    0.50 
  -4  -3 -12    8.34    1.06 
   4   3  12    8.29    1.37 
  -4   3 -12   10.32    0.95 
   5   3  12    3.62    0.99 
  -5   3 -12    5.91    1.01 
  -6   3 -12    1.68    0.65 
   6   3  12    2.34    1.01 
  -4   4  12    1.77    1.03 
  -3   4  12    3.23    1.07 
  -2   4  12    5.79    1.06 
  -1   4  12    2.49    1.01 
   0   4  12    2.55    1.00 
   1   4  12    4.65    1.01 
   2   4  12    9.83    1.68 
   3   4  12    4.04    1.06 
   9   0 -13   -1.40    0.85 
  -9   0  13   -1.72    0.94 
  -8   0  13   -1.68    0.83 
   8   0 -13   -1.01    0.76 
   7   0 -13    2.15    0.75 
  -7   0  13    1.41    0.79 
  -6   0  13    3.86    0.78 
   6   0 -13    5.74    1.07 
   5   0 -13    4.92    0.97 
  -5   0  13    4.07    0.72 
  -4   0  13    2.78    0.63 
   4   0 -13    3.14    0.63 
   3   0 -13   18.19    1.01 
  -3   0  13   19.51    0.96 
  -3   0  13   19.38    1.30 
  -2   0  13    0.61    0.51 
  -2   0  13    0.33    0.50 
   2   0 -13   -0.12    0.50 
  -1   0  13   49.26    1.42 
  -1   0  13   50.92    1.60 
   1   0 -13   48.72    1.50 
   0   0 -13   70.45    1.89 
   0   0 -13   71.15    1.53 
   0   0  13   72.31    1.81 
  -1   0 -13    0.51    0.50 
   1   0  13    0.40    0.54 
  -1   0 -13    0.27    0.21 
  -2   0 -13    0.95    0.53 
  -2   0 -13    0.63    0.25 
   2   0  13    0.58    0.57 
  -3   0 -13    0.93    0.57 
  -3   0 -13    0.63    0.30 
  -4   0 -13    4.18    0.67 
  -4   0 -13    5.95    1.02 
  -5   0 -13   16.80    0.92 
  -5   0 -13   19.43    1.24 
  -6   0 -13    2.65    0.50 
  -6   0 -13    4.62    0.76 
  -7   0 -13    2.12    0.75 
  -7   0 -13    1.37    0.50 
  -8   0 -13   -0.20    0.54 
  -8   0 -13    1.67    0.81 
   9  -1 -13   -1.61    0.90 
   9   1 -13   -0.96    0.82 
   8  -1 -13    6.45    0.99 
  -8  -1  13    5.31    1.04 
   8   1 -13    6.55    0.90 
   7  -1 -13   -0.18    0.76 
  -7  -1  13    0.25    0.82 
  -7   1  13    1.61    0.76 
   7   1 -13   -0.67    0.65 
   6  -1 -13    9.14    1.21 
  -6  -1  13    9.30    1.63 
  -6   1  13   10.41    1.15 
   6   1 -13    9.15    1.02 
  -5  -1  13    7.51    1.49 
   5  -1 -13    5.98    1.09 
  -5   1  13    8.30    1.05 
   5   1 -13    7.37    0.94 
   4  -1 -13    6.34    1.00 
  -4  -1  13    5.11    0.78 
  -4   1  13    7.44    1.04 
   4   1 -13    6.11    0.88 
   3  -1 -13   15.01    1.04 
  -3  -1  13   16.41    1.46 
   3   1 -13   14.58    0.92 
  -3   1  13   16.03    1.10 
  -2  -1  13    4.12    0.68 
   2  -1 -13    4.48    0.87 
   2   1 -13    4.29    0.74 
  -2   1  13    5.24    0.97 
   1  -1 -13    6.36    0.58 
   1  -1 -13    6.89    0.91 
  -1  -1  13    7.60    1.26 
   1   1 -13    7.96    0.78 
  -1   1  13    7.18    0.93 
   0  -1 -13    5.02    0.55 
   0  -1 -13    4.51    0.85 
   0   1  13    4.87    0.70 
   0   1 -13    4.35    0.78 
  -1  -1 -13    2.23    0.58 
  -1  -1 -13    1.93    0.33 
   1   1  13    2.31    0.65 
  -1   1 -13    2.43    0.51 
  -2  -1 -13    1.77    0.35 
  -2  -1 -13    2.17    0.59 
  -2   1 -13    2.24    0.55 
   2   1  13    2.61    0.67 
  -3  -1 -13   31.65    1.12 
  -3  -1 -13   32.39    1.36 
   3   1  13   31.76    1.36 
  -3   1 -13   31.20    1.28 
  -4  -1 -13    5.76    0.77 
  -4  -1 -13    6.88    1.07 
  -4   1 -13    7.36    1.00 
   4   1  13    7.61    1.09 
  -5  -1 -13    0.49    0.43 
  -5  -1 -13    0.81    0.66 
   5   1  13    0.05    0.70 
  -5   1 -13    1.25    0.63 
  -6  -1 -13    1.68    0.70 
  -6   1 -13    1.90    0.68 
   6   1  13    1.73    0.87 
  -7  -1 -13    1.13    0.53 
  -7  -1 -13    2.59    0.79 
  -7   1 -13    2.10    0.74 
  -8  -1 -13    3.90    0.86 
  -8   1 -13    4.31    0.86 
   8  -2 -13   -0.49    0.93 
   8   2 -13    0.31    0.76 
  -8   2  13    2.34    0.94 
   7  -2 -13   -0.58    0.85 
  -7  -2  13   -0.51    0.89 
  -7   2  13    1.46    0.92 
   7   2 -13   -0.21    0.65 
  -6  -2  13    3.83    0.91 
   6  -2 -13    1.64    0.82 
  -6   2  13    3.88    0.88 
   6   2 -13    3.18    0.66 
  -5  -2  13    3.36    0.84 
   5  -2 -13    3.52    0.78 
   5   2 -13    4.58    0.64 
  -5   2  13    5.19    0.86 
   4  -2 -13   -0.61    0.65 
  -4  -2  13    0.49    0.78 
   4   2 -13   -0.05    0.48 
  -4   2  13    0.18    0.77 
  -3  -2  13   -0.06    0.72 
   3  -2 -13   -0.33    0.62 
   3   2 -13   -0.24    0.45 
  -3   2  13   -0.19    0.73 
   2  -2 -13    7.64    0.99 
  -2  -2  13    9.50    1.48 
  -2   2  13    8.48    1.24 
   2   2 -13    8.39    0.75 
   1  -2 -13    0.68    0.36 
  -1  -2  13    0.44    0.72 
   1  -2 -13    0.31    0.59 
  -1   2  13    1.41    0.74 
   1   2 -13    1.01    0.47 
   0  -2 -13    8.46    1.02 
   0  -2 -13    9.28    0.77 
   0   2 -13    7.96    0.83 
   0   2  13    9.40    1.21 
  -1  -2 -13    0.37    0.36 
  -1  -2 -13    0.65    0.60 
  -1   2 -13    0.38    0.47 
   1   2  13    0.59    0.71 
  -2  -2 -13    9.14    0.84 
  -2  -2 -13    8.57    1.01 
  -2   2 -13    9.95    0.96 
   2   2  13    9.99    1.23 
  -3  -2 -13    9.35    0.92 
  -3  -2 -13   10.12    1.05 
   3   2  13   10.47    1.21 
  -3   2 -13   10.65    1.02 
  -4  -2 -13    2.86    0.52 
  -4  -2 -13    3.86    0.70 
   4   2  13    4.62    0.85 
  -4   2 -13    6.19    1.00 
  -5  -2 -13    2.59    0.53 
  -5  -2 -13    3.60    0.72 
   5   2  13    2.97    0.84 
  -5   2 -13    5.72    1.09 
  -6  -2 -13    1.13    0.72 
  -6  -2 -13    0.34    0.51 
   6   2  13    1.74    0.90 
  -6   2 -13    1.32    0.66 
  -7  -2 -13    7.64    1.38 
   7   2  13    5.78    1.04 
  -7   2 -13    6.74    1.25 
  -6   3  13    3.19    1.05 
   6   3 -13    1.81    0.66 
   5   3 -13    4.73    0.65 
  -5   3  13    8.95    1.66 
  -4  -3  13    3.70    0.95 
   4   3 -13    3.39    0.56 
  -4   3  13    4.65    1.00 
  -3  -3  13    3.41    0.91 
  -3   3  13    5.62    0.99 
   3   3 -13    2.78    0.51 
  -2  -3  13    1.82    0.86 
   2  -3 -13    0.69    0.69 
  -2   3  13    2.60    0.89 
   2   3 -13    1.17    0.46 
  -1  -3  13    6.59    0.95 
   1  -3 -13    8.69    0.91 
   1  -3 -13    7.51    1.05 
   1   3 -13    7.09    0.73 
   0  -3 -13    5.36    1.03 
   0  -3 -13    6.68    0.85 
   0   3  13    9.83    1.43 
   0   3 -13    4.99    0.80 
  -1  -3 -13    0.10    0.43 
  -1  -3 -13   -0.59    0.61 
  -1   3 -13    0.70    0.47 
   1   3  13    1.09    0.82 
  -2  -3 -13   15.56    1.19 
  -2  -3 -13   15.82    1.08 
   2   3  13   16.89    1.52 
  -2   3 -13   18.63    1.01 
  -3  -3 -13    1.97    0.73 
  -3  -3 -13    1.67    0.52 
   3   3  13    2.04    0.87 
   4   3  13    0.60    0.93 
  -4   3 -13    1.50    0.60 
   5   3  13    9.14    1.57 
  -5   3 -13   11.00    1.14 
   6   3  13    2.53    1.07 
  -6   3 -13    2.51    0.72 
  -2   4  13    2.39    1.06 
  -1   4  13    4.50    1.10 
   0   4  13   10.65    1.82 
   1   4  13   12.17    1.83 
   2   4  13    2.12    1.06 
   8   0 -14    2.91    0.91 
  -8   0  14    0.55    0.95 
   7   0 -14   -0.68    0.72 
  -7   0  14   -1.14    0.80 
  -6   0  14    2.60    0.77 
   6   0 -14    4.22    0.79 
   5   0 -14    4.74    0.74 
  -5   0  14    3.29    0.72 
   4   0 -14   14.90    1.09 
  -4   0  14   15.02    1.36 
  -3   0  14    3.13    0.61 
   3   0 -14    2.84    0.62 
  -2   0  14    0.40    0.53 
   2   0 -14    0.22    0.52 
   1   0 -14    2.14    0.57 
   0   0 -14   38.15    1.36 
  -1   0 -14    2.96    0.42 
  -1   0 -14    3.28    0.61 
  -2   0 -14    1.07    0.27 
  -2   0 -14    1.63    0.59 
  -3   0 -14   15.46    1.16 
  -3   0 -14   15.42    0.75 
  -4   0 -14    0.20    0.35 
  -4   0 -14    1.72    0.66 
  -5   0 -14    7.93    1.22 
  -5   0 -14    6.23    0.79 
  -6   0 -14    5.45    0.89 
  -6   0 -14    8.53    1.21 
  -7   0 -14    7.81    1.31 
  -8   0 -14    4.20    0.91 
   8  -1 -14   -1.07    0.87 
  -8  -1  14   -0.65    0.96 
   8   1 -14   -0.58    0.77 
  -7  -1  14   -0.64    0.85 
   7  -1 -14   -0.91    0.80 
   7   1 -14   -0.45    0.68 
  -6  -1  14   -0.15    0.76 
   6  -1 -14   -1.02    0.72 
  -6   1  14    0.83    0.74 
   6   1 -14   -0.30    0.62 
  -5  -1  14   16.08    1.61 
   5  -1 -14   13.49    1.22 
  -5   1  14   14.79    1.16 
   5   1 -14   12.49    1.10 
   4  -1 -14    3.14    0.71 
  -4  -1  14    3.60    0.77 
   4   1 -14    3.08    0.64 
  -4   1  14    4.12    0.76 
   3  -1 -14    8.21    1.02 
  -3  -1  14   10.13    1.46 
  -3   1  14    9.58    1.12 
   3   1 -14    8.55    0.90 
  -2  -1  14    7.47    1.39 
   2  -1 -14    7.63    0.98 
  -2   1  14    8.39    1.01 
   2   1 -14    7.20    0.86 
   1  -1 -14   10.53    1.02 
  -1  -1  14    9.03    1.35 
   1   1 -14    9.92    0.90 
  -1   1  14   11.12    1.02 
   0  -1 -14    2.18    0.33 
   0  -1 -14    2.22    0.63 
   0   1  14    2.34    0.68 
   0   1 -14    2.44    0.55 
  -1  -1 -14   45.48    1.55 
  -1  -1 -14   43.49    1.25 
  -1   1 -14   43.94    1.46 
   1   1  14   46.23    1.57 
  -2  -1 -14    3.75    0.65 
  -2  -1 -14    2.67    0.66 
  -2   1 -14    3.12    0.62 
   2   1  14    3.63    0.73 
  -3  -1 -14    4.52    0.72 
  -3  -1 -14    4.65    0.74 
   3   1  14    6.41    1.09 
  -3   1 -14    5.92    1.03 
  -4  -1 -14   11.34    0.91 
  -4  -1 -14   13.35    1.21 
   4   1  14   12.42    1.14 
  -4   1 -14   12.21    1.18 
  -5  -1 -14    3.24    0.52 
  -5  -1 -14    3.75    0.77 
  -5   1 -14    5.68    1.09 
  -6  -1 -14   20.01    1.20 
  -6  -1 -14   23.57    1.51 
  -6   1 -14   23.68    1.43 
  -7  -1 -14    2.54    0.85 
  -7  -1 -14    0.81    0.56 
  -7   1 -14    4.08    0.85 
   7  -2 -14   -0.96    0.92 
  -7   2  14    2.25    0.97 
   7   2 -14    0.09    0.70 
   6  -2 -14    0.44    0.86 
  -6  -2  14    1.94    0.95 
   6   2 -14    1.20    0.66 
  -6   2  14    3.17    0.93 
   5  -2 -14   -0.91    0.72 
  -5  -2  14   -0.45    0.81 
   5   2 -14   -0.93    0.54 
  -5   2  14    0.40    0.85 
  -4  -2  14    5.09    0.89 
   4  -2 -14    4.69    0.81 
   4   2 -14    4.55    0.84 
  -4   2  14    8.15    1.36 
  -3  -2  14    4.18    0.83 
   3  -2 -14    2.67    0.72 
   3   2 -14    3.90    0.58 
  -3   2  14    5.01    0.87 
   2  -2 -14   -0.48    0.62 
  -2  -2  14    0.02    0.75 
  -2   2  14    0.60    0.80 
   2   2 -14    0.10    0.46 
  -1  -2  14    8.95    1.51 
   1  -2 -14    9.13    1.07 
   1  -2 -14    9.80    0.82 
   1   2 -14   10.00    0.89 
  -1   2  14   11.73    1.34 
   0  -2 -14    0.61    0.64 
   0  -2 -14    0.41    0.34 
   0   2  14    1.77    0.84 
   0   2 -14    0.77    0.50 
  -1  -2 -14   11.33    0.86 
  -1  -2 -14   10.74    1.11 
  -1   2 -14   11.02    0.98 
   1   2  14   13.49    1.30 
  -2  -2 -14    6.48    0.78 
  -2  -2 -14    6.05    1.04 
   2   2  14    9.12    1.26 
  -2   2 -14    7.07    0.98 
  -3  -2 -14    1.65    0.46 
  -3  -2 -14    2.29    0.69 
  -3   2 -14    2.19    0.61 
   3   2  14    2.93    0.84 
  -4  -2 -14    0.29    0.44 
  -4  -2 -14    0.98    0.67 
   4   2  14    1.49    0.83 
  -4   2 -14    1.87    0.62 
  -5  -2 -14    3.59    0.78 
  -5  -2 -14    3.14    0.57 
   5   2  14    4.57    0.96 
  -5   2 -14    5.94    1.16 
  -6  -2 -14    4.25    0.84 
  -6   2 -14    4.09    0.79 
   6   2  14    3.63    0.98 
  -5   3  14    3.99    1.06 
   5   3 -14    0.76    0.60 
  -4   3  14    0.85    0.99 
  -3  -3  14    0.91    0.92 
   3   3 -14   -0.44    0.49 
  -3   3  14    2.25    1.02 
  -2  -3  14    2.03    0.92 
  -2   3  14    4.15    1.00 
   2   3 -14    2.62    0.53 
   1  -3 -14   -1.47    0.69 
  -1  -3  14   -1.24    0.91 
   1  -3 -14   -0.84    0.41 
  -1   3  14    0.46    0.94 
   1   3 -14   -0.82    0.42 
   0  -3 -14    0.90    0.45 
   0  -3 -14    0.28    0.70 
   0   3  14    1.44    0.95 
   0   3 -14    0.83    0.49 
  -1  -3 -14    0.17    0.69 
  -1  -3 -14   -0.03    0.44 
  -1   3 -14    0.43    0.51 
   1   3  14    0.78    0.95 
  -2  -3 -14    6.43    0.98 
   2   3  14    8.31    1.54 
  -2   3 -14    7.06    0.94 
  -3   3 -14    7.77    1.06 
   3   3  14    6.72    1.10 
   4   3  14    5.26    1.04 
  -4   3 -14    7.85    1.11 
   7   0 -15   -0.91    0.78 
   6   0 -15    1.83    0.77 
   5   0 -15    0.75    0.68 
   4   0 -15    9.24    1.06 
   3   0 -15   13.44    1.07 
   2   0 -15    0.15    0.58 
   1   0 -15    4.50    0.68 
   0   0 -15    2.57    0.62 
  -1   0 -15   12.02    1.05 
  -2   0 -15    0.60    0.61 
  -3   0 -15   10.74    1.17 
  -4   0 -15    0.62    0.69 
  -5   0 -15    4.39    0.82 
  -6   0 -15    2.23    0.83 
  -7   0 -15   10.21    1.51 
   7  -1 -15    3.38    0.95 
  -7  -1  15    1.99    0.96 
   7   1 -15    3.15    0.84 
   6  -1 -15   -1.17    0.78 
  -6  -1  15    0.40    0.83 
   6   1 -15   -0.90    0.65 
   5  -1 -15   -0.48    0.71 
  -5  -1  15    0.85    0.78 
   5   1 -15    0.57    0.64 
   4  -1 -15    1.88    0.72 
  -4  -1  15    2.33    0.76 
   4   1 -15    1.72    0.63 
   3  -1 -15    1.46    0.66 
  -3  -1  15    2.56    0.73 
   3   1 -15    1.58    0.58 
  -3   1  15    2.23    0.71 
   2  -1 -15    0.10    0.61 
  -2  -1  15    0.79    0.67 
  -2   1  15    1.52    0.69 
   2   1 -15    0.54    0.56 
  -1  -1  15    5.94    0.81 
   1  -1 -15    8.85    1.08 
  -1   1  15   10.49    1.13 
   1   1 -15    8.78    0.95 
   0  -1 -15    4.53    0.58 
   0  -1 -15    5.24    0.73 
   0   1  15    6.24    1.01 
   0   1 -15    4.78    0.64 
  -1  -1 -15    2.01    0.35 
  -1  -1 -15    2.52    0.66 
  -1   1 -15    2.64    0.61 
   1   1  15    3.20    0.76 
  -2  -1 -15   15.62    0.83 
  -2  -1 -15   14.89    1.20 
   2   1  15   16.11    1.23 
  -2   1 -15   15.59    1.11 
  -3  -1 -15    0.00    0.64 
  -3  -1 -15    0.04    0.35 
  -3   1 -15    0.42    0.64 
  -4  -1 -15   17.48    1.33 
  -4  -1 -15   15.60    0.98 
  -4   1 -15   17.06    1.28 
  -5  -1 -15    1.07    0.46 
  -5  -1 -15    0.79    0.77 
  -5   1 -15    1.85    0.75 
  -6  -1 -15    5.52    0.95 
  -6   1 -15    7.38    1.32 
  -7  -1 -15    2.89    0.93 
  -7   1 -15    3.84    0.88 
  -6  -2  15    2.83    1.08 
   6  -2 -15    1.15    0.93 
  -6   2  15    4.63    1.00 
   6   2 -15    1.97    0.71 
  -5  -2  15    0.74    0.91 
   5  -2 -15   -0.44    0.81 
  -5   2  15    2.32    0.96 
   5   2 -15    0.76    0.63 
   4  -2 -15    6.61    1.25 
  -4  -2  15   12.38    1.80 
   4   2 -15    7.61    0.96 
  -4   2  15   10.44    1.46 
   3  -2 -15   -0.38    0.69 
  -3  -2  15    0.82    0.81 
   3   2 -15    0.56    0.54 
  -3   2  15    1.41    0.84 
   2  -2 -15    4.99    0.79 
  -2  -2  15    4.66    0.87 
   2   2 -15    5.03    0.81 
  -1  -2  15    2.48    0.85 
   1  -2 -15    3.36    0.48 
   1  -2 -15    3.97    0.75 
   1   2 -15    4.43    0.62 
  -1   2  15    6.90    1.35 
   0  -2 -15    5.32    0.80 
   0  -2 -15    5.33    0.75 
   0   2 -15    5.36    0.91 
   0   2  15    7.17    1.33 
  -1  -2 -15    8.53    0.82 
  -1  -2 -15    7.67    1.15 
   1   2  15    9.84    1.34 
  -1   2 -15    8.89    1.01 
  -2  -2 -15    6.04    1.13 
  -2  -2 -15    6.45    0.83 
   2   2  15    8.54    1.33 
  -2   2 -15    6.50    1.02 
  -3  -2 -15    2.76    0.77 
  -3  -2 -15    2.52    0.49 
  -3   2 -15    2.57    0.70 
   3   2  15    2.25    0.87 
  -4  -2 -15    2.71    0.54 
  -4  -2 -15    3.88    0.83 
   4   2  15    3.23    0.94 
  -4   2 -15    6.42    1.22 
  -5  -2 -15    6.79    1.07 
  -5  -2 -15    7.42    1.33 
   5   2  15    9.70    1.48 
  -5   2 -15    9.44    1.29 
  -4   3  15    0.84    1.05 
  -3   3  15    3.56    1.04 
   3   3 -15    0.10    0.54 
  -2  -3  15    1.31    1.05 
  -2   3  15    4.32    1.08 
   2   3 -15    1.91    0.57 
  -1   3  15    0.69    1.01 
   0  -3 -15    0.99    0.47 
   0   3  15    3.20    1.08 
   0   3 -15    0.82    0.55 
  -1   3 -15    4.46    0.63 
   1   3  15    5.46    1.06 
  -2   3 -15    7.85    1.05 
   2   3  15   10.11    1.73 
  -3   3 -15    1.75    0.65 
   3   3  15    1.95    1.02 
   7   0 -16    0.65    0.88 
   6   0 -16    0.95    0.79 
   5   0 -16   -0.73    0.68 
   4   0 -16    0.14    0.66 
   3   0 -16    0.31    0.63 
   2   0 -16    0.53    0.62 
   1   0 -16   -0.79    0.59 
   0   0 -16    3.94    0.70 
  -1   0 -16   -0.34    0.61 
  -2   0 -16   15.49    1.24 
  -3   0 -16   15.49    1.27 
  -4   0 -16    1.27    0.74 
  -5   0 -16   11.38    1.43 
  -6   0 -16    8.28    1.49 
   6  -1 -16   -0.27    0.84 
   6   1 -16   -0.26    0.73 
   5  -1 -16    0.13    0.77 
  -5  -1  16    0.96    0.86 
   5   1 -16    0.04    0.70 
  -4  -1  16    1.56    0.78 
   4  -1 -16   -0.11    0.72 
   4   1 -16    0.26    0.63 
   3  -1 -16    4.43    0.78 
  -3  -1  16    4.21    0.78 
   3   1 -16    5.04    0.71 
  -2  -1  16   13.39    1.50 
   2  -1 -16   11.82    1.14 
   2   1 -16   12.12    1.05 
   1  -1 -16   -0.43    0.64 
   1   1 -16   -0.05    0.57 
   0  -1 -16    3.73    0.74 
   0   1 -16    3.84    0.66 
  -1  -1 -16    3.32    0.74 
  -1   1 -16    2.80    0.66 
  -2  -1 -16    9.09    1.22 
  -2   1 -16    9.43    1.11 
  -3  -1 -16    2.95    0.77 
  -3   1 -16    2.26    0.70 
  -4  -1 -16    2.22    0.80 
  -4   1 -16    2.91    0.78 
  -5  -1 -16    5.12    0.92 
  -5   1 -16    4.98    0.88 
  -6  -1 -16    1.66    0.90 
  -6   1 -16    1.84    0.85 
  -5  -2  16    2.71    1.00 
   5  -2 -16    0.27    0.89 
   5   2 -16    1.63    0.71 
  -5   2  16    3.24    1.04 
   4  -2 -16    3.07    0.89 
  -4   2  16    5.83    1.03 
   4   2 -16    3.83    0.72 
  -3  -2  16    1.62    0.88 
   3  -2 -16    0.47    0.78 
   3   2 -16    0.15    0.59 
  -3   2  16    1.60    0.92 
  -2  -2  16   -0.26    0.84 
   2  -2 -16   -1.28    0.70 
   2   2 -16   -0.32    0.54 
  -2   2  16    1.82    0.94 
   1  -2 -16    5.99    1.17 
   1   2 -16    5.97    0.97 
   0  -2 -16    0.74    0.40 
   0  -2 -16    0.68    0.74 
   0   2 -16    0.97    0.60 
   0   2  16    2.38    0.91 
  -1  -2 -16    1.77    0.78 
  -1  -2 -16    1.70    0.43 
  -1   2 -16    1.77    0.62 
   1   2  16    3.72    0.98 
  -2  -2 -16    1.16    0.78 
  -2  -2 -16    0.96    0.43 
   2   2  16    2.22    0.92 
  -2   2 -16    1.72    0.64 
  -3  -2 -16   13.46    1.40 
  -3  -2 -16   13.33    1.03 
   3   2  16   12.77    1.52 
  -3   2 -16   13.93    1.26 
  -4  -2 -16   10.53    1.10 
  -4  -2 -16    9.47    1.41 
  -4   2 -16   11.93    1.36 
  -1   3  16    2.24    1.11 
   0   3 -16    5.90    0.96 
   5   0 -17    4.74    0.89 
   4   0 -17   -0.71    0.71 
   3   0 -17    5.01    0.81 
   2   0 -17   -0.25    0.64 
   1   0 -17    4.08    0.76 
   0   0 -17    4.80    0.76 
  -1   0 -17   17.28    1.26 
  -2   0 -17    6.82    1.22 
  -3   0 -17    2.57    0.79 
  -4   0 -17    4.46    0.89 
  -5   0 -17    2.38    0.88 
   5  -1 -17   -0.90    0.82 
   5   1 -17   -0.21    0.74 
   4  -1 -17    6.98    1.29 
   4   1 -17    6.44    1.15 
   3  -1 -17   -1.08    0.71 
   3   1 -17   -0.74    0.61 
   2  -1 -17    0.36    0.71 
   2   1 -17    0.83    0.61 
   1  -1 -17    5.72    0.85 
   1   1 -17    5.66    1.04 
   0  -1 -17   15.91    1.33 
   0   1 -17   15.33    1.20 
  -1  -1 -17    6.16    1.21 
  -1   1 -17    5.98    0.77 
  -2  -1 -17    3.52    0.82 
  -2   1 -17    2.94    0.74 
  -3  -1 -17    2.40    0.84 
  -3   1 -17    2.68    0.78 
  -4  -1 -17    3.46    0.90 
  -4   1 -17    3.16    0.84 
  -3  -2  17    0.85    0.93 
   3  -2 -17   -0.92    0.80 
   3   2 -17   -0.40    0.62 
   2  -2 -17    1.23    0.83 
  -2  -2  17    0.41    0.94 
   2   2 -17    1.99    0.65 
   1  -2 -17   -0.91    0.76 
   1   2 -17   -0.77    0.60 
   0  -2 -17    2.98    0.86 
   0   2 -17    2.87    0.71 
  -1  -2 -17    3.79    0.90 
  -1   2 -17    4.55    0.73 
  -2  -2 -17    0.99    0.85 
  -2   2 -17    1.92    0.72 
   4   0 -18   -1.16    0.75 
   3   0 -18    4.46    0.84 
   2   0 -18   19.53    1.37 
   1   0 -18   -0.28    0.72 
   0   0 -18    3.72    0.82 
  -1   0 -18    1.28    0.76 
  -2   0 -18   14.17    1.41 
  -3   0 -18    8.22    1.40 
   3  -1 -18    1.36    0.83 
   3   1 -18    2.29    0.73 
   2  -1 -18   -0.67    0.75 
   2   1 -18   -0.57    0.66 
   1  -1 -18    0.14    0.79 
   1   1 -18    0.89    0.71 
   0  -1 -18   -1.05    0.77 
   0   1 -18   -0.40    0.68 
  -1  -1 -18   -0.17    0.79 
  -1   1 -18   -0.42    0.69 
  -2  -1 -18    5.17    0.93 
  -2   1 -18    5.39    0.86 
   0   0   0    0.00    0.00 
;
_shelx_hkl_checksum              29061
loop_
_space_group_symop_operation_xyz
'x, y, z'
'-x, y+1/2, -z'
loop_
_atom_site_label
_atom_site_type_symbol
_atom_site_fract_x
_atom_site_fract_y
_atom_site_fract_z
_atom_site_U_iso_or_equiv
_atom_site_adp_type
_atom_site_occupancy
_atom_site_site_symmetry_order
_atom_site_calc_flag
_atom_site_refinement_flags_posn
_atom_site_refinement_flags_adp
_atom_site_refinement_flags_occupancy
_atom_site_disorder_assembly
_atom_site_disorder_group
S1 S 0.37252(11) 0.2696(2) 0.89562(6) 0.0349(3) Uani 1 1 d . U . . .
N1 N 0.5255(3) 0.6313(8) 0.7452(2) 0.0315(7) Uani 1 1 d . U . . .
N2 N 0.5502(3) 0.3148(9) 0.8791(2) 0.0364(8) Uani 1 1 d . U . . .
H2A H 0.6104 0.1997 0.9126 0.044 Uiso 1 1 calc R U . . .
N3 N 0.3139(3) 0.3506(8) 0.7882(2) 0.0351(8) Uani 1 1 d . U . . .
O1 O 0.3298(3) 0.5274(7) 0.95669(17) 0.0383(7) Uani 1 1 d . U . . .
C1 C 0.6017(4) 0.5190(9) 0.8172(2) 0.0294(8) Uani 1 1 d . U . . .
C2 C 0.3897(4) 0.5225(9) 0.7326(2) 0.0287(8) Uani 1 1 d . U . . .
C3 C 0.7499(4) 0.6134(10) 0.8264(3) 0.0337(9) Uani 1 1 d . U . . .
C4 C 0.8491(5) 0.5422(12) 0.8984(3) 0.0426(11) Uani 1 1 d D U . . .
H4A H 0.8279 0.4233 0.9527 0.051 Uiso 1 1 calc R U . . .
C5 C 0.9821(5) 0.6658(13) 0.8811(3) 0.0548(13) Uani 1 1 d D U . . .
H5A H 1.0628 0.6365 0.9219 0.066 Uiso 1 1 calc R U . . .
C6 C 0.9853(4) 0.8306(14) 0.8011(3) 0.0559(13) Uani 1 1 d D U . . .
H6A H 1.0679 0.9337 0.7798 0.067 Uiso 1 1 calc R U . . .
S2 S 0.82498(11) 0.8355(3) 0.74146(7) 0.0484(4) Uani 1 1 d D U . . .
C7 C 0.3240(4) 0.6068(9) 0.6412(2) 0.0314(9) Uani 1 1 d . U . . .
C8 C 0.3816(19) 0.768(5) 0.5682(12) 0.065(5) Uani 0.61 1 d D U P A 1
H8A H 0.4752 0.8514 0.5728 0.078 Uiso 0.61 1 calc R U P A 1
C9 C 0.2977(18) 0.805(7) 0.4878(13) 0.045(3) Uani 0.61 1 d D U P A 1
H9A H 0.3241 0.9170 0.4332 0.054 Uiso 0.61 1 calc R U P A 1
C10 C 0.1711(18) 0.657(5) 0.4986(9) 0.040(3) Uani 0.61 1 d D U P A 1
H10A H 0.0979 0.6503 0.4511 0.047 Uiso 0.61 1 calc R U P A 1
S3 S 0.1570(4) 0.4799(14) 0.6091(3) 0.0400(9) Uani 0.61 1 d D U P A 1
C8' C 0.186(3) 0.509(9) 0.6056(19) 0.038(5) Uani 0.39 1 d D U P A 2
H8B H 0.1210 0.3879 0.6401 0.045 Uiso 0.39 1 calc R U P A 2
C9' C 0.162(3) 0.613(8) 0.5163(17) 0.051(5) Uani 0.39 1 d D U P A 2
H9B H 0.0785 0.5663 0.4792 0.062 Uiso 0.39 1 calc R U P A 2
C10' C 0.271(3) 0.792(11) 0.4869(19) 0.044(6) Uani 0.39 1 d D U P A 2
H10B H 0.2712 0.8890 0.4267 0.053 Uiso 0.39 1 calc R U P A 2
S3' S 0.4092(6) 0.8274(17) 0.5690(4) 0.0443(12) Uani 0.39 1 d D U P A 2
loop_
_atom_site_aniso_label
_atom_site_aniso_U_11
_atom_site_aniso_U_22
_atom_site_aniso_U_33
_atom_site_aniso_U_23
_atom_site_aniso_U_13
_atom_site_aniso_U_12
S1 0.0435(6) 0.0302(5) 0.0305(5) 0.0027(5) -0.0071(4) -0.0060(5)
N1 0.0319(17) 0.0345(17) 0.0273(15) -0.0006(14) -0.0123(13) 0.0008(14)
N2 0.0353(17) 0.041(2) 0.0322(15) 0.0065(17) -0.0112(13) 0.0096(16)
N3 0.0327(18) 0.044(2) 0.0284(15) -0.0034(16) -0.0086(12) -0.0048(16)
O1 0.0397(17) 0.0463(18) 0.0286(13) -0.0039(13) -0.0020(11) -0.0008(13)
C1 0.0312(19) 0.029(2) 0.0276(17) -0.0072(16) -0.0080(14) 0.0064(15)
C2 0.0300(19) 0.028(2) 0.0275(17) -0.0095(16) -0.0080(14) 0.0022(15)
C3 0.0278(19) 0.043(2) 0.0298(18) -0.0111(18) -0.0073(15) 0.0074(17)
C4 0.037(2) 0.058(3) 0.0322(19) -0.009(2) -0.0117(17) 0.014(2)
C5 0.032(2) 0.081(4) 0.050(3) -0.025(2) -0.0145(19) 0.012(2)
C6 0.030(2) 0.080(4) 0.059(3) -0.027(3) 0.0043(19) -0.004(2)
S2 0.0373(6) 0.0676(9) 0.0401(5) -0.0045(6) -0.0029(4) -0.0062(6)
C7 0.0297(19) 0.037(2) 0.0266(17) -0.0076(17) -0.0106(15) 0.0067(17)
C8 0.059(7) 0.079(11) 0.056(6) 0.012(6) -0.012(4) -0.009(6)
C9 0.041(6) 0.060(8) 0.035(5) -0.001(5) -0.006(4) 0.010(6)
C10 0.039(5) 0.058(8) 0.021(4) -0.004(4) -0.016(4) 0.014(4)
S3 0.0260(15) 0.064(2) 0.0289(12) -0.0117(11) -0.0121(10) 0.0003(13)
C8' 0.029(8) 0.051(10) 0.032(7) -0.006(6) -0.009(5) 0.003(6)
C9' 0.047(8) 0.061(11) 0.045(8) -0.006(7) -0.011(6) 0.007(7)
C10' 0.047(9) 0.064(11) 0.021(6) 0.001(7) -0.019(6) 0.006(9)
S3' 0.050(2) 0.053(3) 0.0301(17) 0.0034(16) -0.0035(15) 0.012(2)
loop_
_atom_type_symbol
_atom_type_description
_atom_type_scat_dispersion_real
_atom_type_scat_dispersion_imag
_atom_type_scat_source
C C 0.0033 0.0016 'International Tables Vol C Tables 4.2.6.8 and 6.1.1.4'
H H 0.0000 0.0000 'International Tables Vol C Tables 4.2.6.8 and 6.1.1.4'
N N 0.0061 0.0033 'International Tables Vol C Tables 4.2.6.8 and 6.1.1.4'
O O 0.0106 0.0060 'International Tables Vol C Tables 4.2.6.8 and 6.1.1.4'
S S 0.1246 0.1234 'International Tables Vol C Tables 4.2.6.8 and 6.1.1.4'
loop_
_geom_angle_atom_site_label_1
_geom_angle_atom_site_label_2
_geom_angle_atom_site_label_3
_geom_angle
O1 S1 N3 107.43(17)
O1 S1 N2 106.33(17)
N3 S1 N2 98.75(16)
C1 N1 C2 117.5(3)
C1 N2 S1 122.6(3)
C2 N3 S1 120.4(3)
N1 C1 N2 123.1(4)
N1 C1 C3 117.8(4)
N2 C1 C3 119.1(3)
N3 C2 N1 129.6(3)
N3 C2 C7 116.8(3)
N1 C2 C7 113.6(3)
C4 C3 C1 128.6(4)
C4 C3 S2 111.0(3)
C1 C3 S2 120.4(3)
C5 C4 C3 112.0(4)
C6 C5 C4 113.2(4)
C5 C6 S2 112.7(4)
C3 S2 C6 91.1(2)
C8 C7 C2 129.0(8)
C8' C7 C2 126.3(10)
C8' C7 S3' 113.7(10)
C2 C7 S3' 120.0(4)
C8 C7 S3 109.7(7)
C2 C7 S3 121.2(3)
C9 C8 C7 117.1(15)
C10 C9 C8 109.5(16)
C9 C10 S3 113.1(11)
C7 S3 C10 90.5(6)
C9' C8' C7 111.1(19)
C10' C9' C8' 111(2)
C9' C10' S3' 113.8(19)
C7 S3' C10' 90.0(10)
loop_
_geom_bond_atom_site_label_1
_geom_bond_atom_site_label_2
_geom_bond_distance
S1 O1 1.468(3)
S1 N3 1.645(3)
S1 N2 1.704(3)
N1 C1 1.323(4)
N1 C2 1.365(5)
N2 C1 1.341(5)
N3 C2 1.306(5)
C1 C3 1.452(5)
C2 C7 1.467(5)
C3 C4 1.397(5)
C3 S2 1.706(4)
C4 C5 1.386(6)
C5 C6 1.339(7)
C6 S2 1.708(4)
C7 C8 1.371(19)
C7 C8' 1.44(2)
C7 S3' 1.623(8)
C7 S3 1.712(5)
C8 C9 1.379(17)
C9 C10 1.361(12)
C10 S3 1.751(11)
C8' C9' 1.36(2)
C9' C10' 1.358(17)
C10' S3' 1.728(18)
loop_
_geom_torsion_atom_site_label_1
_geom_torsion_atom_site_label_2
_geom_torsion_atom_site_label_3
_geom_torsion_atom_site_label_4
_geom_torsion
O1 S1 N2 C1 -79.7(3)
N3 S1 N2 C1 31.4(3)
O1 S1 N3 C2 86.1(3)
N2 S1 N3 C2 -24.1(3)
C2 N1 C1 N2 -2.5(5)
C2 N1 C1 C3 174.9(3)
S1 N2 C1 N1 -21.1(5)
S1 N2 C1 C3 161.5(3)
S1 N3 C2 N1 7.6(6)
S1 N3 C2 C7 -174.6(3)
C1 N1 C2 N3 10.1(6)
C1 N1 C2 C7 -167.7(3)
N1 C1 C3 C4 176.0(4)
N2 C1 C3 C4 -6.6(6)
N1 C1 C3 S2 -5.3(5)
N2 C1 C3 S2 172.2(3)
C1 C3 C4 C5 177.9(4)
S2 C3 C4 C5 -1.0(5)
C3 C4 C5 C6 1.4(6)
C4 C5 C6 S2 -1.3(6)
C4 C3 S2 C6 0.2(4)
C1 C3 S2 C6 -178.7(3)
C5 C6 S2 C3 0.6(4)
N3 C2 C7 C8 -176.1(13)
N1 C2 C7 C8 2.0(13)
N3 C2 C7 C8' -2(2)
N1 C2 C7 C8' 176(2)
N3 C2 C7 S3' 178.4(4)
N1 C2 C7 S3' -3.5(6)
N3 C2 C7 S3 -0.9(6)
N1 C2 C7 S3 177.2(4)
C8' C7 C8 C9 3(3)
C2 C7 C8 C9 177.4(18)
S3' C7 C8 C9 -154(8)
S3 C7 C8 C9 2(3)
C7 C8 C9 C10 -2(3)
C8 C9 C10 S3 1(3)
C8 C7 S3 C10 -0.9(13)
C8' C7 S3 C10 -10(20)
C2 C7 S3 C10 -177.0(8)
S3' C7 S3 C10 3.7(9)
C9 C10 S3 C7 -0.1(17)
C8 C7 C8' C9' -1(4)
C2 C7 C8' C9' -176(2)
S3' C7 C8' C9' 3(4)
S3 C7 C8' C9' 170(23)
C7 C8' C9' C10' -3(5)
C8' C9' C10' S3' 2(5)
C8 C7 S3' C10' 23(6)
C8' C7 S3' C10' -2(3)
C2 C7 S3' C10' 177.5(17)
S3 C7 S3' C10' -3.2(18)
C9' C10' S3' C7 0(3)
