#------------------------------------------------------------------------------
#$Date: 2016-12-05 23:42:09 +0200 (Mon, 05 Dec 2016) $
#$Revision: 188908 $
#$URL: file:///home/coder/svn-repositories/cod/cif/4/51/39/4513977.cif $
#------------------------------------------------------------------------------
#
# This file is available in the Crystallography Open Database (COD),
# http://www.crystallography.net/
#
# All data on this site have been placed in the public domain by the
# contributors.
#
data_4513977
loop_
_publ_author_name
'Zhou, Pengfei'
'Cai, Yunfei'
'Zhong, Xia'
'Luo, Weiwei'
'Kang, Tengfei'
'Li, Jun'
'Liu, Xiaohua'
'Lin, Lili'
'Feng, Xiaoming'
_publ_section_title
;
 Catalytic Asymmetric Intra- and Intermolecular Haloetherification of
 Enones: An Efficient Approach to (&#x2212;)-Centrolobine
;
_journal_issue                   11
_journal_name_full               'ACS Catalysis'
_journal_page_first              7778
_journal_paper_doi               10.1021/acscatal.6b02048
_journal_volume                  6
_journal_year                    2016
_chemical_absolute_configuration ad
_chemical_formula_moiety         'C16 H15 Br O2'
_chemical_formula_sum            'C16 H15 Br O2'
_chemical_formula_weight         319.19
_space_group_crystal_system      monoclinic
_space_group_IT_number           4
_space_group_name_Hall           'P 2yb'
_space_group_name_H-M_alt        'P 1 21 1'
_symmetry_space_group_name_Hall  'P 2yb'
_symmetry_space_group_name_H-M   'P 1 21 1'
_atom_sites_solution_hydrogens   geom
_audit_creation_date             2015-12-24
_audit_creation_method
;
Olex2 1.2
(compiled 2015.09.30 svn.r3233 for OlexSys, GUI svn.r5103)
;
_cell_angle_alpha                90
_cell_angle_beta                 100.560(4)
_cell_angle_gamma                90
_cell_formula_units_Z            2
_cell_length_a                   8.8973(3)
_cell_length_b                   6.9477(3)
_cell_length_c                   12.2822(5)
_cell_measurement_reflns_used    4454
_cell_measurement_temperature    293.28(10)
_cell_measurement_theta_max      72.7010
_cell_measurement_theta_min      5.1000
_cell_volume                     746.37(5)
_computing_cell_refinement
;
CrysAlisPro, Agilent Technologies,
Version 1.171.37.35 (release 13-08-2014 CrysAlis171 .NET)
(compiled Aug 13 2014,18:06:01)
;
_computing_data_collection
;
CrysAlisPro, Agilent Technologies,
Version 1.171.37.35 (release 13-08-2014 CrysAlis171 .NET)
(compiled Aug 13 2014,18:06:01)
;
_computing_data_reduction
;
CrysAlisPro, Agilent Technologies,
Version 1.171.37.35 (release 13-08-2014 CrysAlis171 .NET)
(compiled Aug 13 2014,18:06:01)
;
_computing_molecular_graphics    'Olex2 (Dolomanov et al., 2009)'
_computing_publication_material  'Olex2 (Dolomanov et al., 2009)'
_computing_structure_refinement  'ShelXL (Sheldrick, 2015)'
_computing_structure_solution    'ShelXS (Sheldrick, 2008)'
_diffrn_ambient_environment      air
_diffrn_ambient_temperature      293.28(10)
_diffrn_detector                 'CCD plate'
_diffrn_detector_area_resol_mean 15.9595
_diffrn_detector_type            EosS2
_diffrn_measured_fraction_theta_full 0.999
_diffrn_measured_fraction_theta_max 0.999
_diffrn_measurement_details
;
  1 omega   23.00   90.00   1.0000    1.0000
omega____ theta____ kappa____ phi______ frames
    -       36.2921 -125.0000  120.0000 67

  2 omega  -35.00   66.00   1.0000    1.0000
omega____ theta____ kappa____ phi______ frames
    -       36.2921  -19.0000   30.0000 101

  3 omega   20.00  104.00   1.0000    1.0000
omega____ theta____ kappa____ phi______ frames
    -       36.2921   57.0000 -180.0000 84

  4 omega   20.00  104.00   1.0000    1.0000
omega____ theta____ kappa____ phi______ frames
    -       36.2921   57.0000  -90.0000 84

  5 omega    1.00   75.00   1.0000    1.0000
omega____ theta____ kappa____ phi______ frames
    -       36.2921  -99.0000  150.0000 74

  6 omega   23.00   90.00   1.0000    1.0000
omega____ theta____ kappa____ phi______ frames
    -       36.2921 -125.0000  -90.0000 67

  7 omega   10.00  104.00   1.0000    1.0000
omega____ theta____ kappa____ phi______ frames
    -       36.2921   77.0000   90.0000 94

  8 omega  -31.00   63.00   1.0000    1.0000
omega____ theta____ kappa____ phi______ frames
    -       36.2921  -77.0000  -30.0000 94

  9 omega   40.00  135.00   1.0000    1.5000
omega____ theta____ kappa____ phi______ frames
    -      108.0000  -77.0000    0.0000 95

 10 omega   38.00   91.00   1.0000    1.5000
omega____ theta____ kappa____ phi______ frames
    -      108.0000  -30.0000  -30.0000 53

 11 omega   38.00   91.00   1.0000    1.5000
omega____ theta____ kappa____ phi______ frames
    -      108.0000  -30.0000  -90.0000 53

 12 omega   91.00  176.00   1.0000    1.5000
omega____ theta____ kappa____ phi______ frames
    -      108.0000   45.0000   90.0000 85

 13 omega   40.00  135.00   1.0000    1.5000
omega____ theta____ kappa____ phi______ frames
    -      108.0000  -77.0000  150.0000 95

 14 omega   38.00  116.00   1.0000    1.5000
omega____ theta____ kappa____ phi______ frames
    -      108.0000 -111.0000  -30.0000 78

 15 omega   38.00   91.00   1.0000    1.5000
omega____ theta____ kappa____ phi______ frames
    -      108.0000  -30.0000 -180.0000 53

 16 omega   38.00  116.00   1.0000    1.5000
omega____ theta____ kappa____ phi______ frames
    -      108.0000 -111.0000  -90.0000 78

 17 omega  100.00  178.00   1.0000    1.5000
omega____ theta____ kappa____ phi______ frames
    -      108.0000  111.0000  -30.0000 78

 18 omega   40.00   98.00   1.0000    1.5000
omega____ theta____ kappa____ phi______ frames
    -      108.0000  -45.0000 -120.0000 58

 19 omega   39.00  109.00   1.0000    1.5000
omega____ theta____ kappa____ phi______ frames
    -      108.0000  -94.0000   90.0000 70

 20 omega   40.00   98.00   1.0000    1.5000
omega____ theta____ kappa____ phi______ frames
    -      108.0000  -45.0000   90.0000 58

 21 omega   90.00  175.00   1.0000    1.5000
omega____ theta____ kappa____ phi______ frames
    -      108.0000   61.0000   30.0000 85

 22 omega  100.00  178.00   1.0000    1.5000
omega____ theta____ kappa____ phi______ frames
    -      108.0000  111.0000  150.0000 78

 23 omega   91.00  176.00   1.0000    1.5000
omega____ theta____ kappa____ phi______ frames
    -      108.0000   45.0000  150.0000 85

 24 omega  -33.00   55.00   1.0000    1.0000
omega____ theta____ kappa____ phi______ frames
    -       36.2921  -38.0000 -150.0000 88

 25 omega   17.00  105.00   1.0000    1.0000
omega____ theta____ kappa____ phi______ frames
    -       36.2921   38.0000   30.0000 88

 26 omega   10.00  104.00   1.0000    1.0000
omega____ theta____ kappa____ phi______ frames
    -       36.2921   77.0000 -180.0000 94

 27 omega   10.00  104.00   1.0000    1.0000
omega____ theta____ kappa____ phi______ frames
    -       36.2921   77.0000   30.0000 94

 28 omega  -31.00   53.00   1.0000    1.0000
omega____ theta____ kappa____ phi______ frames
    -       36.2921  -57.0000  150.0000 84

 29 omega   10.00  104.00   1.0000    1.0000
omega____ theta____ kappa____ phi______ frames
    -       36.2921   77.0000  -30.0000 94

 30 omega   70.00  178.00   1.0000    1.5000
omega____ theta____ kappa____ phi______ frames
    -      108.0000   15.0000  -60.0000 108
;
_diffrn_measurement_device       'four-circle diffractometer'
_diffrn_measurement_device_type  'New Gemini, Dual, Cu at zero, EosS2'
_diffrn_measurement_method       '\w scans'
_diffrn_orient_matrix_UB_11      0.0792101000
_diffrn_orient_matrix_UB_12      0.1906578000
_diffrn_orient_matrix_UB_13      -0.0197190000
_diffrn_orient_matrix_UB_21      0.1573117000
_diffrn_orient_matrix_UB_22      -0.0954742000
_diffrn_orient_matrix_UB_23      0.0372468000
_diffrn_orient_matrix_UB_31      0.0014928000
_diffrn_orient_matrix_UB_32      -0.0609128000
_diffrn_orient_matrix_UB_33      -0.1204167000
_diffrn_radiation_monochromator  graphite
_diffrn_radiation_probe          x-ray
_diffrn_radiation_type           CuK\a
_diffrn_radiation_wavelength     1.54184
_diffrn_reflns_av_R_equivalents  0.0368
_diffrn_reflns_av_unetI/netI     0.0293
_diffrn_reflns_Laue_measured_fraction_full 0.999
_diffrn_reflns_Laue_measured_fraction_max 0.999
_diffrn_reflns_limit_h_max       10
_diffrn_reflns_limit_h_min       -10
_diffrn_reflns_limit_k_max       8
_diffrn_reflns_limit_k_min       -8
_diffrn_reflns_limit_l_max       10
_diffrn_reflns_limit_l_min       -14
_diffrn_reflns_number            7922
_diffrn_reflns_point_group_measured_fraction_full 0.999
_diffrn_reflns_point_group_measured_fraction_max 0.999
_diffrn_reflns_theta_full        67.075
_diffrn_reflns_theta_max         67.075
_diffrn_reflns_theta_min         5.676
_diffrn_source                   'Enhance (Cu) X-ray Source'
_exptl_absorpt_coefficient_mu    3.713
_exptl_absorpt_correction_T_max  1.00000
_exptl_absorpt_correction_T_min  0.57390
_exptl_absorpt_correction_type   multi-scan
_exptl_absorpt_process_details
;
CrysAlisPro, Agilent Technologies,
Version 1.171.37.35 (release 13-08-2014 CrysAlis171 .NET)
(compiled Aug 13 2014,18:06:01)
Empirical absorption correction using spherical harmonics,
 implemented in SCALE3 ABSPACK scaling algorithm.
;
_exptl_crystal_colour            'clear light colourless'
_exptl_crystal_colour_lustre     clear
_exptl_crystal_colour_modifier   light
_exptl_crystal_colour_primary    colourless
_exptl_crystal_density_diffrn    1.420
_exptl_crystal_description
;
;
_exptl_crystal_F_000             324
_exptl_crystal_size_max          0.8
_exptl_crystal_size_mid          0.7
_exptl_crystal_size_min          0.6
_refine_diff_density_max         0.497
_refine_diff_density_min         -1.515
_refine_diff_density_rms         0.196
_refine_ls_abs_structure_details
;
 Flack x determined using 1134 quotients [(I+)-(I-)]/[(I+)+(I-)]
 (Parsons, Flack and Wagner, Acta Cryst. B69 (2013) 249-259).
;
_refine_ls_abs_structure_Flack   -0.001(14)
_refine_ls_extinction_method     none
_refine_ls_goodness_of_fit_ref   1.083
_refine_ls_hydrogen_treatment    constr
_refine_ls_matrix_type           full
_refine_ls_number_parameters     173
_refine_ls_number_reflns         2670
_refine_ls_number_restraints     1
_refine_ls_restrained_S_all      1.083
_refine_ls_R_factor_all          0.0700
_refine_ls_R_factor_gt           0.0692
_refine_ls_shift/su_max          0.000
_refine_ls_shift/su_mean         0.000
_refine_ls_structure_factor_coef Fsqd
_refine_ls_weighting_details
'w=1/[\s^2^(Fo^2^)+(0.1346P)^2^+0.3376P] where P=(Fo^2^+2Fc^2^)/3'
_refine_ls_weighting_scheme      calc
_refine_ls_wR_factor_gt          0.1778
_refine_ls_wR_factor_ref         0.1792
_reflns_Friedel_coverage         0.835
_reflns_Friedel_fraction_full    0.999
_reflns_Friedel_fraction_max     0.999
_reflns_number_gt                2599
_reflns_number_total             2670
_reflns_threshold_expression     'I > 2\s(I)'
_cod_data_source_file            cs6b02048_si_003.cif
_cod_data_source_block           fxm-zpf-stan
_cod_depositor_comments
'Adding full bibliography for 4513975--4513977.cif.'
_cod_database_code               4513977
_shelx_space_group_comment
;
The symmetry employed for this shelxl refinement is uniquely defined
by the following loop, which should always be used as a source of
symmetry information in preference to the above space-group names.
They are only intended as comments.
;
_reflns_odcompleteness_completeness 99.86
_reflns_odcompleteness_iscentric 1
_reflns_odcompleteness_theta     66.97
_olex2_refinement_description
;
1. Fixed Uiso
 At 1.2 times of:
  All C(H) groups
 At 1.5 times of:
  All C(H,H,H) groups
2.a Ternary CH refined with riding coordinates:
 C9(H9), C13(H13)
2.b Aromatic/amide H refined with riding coordinates:
 C0AA(H0AA), C16(H16), C19(H19), C25(H25), C28(H28), C2(H2), C5(H5), C6(H6),
 C7(H7), C8(H8)
2.c Idealised Me refined as rotating group:
 C3(H3A,H3B,H3C)
;
_shelx_res_file
;
    fxm-zpf-stan.res created by SHELXL-2014/7

TITL fxm-zpf-stan in P21 #4
REM reset to P21 #4
CELL 1.54184 8.897282 6.94766 12.282195 90 100.56 90
ZERR 2 0.000331 0.000266 0.000546 0 0.0038 0
LATT -1
SYMM -X,0.5+Y,-Z
SFAC C H Br O
UNIT 32 30 2 4

L.S. 4
PLAN  20
BOND
MORE -1
BOND $H
CONF
fmap 2
acta
SHEL 999 0.837
REM <olex2.extras>
REM <HklSrc "%.\\fxm-zpf-stan.hkl">
REM </olex2.extras>

WGHT    0.134600    0.337600
FVAR      16.49559
BR1   3    0.476623    0.374090    0.196171    11.00000    0.05444    0.07154 =
         0.09233    0.02354    0.02852    0.01960
O1    4    0.718980   -0.126460    0.233704    11.00000    0.10714    0.04087 =
         0.08055    0.01337    0.06279    0.01917
C0AA  1    0.243630   -0.144356    0.365082    11.00000    0.06229    0.07432 =
         0.06980    0.00414    0.01363   -0.02307
AFIX  43
H0AA  2    0.217134   -0.233835    0.308504    11.00000   -1.20000
AFIX   0
C1AA  1    0.357695   -0.003221    0.357545    11.00000    0.04776    0.04882 =
         0.04226    0.00689    0.01030   -0.00450
C9    1    0.666527    0.044673    0.176553    11.00000    0.07159    0.04362 =
         0.03983    0.00020    0.02648   -0.00035
AFIX  13
H9    2    0.604399    0.011432    0.104623    11.00000   -1.20000
AFIX   0
C12   1    0.428721   -0.003999    0.258066    11.00000    0.05108    0.07363 =
         0.04359   -0.00972    0.01435   -0.01408
C13   1    0.563835    0.127463    0.250905    11.00000    0.04161    0.05100 =
         0.04337    0.00207    0.01545   -0.00169
AFIX  13
H13   2    0.624001    0.145533    0.325422    11.00000   -1.20000
AFIX   0
C16   1    0.395334    0.126741    0.443353    11.00000    0.05966    0.06384 =
         0.05892   -0.00667    0.02607   -0.00739
AFIX  43
H16   2    0.470631    0.219014    0.441784    11.00000   -1.20000
AFIX   0
C17   1    0.795636    0.171372    0.158854    11.00000    0.04994    0.03734 =
         0.04301    0.00084    0.02155    0.01186
C19   1    0.174415   -0.148799    0.453197    11.00000    0.06694    0.10229 =
         0.09525    0.03127    0.02765   -0.01586
AFIX  43
H19   2    0.101292   -0.242402    0.458261    11.00000   -1.20000
AFIX   0
C25   1    0.212098   -0.013231    0.537048    11.00000    0.07638    0.11774 =
         0.06733    0.03242    0.03469    0.00702
AFIX  43
H25   2    0.161849   -0.014392    0.597104    11.00000   -1.20000
AFIX   0
C28   1    0.318478    0.116948    0.532119    11.00000    0.07835    0.09014 =
         0.05596    0.00044    0.03232    0.00605
AFIX  43
H28   2    0.342852    0.204877    0.589745    11.00000   -1.20000
AFIX   0
O0AA  4    0.381449   -0.109576    0.180535    11.00000    0.11670    0.13920 =
         0.06458   -0.05300    0.03021   -0.07367
C2    1    0.912003    0.372095    0.038416    11.00000    0.07227    0.05831 =
         0.06776    0.02135    0.04275    0.01021
AFIX  43
H2    2    0.908781    0.430423   -0.030125    11.00000   -1.20000
AFIX   0
C5    1    1.038357    0.396849    0.122168    11.00000    0.04858    0.06679 =
         0.09952    0.01213    0.03559    0.00490
AFIX  43
H5    2    1.119909    0.472397    0.109880    11.00000   -1.20000
AFIX   0
C6    1    0.792133    0.261235    0.057372    11.00000    0.05793    0.04481 =
         0.04658    0.00719    0.02063    0.01173
AFIX  43
H6    2    0.707102    0.245882    0.001459    11.00000   -1.20000
AFIX   0
C7    1    0.923518    0.196042    0.241256    11.00000    0.06025    0.05774 =
         0.05052    0.01673    0.01579    0.02309
AFIX  43
H7    2    0.928245    0.135006    0.309189    11.00000   -1.20000
AFIX   0
C8    1    1.043043    0.309422    0.223665    11.00000    0.03877    0.07344 =
         0.08519    0.00921    0.01044    0.01293
AFIX  43
H8    2    1.127122    0.327357    0.280053    11.00000   -1.20000
AFIX   0
C3    1    0.781875   -0.258219    0.162967    11.00000    0.15012    0.04283 =
         0.13053    0.00529    0.10399    0.01304
AFIX 137
H3A   2    0.716430   -0.262761    0.091584    11.00000   -1.50000
H3B   2    0.789266   -0.384340    0.195441    11.00000   -1.50000
H3C   2    0.881751   -0.215172    0.154837    11.00000   -1.50000
AFIX   0
HKLF 4

REM  fxm-zpf-stan in P21 #4
REM R1 =  0.0692 for    2599 Fo > 4sig(Fo)  and  0.0700 for all    2670 data
REM    173 parameters refined using      1 restraints

END

WGHT      0.1346      0.3376

REM Highest difference peak  0.497,  deepest hole -1.515,  1-sigma level  0.196
Q1    1   0.4485  0.2867  0.1376  11.00000  0.05    0.50
Q2    1   0.4817 -0.1307  0.0628  11.00000  0.05    0.47
Q3    1   0.2802 -0.1478  0.6734  11.00000  0.05    0.46
Q4    1   0.6548  0.5042 -0.0048  11.00000  0.05    0.44
Q5    1   0.7834  0.1723  0.3704  11.00000  0.05    0.43
Q6    1   0.5753 -0.0779  0.0028  11.00000  0.05    0.42
Q7    1   0.5901 -0.3841 -0.0293  11.00000  0.05    0.41
Q8    1   0.4891  0.4373  0.4767  11.00000  0.05    0.41
Q9    1   0.8314  0.2815  0.3442  11.00000  0.05    0.40
Q10   1   0.4571  0.0231  0.0626  11.00000  0.05    0.39
Q11   1   0.5796 -0.2155  0.0014  11.00000  0.05    0.39
Q12   1   0.5167 -0.1206  0.4293  11.00000  0.05    0.38
Q13   1   0.6334  0.2172  0.3333  11.00000  0.05    0.38
Q14   1   0.4030 -0.0317  0.5321  11.00000  0.05    0.38
Q15   1   0.6084  0.2649 -0.0405  11.00000  0.05    0.36
Q16   1   0.5789 -0.4675  0.0566  11.00000  0.05    0.36
Q17   1   0.6891 -0.4327  0.2720  11.00000  0.05    0.35
Q18   1   0.4612 -0.0261 -0.0112  11.00000  0.05    0.35
Q19   1   1.1602  0.6950  0.1075  11.00000  0.05    0.35
Q20   1   0.4446 -0.3124  0.1207  11.00000  0.05    0.34
;
_shelx_res_checksum              66019
_shelx_hkl_file
;
   0  -8   0 24985.2 1527.32  20
   0  -8  -1 1495.17 422.915  20
   0  -8  -2 3228.57 567.924  20
   0  -8   2 3252.27 611.464  30
   0  -8  -2 2877.91 520.879  13
   0  -8   3 1160.37 400.851  30
   0  -8  -3 1108.37 341.932  13
   0  -8  -3 499.608 296.817  20
   0  -8  -4 3391.35 533.325  20
   0  -8  -4 2842.66 490.694  13
   0  -8  -5 2838.35 450.225  20
   0  -8  -5 2904.23 472.969  13
   0  -7   0 130.901 270.620  20
   0  -7   0-358.363 417.784  30
   0  -7   1 125.616 382.533  30
   0  -7  -1 672.713 312.057  20
   0  -7   1 441.205 311.499  20
   0  -7  -1 953.651 414.329  30
   0  -7  -2 6542.56 921.596  30
   0  -7  -2 5834.25 853.831  20
   0  -7   2 5841.52 905.337  30
   0  -7   3 876.215 370.399  30
   0  -7  -3 561.962 341.457  20
   0  -7  -4 7219.07 947.910  20
   0  -7   4 5914.14 880.741  30
   0  -7   5 6864.16 986.565  30
   0  -7  -5 6283.65 854.681  20
   0  -7  -5 6142.25 834.714  13
   0  -7  -6 6873.35 848.700  20
   0  -7  -6 6012.50 815.148  13
   0  -7   6 7299.61 920.053  30
   0  -7   7 5430.37 704.567  30
   0  -7  -7 5090.12 663.397  20
   0  -7  -7 6210.05 769.802  13
   0  -7  -8 3128.65 508.646  13
   0  -7  -8 2496.55 393.637  20
   0  -6   0 89377.3 4108.59  20
   0  -6   0 93631.9 4140.39  30
   0  -6  -1 26512.6 1997.11  30
   0  -6   1 26432.6 1994.64  30
   0  -6  -1 24351.5 1956.54  20
   0  -6   1 26329.1 2040.19  20
   0  -6  -2 58781.1 3151.34  30
   0  -6  -2 60231.8 3158.00  20
   0  -6   2 62513.9 3232.39  30
   0  -6  -3 31406.6 2154.21  20
   0  -6   3 33039.6 2276.70  30
   0  -6  -4 3201.23 725.566  20
   0  -6   4 3285.14 779.679  30
   0  -6   5 59627.9 3274.86  30
   0  -6  -5 55312.0 2940.78  20
   0  -6  -6 7396.20 1077.00  19
   0  -6  -6 7295.16 1058.39  13
   0  -6   6 6333.17 1046.76  30
   0  -6  -6 6743.47 958.915  20
   0  -6  -7 18263.9 1509.25  20
   0  -6  -7 19303.3 1663.63  19
   0  -6  -7 17333.9 1547.67  13
   0  -6   7 17565.2 1607.26  30
   0  -6  -8 8192.90 1011.71  13
   0  -6  -8 5967.17 813.657  20
   0  -6  -8 8368.02 1055.69  19
   0  -6  -9-16.1147 244.916  13
   0  -6 -10 7099.28 746.765  13
   0  -5   0 369.274 399.605  28
   0  -5   0-347.874 383.736   5
   0  -5   0-333.780 545.278  29
   0  -5  -1 94515.9 4873.88  28
   0  -5   1 97569.9 5043.93  28
   0  -5  -1 88616.9 4584.08   5
   0  -5   1 93134.8 4735.06  29
   0  -5  -2 44450.9 3224.38  28
   0  -5   2 54185.7 3430.94  29
   0  -5  -2 42076.8 3034.48   5
   0  -5   2 47306.1 3441.31  28
   0  -5  -3 20934.8 2212.56  28
   0  -5   3 20589.4 2291.87  28
   0  -5   3 20973.8 1755.59  30
   0  -5  -3 19528.0 1599.14  20
   0  -5   3 23005.7 2246.03  29
   0  -5  -3 18252.4 1996.69   5
   0  -5   3 18345.7 1882.26  25
   0  -5   4 34385.8 2764.00  25
   0  -5   4 39817.4 2566.00  30
   0  -5   4 38244.6 3103.45  29
   0  -5  -4 36438.2 2315.81   9
   0  -5  -4 37844.0 2295.94  20
   0  -5  -5 8434.97 1196.17  19
   0  -5  -5 7004.48 978.108  20
   0  -5   5 7551.43 1134.63  30
   0  -5  -6 23843.6 1844.73  20
   0  -5   6 26352.8 2192.75  30
   0  -5  -6 27921.8 2177.48  19
   0  -5  -7 9027.66 1224.30  19
   0  -5  -7 8680.29 1175.07  13
   0  -5  -7 8228.25 1061.94  20
   0  -5  -8 7500.68 1009.30  20
   0  -5  -8 7955.63 1133.78  19
   0  -5  -8 8593.26 1147.07  13
   0  -5  -9 2812.33 630.507  17
   0  -5  -9 4497.10 847.652  19
   0  -5  -9 4428.36 834.377  13
   0  -5 -10 186.878 257.459  17
   0  -5 -10-90.3928 312.000  13
   0  -5 -11 3443.77 579.968  13
   0  -4   0 454762. 13316.7  28
   0  -4   0 454725. 13110.0  29
   0  -4   0 469262. 13115.4   5
   0  -4   0 461629. 12459.4  25
   0  -4   1 12071.0 1342.22  29
   0  -4   1 12443.3 1343.62   5
   0  -4   1 9192.75 1067.56  25
   0  -4  -1 10216.3 1208.47   5
   0  -4  -1 9153.48 1216.20  28
   0  -4   1 9399.45 1273.73  28
   0  -4  -2 158285. 6018.15   5
   0  -4   2 162487. 6132.53  29
   0  -4   2 166680. 5896.37  25
   0  -4  -2 160568. 6170.21  28
   0  -4   2 166642. 6461.31  28
   0  -4  -3 221903. 7768.21   5
   0  -4   3 226273. 7678.10  25
   0  -4  -3 228724. 8003.50  28
   0  -4   3 239338. 8173.15  29
   0  -4  -4 53601.2 3304.12  28
   0  -4   4 60851.6 3649.76  29
   0  -4  -4 50197.4 3165.50   5
   0  -4   4 51069.8 3111.64  25
   0  -4   5 157998. 6926.66  29
   0  -4   5 142560. 6162.85  25
   0  -4  -5 158440. 6565.79  28
   0  -4  -5 151165. 6354.65   5
   0  -4   6 8201.91 1359.13  25
   0  -4  -6 7328.02 1053.40  19
   0  -4   6 6848.99 1374.45  29
   0  -4  -6 7432.13 1296.92  28
   0  -4  -6 8516.87 1404.35   5
   0  -4  -7 27932.7 2127.48  19
   0  -4  -7 27275.4 2040.39  13
   0  -4  -7 25999.7 2068.56  17
   0  -4  -8 29442.9 2279.50  17
   0  -4  -8 32368.2 2290.70  19
   0  -4  -8 33340.8 2338.23  13
   0  -4  -9 13042.4 1387.39  19
   0  -4  -9 12330.2 1404.89  13
   0  -4  -9 9800.20 1283.08  17
   0  -4 -10 15197.7 1531.19  17
   0  -4 -10 15375.9 1524.45  13
   0  -4 -10 14973.3 1495.61  19
   0  -4 -11 3416.73 679.562  13
   0  -4 -11 3853.26 742.009  17
   0  -4 -11 3787.98 747.700  19
   0  -4 -12 3108.75 523.260  13
   0  -3   0 91.9130 265.277  28
   0  -3   0 417.140 259.450   2
   0  -3   0 181.208 239.410  29
   0  -3   0 459.556 244.759  25
   0  -3   1 257837. 7069.31  25
   0  -3  -1 263990. 7490.11  29
   0  -3   1 251059. 7399.93  29
   0  -3   1 238326. 7232.67   2
   0  -3  -1 252048. 6684.75  25
   0  -3  -1 250184. 6714.63   1
   0  -3  -1 240346. 7402.96  28
   0  -3  -1 237653. 7085.34   2
   0  -3  -1 224183. 6451.25   6
   0  -3  -1 237139. 7282.79   5
   0  -3  -2 295000. 8690.78  28
   0  -3  -2 297233. 8608.36   5
   0  -3   2 304126. 8647.98   2
   0  -3   2 291621. 7896.51  27
   0  -3  -2 280621. 7968.45   6
   0  -3   2 308960. 8892.00  29
   0  -3  -2 307121. 8281.92   1
   0  -3   2 295282. 8465.60  25
   0  -3   3 42188.5 2286.24  25
   0  -3  -3 41558.6 2348.12  28
   0  -3  -3 38355.1 2004.67   6
   0  -3  -3 38133.7 2232.87   5
   0  -3   3 47017.5 2646.43  29
   0  -3  -3 40269.7 2169.47   1
   0  -3   4 137645. 5103.28  25
   0  -3   4 144513. 5592.46  29
   0  -3  -4 120330. 4653.57   6
   0  -3  -4 140169. 5200.03  28
   0  -3  -4 131562. 5061.68   5
   0  -3  -4 138759. 5014.82   1
   0  -3   5 56042.7 3076.55  25
   0  -3  -5 50688.7 2945.26   5
   0  -3  -5 43654.0 2624.36   6
   0  -3   5 58653.5 3424.59  29
   0  -3  -5 54519.6 3063.02  28
   0  -3  -5 49903.7 2894.55   1
   0  -3   6 110786. 5399.46  29
   0  -3  -6 98830.0 4638.04   6
   0  -3  -6 120395. 5154.27   5
   0  -3   6 114651. 5139.88  25
   0  -3  -6 114966. 5093.64  28
   0  -3  -7 47435.6 3207.52  28
   0  -3   7 50776.9 3420.60  25
   0  -3  -7 36723.1 2759.06   6
   0  -3   7 43079.0 3316.58  29
   0  -3  -7 46565.5 3182.84   5
   0  -3  -8 2753.89 637.395  13
   0  -3  -8 1131.56 382.602  17
   0  -3  -8 1747.34 536.138  16
   0  -3  -8 2702.16 633.547  19
   0  -3  -9 47406.0 2762.63  19
   0  -3  -9 40369.9 2578.62  16
   0  -3  -9 42552.5 2708.24  17
   0  -3  -9 46687.0 2816.01  13
   0  -3 -10 7872.69 1111.72  16
   0  -3 -10 7662.01 1103.47  19
   0  -3 -10 7532.09 1060.20  13
   0  -3 -10 7032.24 1103.30  17
   0  -3 -11 19571.6 1662.79  13
   0  -3 -11 21239.4 1712.31  19
   0  -3 -11 16244.2 1559.23  16
   0  -3 -11 17306.4 1639.55  17
   0  -3 -12 11548.8 1136.94  13
   0  -3 -12 10963.4 1164.12  16
   0  -3 -12 12086.5 1215.91  19
   0  -3 -13 383.290 242.478  16
   0  -2   0 803126. 18847.4  27
   0  -2   0 791710. 18994.6   1
   0  -2   0 859684. 19856.2  29
   0  -2   0 891203. 19468.3  25
   0  -2  -1 388645. 10080.2   2
   0  -2  -1 399956. 9842.39   1
   0  -2   1 384929. 10021.6  25
   0  -2  -1 399707. 9848.86   6
   0  -2  -1 378532. 10208.0  29
   0  -2   1 392960. 10370.4  29
   0  -2  -1 421332. 9732.56  25
   0  -2  -1 395443. 10255.8   5
   0  -2   2 372793. 10271.5  29
   0  -2  -2 404515. 9823.52   2
   0  -2   2 366976. 9946.43  25
   0  -2  -2 444401. 10308.2  28
   0  -2  -2 400113. 9880.15   6
   0  -2  -2 415145. 9973.90   1
   0  -2   2 351754. 9977.13   2
   0  -2  -2 407817. 10150.7   5
   0  -2  -2 362265. 9261.08  25
   0  -2   3 271972. 7725.83  29
   0  -2  -3 271787. 7351.18   6
   0  -2  -3 282418. 7585.96  28
   0  -2  -3 244547. 6836.29  24
   0  -2   3 251647. 7321.32   2
   0  -2  -3 268187. 7451.19   5
   0  -2  -3 272488. 7437.99   1
   0  -2   4 9569.45 898.594   4
   0  -2  -4 8846.42 948.607   5
   0  -2  -4 8482.93 894.190   1
   0  -2  -4 8710.93 920.221  28
   0  -2   4 11511.0 1135.29  29
   0  -2  -4 8626.01 898.607   6
   0  -2  -5 372284. 10783.8  28
   0  -2  -5 424075. 11055.6   1
   0  -2  -5 402933. 10934.0   6
   0  -2   5 388986. 11039.5  25
   0  -2   5 375280. 11119.7  29
   0  -2   5 361926. 10442.1   4
   0  -2  -5 404825. 11021.0   5
   0  -2  -6 47167.1 2736.14   6
   0  -2  -6 51712.0 2837.45   1
   0  -2   6 53377.4 3032.29  25
   0  -2  -6 51383.0 2878.51   5
   0  -2  -6 53071.5 2867.75  28
   0  -2   6 49820.7 2956.09  29
   0  -2   7 186506. 7102.21  29
   0  -2  -7 185984. 6768.87   5
   0  -2  -7 168035. 6532.72   6
   0  -2  -7 173703. 6588.93  28
   0  -2   7 182796. 6987.80  25
   0  -2   8 62638.4 3937.62  25
   0  -2  -8 64620.8 3802.63   5
   0  -2   8 66314.9 4104.16  29
   0  -2  -8 60559.9 3639.58   6
   0  -2  -9 2597.45 620.807  19
   0  -2  -9 2408.18 608.328  16
   0  -2  -9 2629.32 628.170  17
   0  -2  -9 1512.40 408.560  14
   0  -2  -9 1571.97 479.097  13
   0  -2 -10 44935.5 2770.01  16
   0  -2 -10 43960.8 2733.74  17
   0  -2 -10 46953.5 2740.71  19
   0  -2 -10 45424.2 2749.04  13
   0  -2 -10 45515.1 2774.48  14
   0  -2 -11 9015.74 1188.18  17
   0  -2 -11 8872.63 1155.34  13
   0  -2 -11 7864.09 1147.46  16
   0  -2 -11 9124.09 1121.11  19
   0  -2 -11 8267.53 1125.01  14
   0  -2 -12 14699.7 1465.69  16
   0  -2 -12 15875.8 1471.95  14
   0  -2 -13 9471.29 1016.78  14
   0  -2 -13 11616.8 1188.78  16
   0  -2 -14 1072.24 347.838  16
   0  -1   0 1139.04 99.1102  27
   0  -1   0 1099.35 114.562   1
   0  -1  -1 480289. 10691.7   1
   0  -1  -1 469424. 10690.8   2
   0  -1  -1 501164. 10756.8   6
   0  -1   2 434390. 11368.6   4
   0  -1   2 416705. 11371.5   2
   0  -1  -2 453241. 11217.5  24
   0  -1  -2 523262. 11658.7  28
   0  -1  -2 503969. 11237.7   2
   0  -1  -2 547025. 11658.6   6
   0  -1  -3 151923. 4031.67  24
   0  -1  -3 165384. 4358.74   8
   0  -1  -3 160417. 4497.92  28
   0  -1   3 154885. 4319.27   4
   0  -1  -4 149125. 4474.89  28
   0  -1   4 142210. 4507.09  29
   0  -1   4 140418. 4235.01   4
   0  -1  -4 140773. 4453.23   6
   0  -1  -4 134493. 4449.86   1
   0  -1  -4 133102. 3895.88  24
   0  -1  -4 144713. 4575.04   5
   0  -1   5 38103.9 2025.94  29
   0  -1  -5 34357.3 1894.54   6
   0  -1  -5 38512.2 2043.41   5
   0  -1   5 33991.2 1734.95   4
   0  -1  -5 33688.0 1900.64   1
   0  -1  -5 40040.7 1978.08  28
   0  -1  -5 32184.0 1477.66  24
   0  -1  -5 44582.5 2017.86   8
   0  -1  -6 154181. 5360.00   1
   0  -1  -6 158007. 5461.40   5
   0  -1  -6 164384. 5304.16   8
   0  -1   6 152693. 5435.79  29
   0  -1   7 97076.4 4341.95  25
   0  -1  -7 103294. 4367.93   5
   0  -1   7 103079. 4463.02  29
   0  -1   8 21453.6 2092.24  29
   0  -1   8 20154.8 1941.27  25
   0  -1  -8 17759.8 1745.05   6
   0  -1   9 60409.6 3992.41  29
   0  -1  -9 57969.5 3011.79  17
   0  -1  -9 51820.8 2892.19  16
   0  -1  -9 52462.7 3414.88   6
   0  -1 -10 4841.97 838.789  16
   0  -1 -10 4531.46 812.359  14
   0  -1 -10 4230.04 812.352  17
   0  -1 -11 50964.4 2937.27  16
   0  -1 -11 49532.0 2904.41  14
   0  -1 -12 1239.96 459.284  14
   0  -1 -12 1056.17 469.943  16
   0  -1 -13 2431.39 542.513  14
   0  -1 -13 3652.73 746.565  16
   0  -1 -14 3691.80 593.924  14
   0  -1 -14 4414.40 683.162  16
   0   0  -2 643468. 15193.9  24
   0   0  -2 663579. 15380.1   8
   0   0  -3 989876. 22566.5   8
   0   0  -3 973777. 22270.5  24
   0   0  -4 249955. 6761.73   8
   0   0  -4 228101. 6596.81   6
   0   0  -4 235230. 6358.89  24
   0   0  -4 257487. 6868.33   5
   0   0   4 253538. 6601.17   4
   0   0  -4 246517. 6735.71   1
   0   0  -5 655305. 16409.1   6
   0   0   5 640132. 16274.5   4
   0   0  -5 690477. 16550.5   1
   0   0  -5 640464. 16476.8   8
   0   0  -5 658210. 16034.4  24
   0   0  -6 56024.4 2658.89   6
   0   0  -6 62241.1 2807.93   1
   0   0   6 61587.1 2634.34   4
   0   0  -6 60631.5 2826.88   8
   0   0  -6 54418.2 2367.38  24
   0   0  -7 145562. 5346.93   8
   0   0  -7 145545. 5183.70   6
   0   0   7 137521. 5013.20  25
   0   0  -8 85389.4 4073.68   6
   0   0  -8 87500.1 4218.77   8
   0   0   8 88354.4 4403.25  29
   0   0   9 8.31647 303.942  29
   0   0  -9 104.971 275.509   6
   0   0 -10 10307.0 1269.81  14
   0   0 -10 11229.1 1276.97  16
   0   0 -11 23228.8 1896.27  16
   0   0 -11 25076.3 2036.81  14
   0   0 -12 1686.75 579.364  16
   0   0 -12 1780.32 572.181  14
   0   0 -13 1608.70 513.990  16
   0   0 -13 1636.24 478.645  14
   0   0 -14 4268.65 664.470  16
   0   0 -14 4593.29 722.346  14
   0   1   0 619.484 118.422   7
   0   1  -1 361517. 8739.59   3
   0   1  -1 345963. 8659.43  26
   0   1  -2 431759. 10657.9   6
   0   1  -2 427365. 10506.3  26
   0   1  -2 442458. 10614.8   3
   0   1  -3 123296. 3580.87  24
   0   1  -3 118925. 3484.10   6
   0   1  -4 148327. 4381.68   6
   0   1  -4 141878. 4338.60  24
   0   1   4 145612. 4208.99   3
   0   1  -4 154772. 4800.98   8
   0   1  -5 36620.0 1833.43   6
   0   1  -5 40057.4 2123.63   8
   0   1   5 34955.9 1603.94   3
   0   1  -5 36312.7 1773.04  24
   0   1   6 130281. 4565.75  26
   0   1  -6 137921. 5081.42   8
   0   1  -6 139028. 4726.15   6
   0   1   6 133554. 4693.53   4
   0   1  -7 106462. 4612.63   8
   0   1   7 99891.2 4114.40   4
   0   1   7 94811.7 3936.80  26
   0   1  -7 106327. 4218.85   6
   0   1  -8 19735.3 1982.57   8
   0   1  -8 22480.7 1890.97   6
   0   1   9 53928.9 3569.43  29
   0   1  -9 52915.7 3004.72  14
   0   1  -9 55964.5 3708.75   8
   0   1 -10 3574.90 737.450  16
   0   1 -10 2551.92 685.789  14
   0   1 -11 53092.5 3093.96  14
   0   1 -11 53202.8 2987.69  16
   0   1 -12 393.777 328.140  16
   0   1 -12 2081.32 629.911  14
   0   1 -13 3417.15 672.690  16
   0   1 -13 4546.29 819.854  14
   0   1 -14 4412.41 689.613  14
   0   1 -14 3925.71 604.470  16
   0   2   0 845105. 19857.1   3
   0   2   0 830128. 19778.1   7
   0   2   0 820389. 19831.3  26
   0   2   1 375132. 9160.59   7
   0   2  -1 371039. 9353.52   3
   0   2  -1 354807. 9447.83   7
   0   2  -1 350663. 9245.17  26
   0   2   2 403031. 9662.79   7
   0   2  -2 386777. 9823.06   3
   0   2  -2 366514. 9665.49  26
   0   2   2 407541. 9993.34   3
   0   2   2 427478. 10117.7  26
   0   2  -2 352569. 10110.0   8
   0   2  -3 249574. 7459.53   8
   0   2  -3 242816. 6685.05  26
   0   2   3 268579. 6870.36   7
   0   2   3 280626. 7223.78   3
   0   2  -3 267783. 7004.21   3
   0   2   3 275535. 7323.72  26
   0   2  -4 8382.20 972.172   8
   0   2   4 7679.15 753.230   3
   0   2   4 9240.66 740.759   7
   0   2   4 6478.94 735.260  26
   0   2  -5 386935. 11569.5   8
   0   2   5 418176. 11095.6  26
   0   2   5 406814. 10763.7   3
   0   2   6 52650.6 2726.63  26
   0   2   6 51150.4 2462.07   3
   0   2  -7 169616. 6753.46   8
   0   2   7 159120. 5907.36  26
   0   2  -8 58731.3 3860.96   8
   0   2  -9 1530.78 585.574  14
   0   2  -9 1861.27 528.288  18
   0   2 -10 45039.5 2700.66  16
   0   2 -10 41208.5 2541.95  18
   0   2 -10 40544.8 2746.04  14
   0   2 -11 11178.0 1285.51  16
   0   2 -11 10493.5 1334.35  14
   0   2 -11 10685.0 1240.76  18
   0   2 -12 11876.2 1340.62  14
   0   2 -12 13562.7 1305.71  18
   0   2 -12 14889.3 1371.14  16
   0   2 -13 10018.4 1100.31  14
   0   2 -14 299.802 247.613  14
   0   3   0 129.212 233.825   3
   0   3   0 64.9098 197.188  26
   0   3  -1 257930. 7472.10   8
   0   3   1 257948. 7313.11   3
   0   3   1 256104. 7340.21  26
   0   3  -1 261332. 7367.62   7
   0   3  -1 257247. 7255.97  26
   0   3   1 255543. 7080.09   7
   0   3  -1 257782. 7284.43   3
   0   3  -2 287217. 8575.07   8
   0   3  -2 303564. 8317.01   3
   0   3   2 305741. 8480.91  26
   0   3  -2 298678. 8191.05  26
   0   3   2 310771. 8414.51   3
   0   3   2 295975. 7945.72   7
   0   3  -3 43182.1 2362.25   8
   0   3  -3 40281.0 2018.04   3
   0   3   3 37824.6 2022.06   3
   0   3   3 35138.1 2018.28  26
   0   3   4 152259. 5325.25  26
   0   3   4 153982. 5218.10   3
   0   3  -4 157583. 5751.39   8
   0   3   5 52514.3 2673.69   3
   0   3  -5 54170.5 3174.26   8
   0   3   5 52458.7 2811.31  26
   0   3  -6 101921. 4913.98   8
   0   3   6 96473.6 4268.51  26
   0   3   6 94504.6 4076.05   3
   0   3  -7 48834.7 3442.84   8
   0   3   7 44739.3 2878.81  26
   0   3  -8 2178.13 575.595  14
   0   3   8 2328.48 728.554  26
   0   3  -8 3098.46 703.654  12
   0   3  -8 3746.30 688.697  18
   0   3  -9 42115.4 2771.33  14
   0   3  -9 37604.2 2545.78  12
   0   3  -9 43186.0 2522.09  18
   0   3 -10 5768.88 887.204  18
   0   3 -10 4567.41 882.109  14
   0   3 -11 17779.9 1541.19  18
   0   3 -11 15375.5 1549.47  14
   0   3 -12 10538.4 1085.02  18
   0   3 -12 9984.60 1131.09  14
   0   3 -13 741.060 278.223  18
   0   3 -13 110.178 195.680  14
   0   4   0 476746. 13058.7   8
   0   4   0 482109. 13009.7   3
   0   4   0 476001. 13039.1  26
   0   4  -1 10387.1 1167.32   8
   0   4   1 11013.7 1158.06   3
   0   4   1 10965.6 1155.90  26
   0   4  -1 9000.69 1050.13   3
   0   4  -1 11614.6 1145.11  26
   0   4   2 168503. 5798.61   3
   0   4   2 173056. 5908.77  26
   0   4  -2 163111. 5716.93   3
   0   4  -2 160361. 5938.36   8
   0   4   3 229049. 7338.17  26
   0   4  -3 211158. 7488.20   8
   0   4  -3 208214. 7027.87   3
   0   4   3 227656. 7243.84   3
   0   4  -4 51814.1 3197.27   8
   0   4   4 46581.6 2784.15  26
   0   4   4 50088.9 2831.42   3
   0   4   5 134513. 5500.90  26
   0   4  -5 134690. 5987.47   8
   0   4   5 136412. 5418.10   3
   0   4   6 6673.65 1087.91  26
   0   4  -6 5313.00 832.957  12
   0   4  -6 7502.58 1315.68   8
   0   4   6 4822.14 926.081   3
   0   4  -6 8874.13 1055.44  18
   0   4  -7 25909.9 1957.52  12
   0   4  -7 27191.7 1930.80  18
   0   4  -8 27809.4 1980.74  18
   0   4  -8 28561.9 2196.46  14
   0   4  -8 28388.9 2114.91  12
   0   4  -9 6862.80 1055.09  14
   0   4  -9 8611.23 1077.01  18
   0   4  -9 8567.38 1093.08  12
   0   4 -10 11709.4 1224.48  18
   0   4 -10 9982.70 1206.66  14
   0   4 -10 12805.0 1322.47  11
   0   4 -11 2514.07 597.863  11
   0   4 -11 2623.24 568.719  18
   0   4 -11 2010.57 462.871  14
   0   4 -12 2915.72 539.660  14
   0   4 -12 3966.11 627.539  18
   0   4 -13 423.989 187.404  18
   0   5   0 219.369 284.209   3
   0   5   0 202.825 306.836  26
   0   5  -1 92237.2 4461.55   8
   0   5   1 102452. 4655.81  26
   0   5  -1 96575.4 4475.95   3
   0   5   1 102274. 4537.86   3
   0   5   2 48333.9 2939.04   3
   0   5  -2 48029.3 2981.56   3
   0   5   2 49276.0 3076.97  26
   0   5  -2 44813.7 3018.35   8
   0   5   3 19941.2 1937.61  26
   0   5  -3 17413.8 1949.42   8
   0   5   3 19809.4 1842.34   3
   0   5  -3 20033.4 1672.81  23
   0   5  -4 40213.8 2489.83  23
   0   5  -4 37079.4 2325.46  18
   0   5  -4 36268.2 2341.60  12
   0   5  -5 9384.48 1161.36  18
   0   5  -5 7877.45 1083.85  12
   0   5  -5 10555.5 1256.62  23
   0   5  -6 23920.3 1891.17  12
   0   5  -6 29573.0 2074.98  18
   0   5  -7 9193.46 1156.75  12
   0   5  -7 7816.97 1064.16  18
   0   5  -8 9332.90 1127.72  18
   0   5  -8 9637.91 1187.75  12
   0   5  -9 3312.64 715.770  11
   0   5  -9 3260.68 666.818  18
   0   5 -10 275.499 327.465  18
   0   5 -10 221.818 239.091  11
   0   5 -11 4193.68 637.163  18
   0   5 -11 3137.31 559.325  11
   0   5 -12 2336.50 389.993  18
   0   6   0 95601.5 4183.53  23
   0   6  -1 28712.2 2053.43  23
   0   6   1 28290.9 2083.73  23
   0   6   2 58107.1 3147.42  23
   0   6  -2 61435.6 3191.00  23
   0   6  -3 38615.3 2440.10  23
   0   6   3 32887.4 2278.13  23
   0   6  -3 31092.6 2201.63  12
   0   6  -4 1985.56 541.564  12
   0   6  -4 4200.84 812.586  23
   0   6  -5 52506.2 2929.79  12
   0   6  -5 53545.1 2913.53  18
   0   6  -5 59377.4 3188.26  23
   0   6  -6 8937.96 1113.66  18
   0   6  -6 8114.64 1061.51  12
   0   6  -6 7740.57 1083.45  23
   0   6  -7 18200.3 1547.79  11
   0   6  -7 15040.1 1391.63  12
   0   6  -7 17407.6 1478.42  18
   0   6  -8 6476.96 855.274  11
   0   6  -8 7255.58 918.802  18
   0   6  -9 420.647 251.551  18
   0   6  -9 34.7150 283.079  11
   0   6 -10 7447.57 767.733  18
   0   6 -10 7498.29 774.279  11
   0   7   0-33.4845 439.076  23
   0   7   1 1051.26 427.871  23
   0   7  -1 1740.71 542.986  23
   0   7   2 4895.36 798.824  23
   0   7  -2 5856.49 893.684  23
   0   7   3 1171.90 475.098  23
   0   7  -3 1177.93 344.310  23
   0   7  -4 5511.19 871.630  23
   0   7  -4 4470.42 739.236  11
   0   7  -5 7576.58 1001.70  23
   0   7  -5 5376.79 787.457  11
   0   7  -6 5064.34 739.261  11
   0   7  -6 7062.63 884.405  23
   0   7  -7 5871.91 724.098  11
   0   7  -8 3586.76 526.868  11
   0   8   0 28616.1 1753.72  23
   0   8   1 2044.90 487.135  23
   0   8  -1 1493.43 453.310  23
   0   8   2 2249.13 475.547  23
   0   8  -2 3611.92 634.136  23
   0   8  -3 1028.29 378.548  23
   0   8  -4 2885.79 496.012  23
   1  -8  -5 11424.2 917.566  13
   1  -8  -5 11976.4 912.142  20
   1  -8  -4 6293.75 721.005  20
   1  -8  -4 5238.77 650.854  13
   1  -8  -3 5330.37 693.552  20
   1  -8  -2 8968.57 915.190  20
   1  -8  -1 179.593 268.522  20
   1  -8   0 11418.9 995.994  20
  -1  -8   0 11436.5 976.917  20
   1  -8   0 13926.4 1179.21  30
  -1  -8  -1 1418.62 406.229  20
   1  -8   1 1553.85 460.789  30
  -1  -8  -1 1521.49 373.595  13
   1  -8   2 16577.1 1267.83  30
  -1  -8  -2 15796.6 1177.88  20
   1  -8   3 3028.41 552.562  30
  -1  -8  -3 2433.23 437.922  13
  -1  -8  -3 2746.06 507.144  20
   1  -8   4 2108.97 408.780  30
  -1  -8  -4 2296.68 410.119  13
  -1  -8  -4 2149.98 418.006  20
  -1  -8  -5 1046.40 266.392  20
   1  -7  -8 3355.39 461.754  20
   1  -7  -8 4017.44 574.644  13
   1  -7  -7 4467.03 673.244  13
   1  -7  -7 4094.57 625.081  20
   1  -7  -6 12318.7 1172.02  13
   1  -7  -6 12366.5 1147.81  20
  -1  -7   6 11985.6 1197.32  30
   1  -7  -5 9166.32 1056.50  20
  -1  -7   5 9423.86 1103.84  30
  -1  -7   4 15946.0 1448.83  30
   1  -7  -4 15347.1 1373.63  20
   1  -7  -3 40716.7 2387.02  20
  -1  -7   3 43995.5 2543.37  30
  -1  -7   2 4609.25 833.878  30
   1  -7  -2 4894.42 818.561  20
   1  -7  -2 2395.98 605.871  30
  -1  -7   1 20358.3 1671.46  30
   1  -7  -1 18938.1 1619.08  30
   1  -7  -1 19773.0 1640.71  20
  -1  -7   0 7620.52 1048.94  30
  -1  -7   0 7213.18 999.955  20
   1  -7   0 7097.82 982.886  20
   1  -7   0 6908.67 1008.93  30
  -1  -7  -1 13519.4 1352.80  20
   1  -7   1 16744.2 1526.25  30
   1  -7   1 13465.8 1361.93  20
   1  -7   2 20817.5 1692.94  30
  -1  -7  -2 17953.8 1557.96  20
  -1  -7  -3 1646.52 526.890  20
   1  -7   3 2298.92 602.057  30
  -1  -7  -4 19829.9 1559.18  13
  -1  -7  -4 18360.1 1508.65  20
   1  -7   4 17412.9 1530.35  30
  -1  -7  -5 3333.74 640.506  13
  -1  -7  -5 4076.99 698.859  20
   1  -7   5 4766.59 775.097  30
  -1  -7  -6 4657.23 695.124  20
  -1  -7  -6 4403.01 702.724  13
   1  -7   6 5321.13 776.509  30
  -1  -7  -7 6388.75 714.337  20
  -1  -7  -7 7332.83 810.471  13
   1  -7   7 4830.62 638.193  30
  -1  -7  -8 3791.53 515.736  13
   1  -6 -10 21174.7 1368.44  13
   1  -6  -9 3810.14 672.349  13
   1  -6  -9 4645.19 744.498  19
   1  -6  -8 10737.2 1189.13  19
   1  -6  -8 7869.96 932.384  20
   1  -6  -8 9143.21 1097.23  13
   1  -6  -7 19148.3 1567.23  20
   1  -6  -7 22234.0 1817.49  19
   1  -6  -7 23055.8 1803.40  13
   1  -6  -6 10158.6 1261.98  19
   1  -6  -6 9628.60 1101.28   9
   1  -6  -6 9989.77 1157.05  20
  -1  -6   6 10404.3 1305.15  30
  -1  -6   5 48884.6 2927.47  30
   1  -6  -5 45845.1 2643.66  20
   1  -6  -5 47632.8 2706.51   9
   1  -6  -4 8563.22 1086.38   9
  -1  -6   4 8168.16 1155.26  30
   1  -6  -4 7125.11 1066.09  20
   1  -6  -3 53040.6 2944.02   9
  -1  -6   3 52236.2 2949.25  30
   1  -6  -3 46387.3 2727.31  20
   1  -6  -2 24150.1 1910.55  30
  -1  -6   2 25313.1 1939.79  30
   1  -6  -2 25508.9 1940.54  20
  -1  -6   1 15039.1 1474.55  30
   1  -6  -1 14239.8 1457.65  30
  -1  -6   1 16206.3 1578.87  20
  -1  -6   0 21949.4 1863.58  20
   1  -6   0 21371.7 1820.68  30
  -1  -6   0 24737.8 1896.02  30
  -1  -6  -1 8106.94 1093.24  30
   1  -6   1 6596.20 1015.77  30
  -1  -6  -1 8385.73 1106.69  20
  -1  -6  -2 46432.1 2725.58  20
  -1  -6  -2 48490.3 2801.42  30
   1  -6   2 48509.5 2829.44  30
   1  -6   3 20527.1 1792.33  30
  -1  -6  -3 19927.4 1658.31  20
  -1  -6  -4 2395.54 613.090  20
   1  -6   4 2466.18 651.725  30
   1  -6   5 35260.4 2452.60  30
  -1  -6  -5 36027.7 2269.85  20
  -1  -6  -5 31223.0 2192.16  13
  -1  -6  -6 12357.5 1256.10  20
   1  -6   6 11226.5 1326.51  30
  -1  -6  -6 12089.3 1296.70  13
  -1  -6  -7 13941.4 1382.30  13
  -1  -6  -7 15440.4 1353.00  20
   1  -6   7 13627.3 1380.63  30
  -1  -6  -8 23427.4 1663.67  13
  -1  -6  -8 20470.8 1493.74  20
  -1  -6  -9 1582.55 450.787  13
  -1  -6 -10 8766.49 768.748  13
   1  -5 -11 5197.94 713.510  13
   1  -5 -11 6764.10 818.382  19
   1  -5 -10 926.223 404.481  13
   1  -5 -10 1204.30 482.567  19
   1  -5  -9 7582.38 1059.10  19
   1  -5  -9 8109.15 1114.32  13
   1  -5  -8 17705.6 1699.52  19
   1  -5  -8 16650.9 1644.89  13
   1  -5  -7 427.020 347.335  20
   1  -5  -7 415.298 368.055  13
   1  -5  -7 297.150 359.132  19
   1  -5  -6 14481.5 1571.27  19
   1  -5  -6 13371.8 1371.54   9
   1  -5  -6 13116.3 1346.72  20
  -1  -5   6 12148.9 1437.30  30
   1  -5  -5 619.316 315.771  20
  -1  -5   5 285.588 304.830  30
   1  -5  -5 682.932 238.198   9
   1  -5  -5-2.57133 344.477  19
   1  -5  -4 18494.0 1634.42   9
  -1  -5   4 18014.4 1969.74  25
  -1  -5   4 18169.2 1680.22  30
   1  -5  -4 19937.6 2224.21  28
  -1  -5   4 14369.1 1897.51  28
   1  -5  -3 23181.0 2342.97  28
  -1  -5   3 26400.6 2425.41  29
  -1  -5   3 27199.1 2300.93  25
   1  -5  -3 25070.9 2386.61   5
  -1  -5   3 24242.0 1889.55  30
   1  -5  -3 27971.4 2055.90   9
  -1  -5   3 21931.4 2270.90  28
   1  -5  -2 5058.23 1014.75  28
  -1  -5   2 4921.17 1062.16  28
  -1  -5   2 6499.39 1041.17  25
  -1  -5   2 6646.93 1155.01  29
   1  -5  -2 5438.84 1081.67   5
  -1  -5   1 65660.1 4005.53  28
  -1  -5   1 66644.1 3920.57  29
   1  -5  -1 66999.5 4013.69   5
   1  -5  -1 63693.8 3998.50  28
   1  -5   0 4300.18 981.244  28
   1  -5   0 3992.44 1016.50   5
  -1  -5   0 5256.03 1091.02  28
   1  -5   1 59024.2 3803.09   5
  -1  -5  -1 59688.6 3764.37  28
   1  -5   1 64688.1 4109.40  28
   1  -5   2 16064.7 2051.16  28
  -1  -5  -2 12945.4 1676.36  28
   1  -5   3 46183.5 2735.36  30
   1  -5   3 42228.1 3020.57  25
   1  -5   3 47966.3 3679.43  28
  -1  -5  -3 43295.0 2483.07  20
  -1  -5  -3 45661.8 3328.43  28
  -1  -5  -4 84067.8 4071.71  19
  -1  -5  -4 82284.9 3666.38  20
   1  -5   4 83152.5 4017.62  30
  -1  -5  -5 2522.97 703.697  19
  -1  -5  -5 1474.88 468.941  20
  -1  -5  -5 1390.10 498.826  17
  -1  -5  -6 62294.5 3115.76  20
  -1  -5  -6 54340.5 3219.18  17
  -1  -5  -6 65400.8 3474.10  19
   1  -5   6 58609.9 3472.39  30
  -1  -5  -6 59819.5 3153.36  13
  -1  -5  -7 20186.4 1742.95  13
   1  -5   7 19945.6 1936.66  30
  -1  -5  -7 25182.1 2014.07  19
  -1  -5  -7 19707.9 1816.90  17
  -1  -5  -7 22002.5 1755.51  20
  -1  -5  -8 23808.8 1803.33  20
  -1  -5  -8 25608.8 1958.79  13
  -1  -5  -8 23719.6 1951.43  17
  -1  -5  -8 28220.2 2082.96  19
  -1  -5  -9 14745.8 1402.90  13
  -1  -5  -9 12630.1 1342.29  17
  -1  -5  -9 14462.3 1401.61  19
  -1  -5 -10 1555.03 469.453  17
  -1  -5 -10 2022.34 522.055  13
  -1  -5 -11 5020.90 657.100  13
   1  -4 -12 8232.79 946.553  19
   1  -4 -11 3260.27 690.608  19
   1  -4 -11 3129.11 663.816  13
   1  -4 -10 31220.1 2259.44  17
   1  -4 -10 36687.9 2396.39  19
   1  -4 -10 37345.9 2474.50  13
   1  -4  -9 36214.1 2434.06  19
   1  -4  -9 33190.7 2406.97  17
   1  -4  -9 37008.3 2541.35  13
   1  -4  -8 55474.0 3140.89  19
   1  -4  -8 54661.8 3166.70  13
   1  -4  -7 105759. 4589.16  13
   1  -4  -7 108704. 4687.26  19
  -1  -4   6 14490.1 1739.39  25
   1  -4  -6 17280.9 1967.95   5
  -1  -4   6 17389.0 2105.71  29
   1  -4  -5 198146. 7722.00  28
   1  -4  -5 201074. 7729.30   5
  -1  -4   5 181293. 7449.07  28
  -1  -4   5 206406. 7960.13  29
  -1  -4   5 201086. 7475.96  25
  -1  -4   4 129031. 5506.86  29
   1  -4  -4 115945. 5297.13  28
   1  -4  -4 109496. 5122.67   5
  -1  -4   4 107555. 5156.84  28
  -1  -4   4 118979. 5057.51  25
   1  -4  -3 403350. 12356.1   5
  -1  -4   3 413999. 12024.5  25
  -1  -4   3 404754. 12450.4  28
   1  -4  -3 403206. 12384.0  28
  -1  -4   3 420478. 12406.1  29
   1  -4  -2 255586. 8291.77   2
  -1  -4   2 262059. 8617.82  29
  -1  -4   2 260795. 8730.93  28
  -1  -4   2 272030. 8377.09  25
   1  -4  -2 261110. 8751.56  28
   1  -4  -2 257126. 8694.12   5
  -1  -4   1 4085.24 795.564  29
  -1  -4   1 3021.44 656.892  25
   1  -4  -1 2027.09 604.353   5
  -1  -4   1 2570.95 683.414  28
   1  -4  -1 2944.32 668.774   2
   1  -4   0 247908. 8297.60   5
   1  -4   0 257041. 8133.27   2
  -1  -4   0 235914. 7636.59   5
  -1  -4   0 234897. 7402.55  25
   1  -4   0 240645. 7931.96  29
  -1  -4   0 239538. 8145.40  28
   1  -4   0 249240. 8473.74  28
  -1  -4   0 266178. 8348.60  29
   1  -4   1 43606.4 2660.48   2
  -1  -4  -1 38010.3 2545.65  28
  -1  -4  -1 37874.8 2333.12   5
   1  -4   1 39353.4 2329.31  25
   1  -4   1 40298.3 2514.20  29
   1  -4   2 114788. 4709.37  25
  -1  -4  -2 118968. 4999.90  28
   1  -4   2 120479. 5011.41  29
   1  -4   2 118330. 5015.63   2
  -1  -4  -2 109564. 4661.22   5
   1  -4   3 109971. 5056.78  29
   1  -4   3 109989. 4953.84   2
  -1  -4  -3 107556. 4840.34  28
   1  -4   3 102497. 4608.33  25
  -1  -4  -3 103724. 4640.34   5
   1  -4   4 22467.2 2260.22  29
  -1  -4  -4 20031.2 1923.26   5
  -1  -4  -4 19871.4 1949.13  28
   1  -4   4 18699.4 1847.77  25
  -1  -4  -5 97780.8 4935.95  28
  -1  -4  -5 94292.8 4797.08   5
   1  -4   5 96185.3 4864.74  25
   1  -4   5 108185. 5649.76  29
  -1  -4  -6 8064.22 1015.69  20
  -1  -4  -6 10243.1 1541.50  28
   1  -4   6 13870.8 2092.51  29
  -1  -4  -6 11313.0 1569.74   5
  -1  -4  -6 11132.7 1300.88  19
  -1  -4  -6 9529.58 1132.83  13
  -1  -4  -6 11245.6 1332.68  17
  -1  -4  -6 6115.95 1084.42   6
   1  -4   6 9350.60 1300.67  30
  -1  -4  -7 3710.53 781.883  19
  -1  -4  -7 4155.72 841.897  17
  -1  -4  -7 3918.82 749.320  13
  -1  -4  -7 3556.72 682.976  20
  -1  -4  -8 41202.2 2571.79  13
  -1  -4  -8 38234.9 2510.88  19
  -1  -4  -8 39194.3 2638.41  17
  -1  -4  -9 2206.20 662.050  19
  -1  -4  -9 1172.04 449.963  17
  -1  -4 -10 6097.07 984.933  17
  -1  -4 -10 5109.10 864.600  13
  -1  -4 -10 6701.61 943.385  19
  -1  -4 -11 3436.28 674.108  17
  -1  -4 -11 4364.88 707.115  13
  -1  -4 -12 399.441 251.808  13
   1  -3 -13 2091.76 495.226  16
   1  -3 -13 1430.92 426.949  19
   1  -3 -12 7932.05 1019.06  14
   1  -3 -12 7324.68 965.098  16
   1  -3 -12 9286.62 1096.11  19
   1  -3 -11-236.088 295.691  16
   1  -3 -11-403.907 377.133  19
   1  -3 -11-18.0964 311.550  14
   1  -3 -10 24315.9 1984.91  13
   1  -3 -10 22793.4 1872.14  16
   1  -3 -10 25783.7 2022.96  19
   1  -3 -10 23627.7 2026.49  14
   1  -3 -10 21890.1 1900.63  17
   1  -3  -9 9252.78 1223.13  13
   1  -3  -9 8463.82 1184.65  14
   1  -3  -9 7633.81 1103.64  17
   1  -3  -9 8773.37 1155.66  19
  -1  -3   8 20794.9 2427.62  29
  -1  -3   8 19000.8 2060.33  27
   1  -3  -8 17372.5 1616.41  17
   1  -3  -8 19087.3 1742.76  14
   1  -3  -8 20515.3 1736.32  19
   1  -3  -8 16537.5 1870.65   6
   1  -3  -8 19571.6 1729.72  13
   1  -3  -8 22274.9 2303.53   5
   1  -3  -8 20559.6 2196.39   1
  -1  -3   8 21886.5 2294.07  25
  -1  -3   7 20936.8 1973.67  27
   1  -3  -7 18430.7 1828.89   6
  -1  -3   7 22828.9 2194.34  25
  -1  -3   7 21053.0 2288.46  29
   1  -3  -7 23480.7 2215.43   5
   1  -3  -7 21215.0 2084.76   1
  -1  -3   6 28845.7 2499.56  29
   1  -3  -6 25153.2 1964.95   6
   1  -3  -6 30213.0 2309.05  28
   1  -3  -6 29719.3 2363.81   5
  -1  -3   6 28992.5 2171.20  27
   1  -3  -6 31015.1 2334.88   1
  -1  -3   6 30015.3 2339.61  25
  -1  -3   5 30879.4 2409.36  29
   1  -3  -5 26056.3 1815.14   6
   1  -3  -5 28569.9 2102.70   1
   1  -3  -5 28196.8 2148.08   5
  -1  -3   5 29598.5 2143.17  25
   1  -3  -5 31298.8 2236.22  28
  -1  -3   5 29549.9 2022.94  27
   1  -3  -4 108801. 4099.25   6
  -1  -3   4 125070. 4702.02  25
   1  -3  -4 120981. 4804.43   5
   1  -3  -4 116710. 4243.91   2
  -1  -3   4 123237. 4454.00  27
  -1  -3   4 129566. 5146.66  29
   1  -3  -4 131621. 4895.38  28
   1  -3  -4 117982. 4574.44   1
   1  -3  -3 146094. 4758.79   6
   1  -3  -3 161112. 5261.50   2
   1  -3  -3 155907. 5548.99  28
   1  -3  -3 161583. 5682.33   5
  -1  -3   3 168297. 5861.80  29
   1  -3  -3 151587. 5201.08   1
  -1  -3   3 164676. 5145.11  27
  -1  -3   3 170260. 5492.15  25
  -1  -3   2 62467.8 2440.93  27
   1  -3  -2 57866.5 2900.77   5
   1  -3  -2 58366.4 2684.83   2
  -1  -3   2 60724.5 2898.89  29
   1  -3  -2 52770.3 2462.46   1
  -1  -3   2 61427.3 2919.81  28
  -1  -3   2 63384.6 2736.93  25
   1  -3  -2 61256.4 2926.21  28
  -1  -3   1 427344. 11378.6   5
   1  -3  -1 441909. 10990.4  25
  -1  -3   1 412244. 10837.4  27
  -1  -3   1 444170. 11868.6  29
  -1  -3   1 467193. 11567.3  25
   1  -3  -1 448538. 12081.3   5
   1  -3  -1 437063. 11649.2  29
   1  -3  -1 410981. 11064.6   1
  -1  -3   1 435111. 11865.6  28
   1  -3  -1 449355. 12106.9  28
   1  -3  -1 437365. 11684.0   2
  -1  -3   0 52261.4 2255.03  25
   1  -3   0 49123.5 2456.93   2
  -1  -3   0 50095.0 2520.44  28
   1  -3   0 52567.2 2233.71  25
  -1  -3   0 47191.1 2262.39   5
  -1  -3   0 56996.5 2652.40  29
   1  -3   0 55301.8 2503.08  29
   1  -3   1 349163. 9469.00  25
  -1  -3  -1 340574. 9822.44  28
   1  -3   1 347240. 9819.58   2
  -1  -3  -1 340810. 9512.70   5
   1  -3   1 360933. 9871.83  29
  -1  -3  -1 348040. 9229.07  25
  -1  -3  -2 334483. 9680.27  28
  -1  -3  -2 332317. 8977.89  25
  -1  -3  -2 345688. 9491.62   5
   1  -3   2 336492. 9855.90  29
  -1  -3  -2 326838. 9443.18   6
   1  -3   2 344892. 9768.71   2
  -1  -3  -3 193000. 6605.89   6
  -1  -3  -3 208086. 6723.58   5
   1  -3   3 215293. 7195.43  29
   1  -3   3 218051. 7038.90   2
  -1  -3  -3 211219. 6849.19  28
  -1  -3  -4 441691. 11876.8   5
   1  -3   4 408078. 12293.6  29
  -1  -3  -4 377297. 11561.6   6
  -1  -3  -4 432832. 11929.8  28
   1  -3   4 384907. 11729.4   2
   1  -3   5 92130.0 4616.86  29
  -1  -3  -5 87534.2 4160.59  28
  -1  -3  -5 92572.5 4193.59   5
  -1  -3  -5 77945.8 3952.21   6
  -1  -3  -6 191740. 7226.30  28
  -1  -3  -6 203740. 7274.74   5
   1  -3   6 192467. 7730.76  29
   1  -3   6 187370. 7291.23  25
   1  -3   7 39101.5 3102.62  25
   1  -3   7 37009.6 3146.51  29
  -1  -3  -7 34192.1 2759.09  28
  -1  -3  -7 37269.9 2859.83   5
  -1  -3  -7 32103.3 2683.27   6
  -1  -3  -8 24880.6 2009.58  17
  -1  -3  -8 28577.8 2058.03  13
  -1  -3  -8 31385.3 2149.85  19
  -1  -3  -8 26391.3 2023.59  16
  -1  -3  -9 31558.9 2306.65  16
  -1  -3  -9 38849.4 2467.30  19
  -1  -3  -9 33486.5 2401.87  17
  -1  -3  -9 39117.1 2482.45  13
  -1  -3 -10 4215.28 826.804  16
  -1  -3 -10 4690.88 845.715  19
  -1  -3 -10 3908.26 842.093  17
  -1  -3 -10 3817.67 754.334  13
  -1  -3 -11 8108.48 1033.52  13
  -1  -3 -11 7493.95 981.325  16
  -1  -3 -11 10203.5 1147.81  19
  -1  -3 -11 8930.86 1151.63  17
  -1  -3 -12 2527.19 520.897  13
  -1  -3 -12 2840.00 567.449  16
  -1  -3 -13 951.994 259.115  13
  -1  -3 -13 776.479 258.985  16
   1  -2 -14 268.879 316.824  16
   1  -2 -14 500.977 211.236  14
   1  -2 -13 7506.21 982.697  14
   1  -2 -13 8392.23 1044.16  16
   1  -2 -12 7115.38 1045.53  14
   1  -2 -12 7710.47 1010.72  19
   1  -2 -12 7328.64 1029.37  16
   1  -2 -11 10535.0 1266.92  19
   1  -2 -11 9324.96 1207.34  16
   1  -2 -11 8743.30 1194.27  14
   1  -2 -10 130612. 5297.57  14
   1  -2 -10 141690. 5386.99  19
   1  -2 -10 133424. 5334.19  16
   1  -2 -10 131089. 5280.97  17
   1  -2  -9 3621.64 929.897   5
   1  -2  -9 3724.27 750.489  16
  -1  -2   9 2021.10 544.345  25
   1  -2  -9 3305.48 699.114  17
   1  -2  -9 3014.61 662.012  14
   1  -2  -9 3560.69 710.524  19
  -1  -2   8 90055.0 4627.54  25
   1  -2  -8 80971.8 4306.55   1
   1  -2  -8 86527.7 4493.72   5
   1  -2  -8 76220.0 4112.97   6
  -1  -2   8 82280.3 4668.12  29
  -1  -2   7 254560. 8421.95  25
   1  -2  -7 228304. 7931.29   6
  -1  -2   7 237764. 8514.25  29
   1  -2  -7 236712. 8258.02   5
   1  -2  -7 240487. 8202.16   1
  -1  -2   6 194170. 6458.62  25
   1  -2  -6 178706. 6245.20   1
   1  -2  -6 191958. 6485.63   5
   1  -2  -6 158316. 5872.97   6
   1  -2  -6 166599. 5965.25  28
  -1  -2   6 181536. 6587.70  29
   1  -2  -5 688491. 17124.8   1
  -1  -2   5 622306. 16960.8  25
   1  -2  -5 711661. 17315.9   5
  -1  -2   5 620979. 17286.3  29
   1  -2  -5 652332. 16837.6  28
   1  -2  -5 641859. 16704.2   6
   1  -2  -4 137474. 4699.20   5
   1  -2  -4 128025. 4497.53   1
  -1  -2   4 131920. 4590.45  25
   1  -2  -4 132189. 4326.26   6
  -1  -2   4 134121. 4880.15  29
   1  -2  -4 133966. 4097.31   2
   1  -2  -4 146068. 4626.42  28
  -1  -2   3 392399. 10437.8  27
   1  -2  -3 411040. 10454.8   2
   1  -2  -3 418007. 10713.4   1
   1  -2  -3 394049. 10287.9   6
   1  -2  -3 448758. 10990.9   5
   1  -2  -3 454460. 10858.2  28
  -1  -2   3 362113. 10863.9  29
  -1  -2   3 377679. 10558.5  25
   1  -2  -2 823763. 18554.9   6
  -1  -2   2 753741. 18931.8  25
  -1  -2   2 748569. 18694.6  27
   1  -2  -2 740171. 17921.1  25
  -1  -2   2 679128. 19145.9  29
   1  -2  -2 876473. 19048.3   1
   1  -2  -2 913209. 19394.0  28
   1  -2  -2 818241. 19391.4   5
   1  -2  -2 863632. 19040.5   2
   1  -2  -1 84490.8 2932.42   2
   1  -2  -1 77351.6 2303.61   6
  -1  -2   1 83420.2 2974.44  28
  -1  -2   1 84344.7 2620.33  27
   1  -2  -1 87584.4 2781.20  29
  -1  -2   1 84710.4 2832.45  25
   1  -2  -1 79339.9 2733.89   1
   1  -2   0 300585. 7421.04  29
  -1  -2   0 282128. 7477.41  28
  -1  -2   0 279496. 7163.10   5
  -1  -2   0 285925. 7573.85  29
  -1  -2   0 294807. 7221.75  25
  -1  -2  -1 515798. 12199.5   5
  -1  -2  -1 503178. 11964.4  25
  -1  -2  -1 516279. 12451.3  28
   1  -2   1 471817. 12408.5   2
   1  -2   1 500124. 12404.1  29
   1  -2   1 496045. 12538.7   4
   1  -2   2 447618. 11897.8  29
  -1  -2  -2 514415. 12015.5  28
   1  -2   2 440803. 11909.8   2
  -1  -2  -2 443110. 11399.2  25
   1  -2   2 428653. 11849.6   4
  -1  -2  -2 488611. 11826.8   5
  -1  -2  -3 311630. 8512.27   6
   1  -2   3 290377. 8338.54  29
   1  -2   3 286195. 8276.54   2
   1  -2   3 272556. 8166.36   4
  -1  -2  -3 293900. 8210.91   5
  -1  -2  -3 290118. 8077.27  24
  -1  -2  -3 301488. 8298.40  28
  -1  -2  -4 185234. 5961.80  28
  -1  -2  -4 189372. 5984.89   5
   1  -2   4 170845. 5800.29   4
   1  -2   4 186173. 6085.72  29
   1  -2   4 175767. 5782.76   2
  -1  -2  -4 187155. 5654.07  24
  -1  -2  -4 194131. 6141.95   6
   1  -2   5 119311. 4684.10   4
  -1  -2  -5 129751. 4875.20   5
  -1  -2  -5 134731. 4913.99  28
   1  -2   5 134574. 5081.45  29
  -1  -2  -5 124655. 4881.72   6
   1  -2   6 102711. 4600.21  29
  -1  -2  -6 100523. 4381.67  28
   1  -2   6 92546.0 4129.85   4
  -1  -2  -6 103175. 4411.58   5
  -1  -2  -6 97283.1 4386.56   6
   1  -2   7 33791.9 2645.77  29
  -1  -2  -7 35063.7 2563.25   5
  -1  -2  -7 32191.1 2480.14  28
  -1  -2  -7 30321.3 2407.80   6
   1  -2   8 72578.6 4401.67  29
   1  -2   8 74522.0 4397.19  25
  -1  -2  -8 67375.4 3994.12   6
  -1  -2  -9 4129.22 746.458  13
  -1  -2  -9 4695.26 826.706  19
  -1  -2  -9 3860.83 789.259  16
  -1  -2  -9 3980.06 753.318  17
  -1  -2 -10 12335.8 1348.86  13
  -1  -2 -10 11685.8 1367.29  16
  -1  -2 -10 13568.0 1405.02  19
  -1  -2 -10 12841.3 1434.31  17
  -1  -2 -11 5969.60 965.514  17
  -1  -2 -11 7181.09 1004.42  13
  -1  -2 -11 6423.93 992.939  16
  -1  -2 -11 7161.15 995.582  19
  -1  -2 -12-1249.73 422.855  13
  -1  -2 -12 359.462 378.026  16
  -1  -2 -13 1264.97 414.939  16
  -1  -2 -13 780.321 296.479  13
  -1  -2 -14 675.102 233.461  16
   1  -1 -15 243.657 175.642  16
   1  -1 -14 1671.73 482.709  16
   1  -1 -14 672.205 320.154  14
   1  -1 -13 2036.18 539.459  14
   1  -1 -13 2233.21 652.797  16
   1  -1 -12 9036.51 1189.51  14
   1  -1 -12 10845.2 1260.52  16
   1  -1 -11 5122.14 892.830  14
   1  -1 -11 5502.33 971.691  16
   1  -1 -10 7229.72 1073.71  22
   1  -1 -10 7654.45 1069.66  14
   1  -1 -10 7852.22 1068.13  16
  -1  -1   9 64351.1 4143.96  29
   1  -1  -9 69457.3 3936.98   1
   1  -1  -9 56765.3 3548.41   6
  -1  -1   8 15184.5 1739.84  29
   1  -1  -8 15412.5 1648.32   8
   1  -1  -8 14724.4 1553.59   6
   1  -1  -8 14606.7 1599.92   1
   1  -1  -8 16528.7 1701.64   5
  -1  -1   8 15331.6 1601.80  25
  -1  -1   7 144050. 5552.72  29
  -1  -1   7 144646. 5365.89  25
   1  -1  -7 144205. 5408.87   5
   1  -1  -7 129335. 5112.51   6
   1  -1  -7 136571. 5340.88   8
   1  -1  -7 135337. 5277.87   1
  -1  -1   6 53091.2 2652.40  25
   1  -1  -6 44885.5 2436.46   6
  -1  -1   6 54616.4 2761.80  29
   1  -1  -6 58293.8 2796.89   8
   1  -1  -6 53802.5 2673.12   1
   1  -1  -6 52619.0 2679.50   5
   1  -1  -5 12555.9 957.109  28
  -1  -1   5 10450.2 1008.59  29
   1  -1  -5 9062.30 886.386   6
   1  -1  -5 10011.4 963.458   5
   1  -1  -5 9817.75 962.013   1
   1  -1  -5 11895.3 1060.24   8
   1  -1  -4 366943. 8966.05   5
   1  -1  -4 363148. 8797.06   6
   1  -1  -4 338380. 8885.08   1
   1  -1  -4 319062. 8010.42   2
  -1  -1   4 337424. 8961.26  29
   1  -1  -4 324393. 8500.21  28
   1  -1  -4 365760. 8989.64   8
  -1  -1   4 317040. 8717.57  25
  -1  -1   4 303617. 7959.37   4
  -1  -1   3 353654. 9523.24  29
   1  -1  -3 366877. 9155.87  28
   1  -1  -3 384459. 9483.91   5
   1  -1  -3 387908. 9038.42   2
   1  -1  -3 399781. 9334.85   6
   1  -1  -2 227824. 5764.50   2
   1  -1  -2 220552. 5719.47   6
   1  -1  -2 220942. 5770.54  28
  -1  -1   1 256600. 6956.31  28
  -1  -1   1 253315. 6932.51  27
  -1  -1   0 144915. 3734.87   5
  -1  -1   0 143360. 3872.38  27
   1  -1   0 152519. 3824.07  29
   1  -1   1 400260. 10303.9  29
  -1  -1  -1 441514. 10367.2  27
   1  -1   1 427547. 10511.2   2
  -1  -1  -1 410163. 10329.7  25
  -1  -1  -1 460600. 10428.9   5
   1  -1   2 443704. 11343.6  29
  -1  -1  -2 455718. 11439.3  24
  -1  -1  -2 490931. 11514.0   5
   1  -1   2 461830. 11527.7   4
   1  -1   2 453630. 11390.8   2
  -1  -1  -3 42581.4 1446.57   8
  -1  -1  -3 42881.1 1812.15  24
   1  -1   3 44478.5 1957.85   4
  -1  -1  -3 41876.8 1910.02   5
  -1  -1  -3 44469.8 1928.81  28
  -1  -1  -3 41424.8 1967.89   6
   1  -1   3 41879.1 1790.30   2
   1  -1   3 42046.3 1866.34  29
   1  -1   4 424783. 11581.7   2
   1  -1   4 473536. 12180.4   4
   1  -1   4 448813. 12072.8  29
  -1  -1  -4 460727. 11806.4  24
  -1  -1  -4 497759. 11532.4   8
  -1  -1  -4 477976. 12215.5   5
  -1  -1  -4 459529. 12184.5   6
  -1  -1  -4 481482. 12173.2  28
  -1  -1  -5 68832.0 2904.77  28
   1  -1   5 59738.0 2791.96  29
  -1  -1  -5 55265.8 2430.90  24
   1  -1   5 63099.1 2812.53   4
  -1  -1  -5 56066.6 2735.40   6
  -1  -1  -5 67254.2 2924.42   5
  -1  -1  -6 112405. 4225.15  24
   1  -1   6 134178. 4845.53   4
   1  -1   6 140948. 5030.07  29
  -1  -1  -6 120085. 4754.85   6
  -1  -1  -7 70356.7 3616.86   6
   1  -1   7 76029.8 3826.84  29
  -1  -1  -8 13330.5 1558.28   6
   1  -1   8 18326.2 1960.87  29
  -1  -1  -9 80939.3 3828.19  14
  -1  -1  -9 95398.3 4171.62  17
  -1  -1  -9 94190.6 3947.23  13
  -1  -1  -9 86630.2 3963.82  16
  -1  -1 -10 17347.0 1625.27  14
  -1  -1 -10 18890.2 1743.14  17
  -1  -1 -10 20920.1 1785.65  16
  -1  -1 -10 19232.3 1653.81  13
  -1  -1 -11 40797.7 2436.87  13
  -1  -1 -11 36320.9 2421.31  16
  -1  -1 -11 36297.9 2411.28  14
  -1  -1 -12 12559.4 1336.54  16
  -1  -1 -12 13845.4 1272.43  13
  -1  -1 -12 11475.7 1244.16  14
  -1  -1 -13 1807.60 468.810  14
  -1  -1 -13 2502.77 598.259  16
  -1  -1 -14 1552.63 412.491  16
  -1  -1 -14 959.936 274.338  14
   1   0 -15 1238.34 333.928  14
   1   0 -15 969.520 280.936  16
   1   0 -14 34.6568 262.256  16
   1   0 -14 31.4331 243.375  14
   1   0 -13 1415.95 400.271  14
   1   0 -13 2200.41 532.130  16
   1   0 -12 20203.9 1723.95  16
   1   0 -12 19975.6 1812.75  14
   1   0 -11 25045.2 2076.58  22
   1   0 -11 22880.6 1949.38  14
   1   0 -11 23511.5 1894.06  16
   1   0 -10 20889.6 1860.37  22
   1   0 -10 21497.6 1760.56  16
   1   0 -10 22368.2 1839.16  14
  -1   0   9 5929.81 1161.82  29
   1   0  -9 5296.81 1031.64   8
   1   0  -8 74328.4 3806.38   8
   1   0  -8 66061.3 3509.23   6
   1   0  -8 71142.5 3619.48   1
  -1   0   8 74905.3 3889.20  29
  -1   0   7 41703.4 2489.69  29
   1   0  -7 35824.3 2246.39   6
   1   0  -7 43494.1 2560.51   8
   1   0  -7 39143.2 2332.71   1
   1   0  -6 76417.6 3270.88   8
  -1   0   6 71134.2 2854.04  25
   1   0  -6 69273.2 2979.13   6
  -1   0   6 76947.2 3168.61  29
   1   0  -5 795971. 18990.8   6
   1   0  -5 785958. 18992.0   1
   1   0  -5 717852. 19139.6   8
  -1   0   5 787887. 18757.4  25
   1   0  -5 728223. 18950.3   5
  -1   0   5 759996. 18344.7   4
  -1   0   5 816884. 19081.3  29
   1   0  -4 12104.0 884.038   6
  -1   0   4 15692.1 903.078  25
  -1   0   4 14983.6 742.385   4
   1   0  -4 13706.2 964.682   1
   1   0  -4 13050.5 565.601   2
   1   0  -4 15115.3 1069.05   8
   1   0  -4 15234.6 992.519   5
  -1   0   4 14289.7 948.138  29
  -1   0   3 516009. 12101.8  29
   1   0  -3 535303. 12240.6   1
   1   0  -3 485402. 11758.5   2
   1   0  -3 472413. 12052.2   5
  -1   0   3 493172. 11952.1  25
  -1   0   2 149863. 3777.95  29
  -1   0   2 144936. 3749.40  25
   1   0  -2 138015. 3728.41   5
   1   0  -1 33621.8 1007.14   5
   1   0  -1 33185.9 943.106   4
   1   0   1 119671. 2869.55   3
  -1   0  -1 100359. 2785.74   7
   1   0   1 112696. 2987.51   2
   1   0   1 98693.8 2785.22  26
   1   0   2 967092. 22030.4  26
   1   0   2 912315. 21885.2   3
  -1   0  -2 999999. 22139.7   8
   1   0   2 958997. 22152.7   2
  -1   0  -2 937715. 22452.2   6
  -1   0  -3 414210. 9625.84  24
  -1   0  -3 390393. 9686.21   6
   1   0   3 406644. 9797.23   4
  -1   0  -3 416664. 9499.66   8
   1   0   3 400143. 9195.40   2
  -1   0  -4 33167.5 1563.87  24
   1   0   4 29241.9 1256.50  26
   1   0   4 37266.4 1764.95   4
   1   0   4 27265.7 1050.11   2
  -1   0  -4 36723.5 1619.70   8
  -1   0  -4 29209.6 1573.61   6
   1   0   5 158765. 5018.71   4
  -1   0  -5 143015. 4653.96  24
  -1   0  -5 137554. 4781.20   6
  -1   0  -5 155435. 4827.99   8
  -1   0  -6 103667. 3949.58  24
  -1   0  -6 115916. 4262.98   8
  -1   0  -6 107383. 4246.30   6
  -1   0  -7 66026.7 3106.24  24
   1   0   7 72326.4 3464.99   4
  -1   0  -7 69606.7 3410.93   6
   1   0   8 118204. 5356.66  29
  -1   0  -8 103138. 4754.74   6
  -1   0  -9 7082.12 1023.06  17
   1   0   9 7087.01 1288.92  29
  -1   0  -9 6067.03 850.074  13
  -1   0  -9 7087.14 1004.73  14
  -1   0  -9 5610.53 1081.61   6
  -1   0  -9 6649.30 965.080  16
  -1   0 -10 15242.4 1409.38  13
  -1   0 -10 13773.9 1461.32  14
  -1   0 -10 15904.2 1543.97  16
  -1   0 -11 48677.3 2655.96  13
  -1   0 -11 43697.9 2724.56  14
  -1   0 -11 44148.9 2705.55  16
  -1   0 -12 13092.6 1389.27  14
  -1   0 -12 11864.2 1289.70  16
  -1   0 -13 19495.6 1531.18  16
  -1   0 -13 16867.7 1459.26  14
  -1   0 -14 87.1247 278.450  16
  -1   0 -14 543.129 245.576  14
   1   1 -15 502.389 219.337  14
   1   1 -14 1681.97 487.219  14
   1   1 -14 1962.26 486.215  16
   1   1 -13 1520.99 539.992  14
   1   1 -13 1398.89 478.948  16
   1   1 -12 9956.55 1197.70  16
   1   1 -12 8884.38 1234.45  14
   1   1 -11 6132.69 951.434  16
   1   1 -11 7014.94 1074.47  14
   1   1 -10 7946.50 1170.54  14
   1   1 -10 8038.41 1089.99  16
  -1   1   9 68551.3 3792.52  27
   1   1  -9 63014.2 3989.90   8
   1   1  -8 18983.5 1929.08   8
  -1   1   8 16486.3 1697.14  29
   1   1  -7 141509. 5136.41   1
   1   1  -7 137654. 5533.98   8
   1   1  -6 65085.1 3166.08   8
   1   1  -6 64340.4 2805.96   1
   1   1  -5 13500.9 1163.62   8
   1   1  -5 12044.7 962.925   1
  -1   1   4 316568. 7626.58  25
   1   1  -4 332127. 8326.62   1
   1   1  -4 339955. 8869.55   8
   1   1  -3 339947. 8429.00   1
   1   1  -2 193227. 5233.66  26
   1   1  -2 192228. 5215.81   3
  -1   1   2 202948. 5159.31   7
  -1   1   2 205196. 4919.42  27
   1   1  -1 287870. 7378.00   8
  -1   1   1 303261. 7028.61  24
  -1   1   1 296636. 7145.88  27
   1   1   0 157150. 3830.33   8
  -1   1   0 147438. 3928.43  24
  -1   1   0 151763. 3933.15  27
  -1   1  -1 367933. 8690.95   6
   1   1   1 376951. 9110.80   3
   1   1   2 528446. 11595.1   3
  -1   1  -2 457550. 11078.7   3
   1   1   2 509019. 11757.0  26
   1   1   2 459675. 10959.3   7
  -1   1  -2 489105. 11344.8   6
   1   1   3 48408.6 1981.21  26
  -1   1  -3 53617.4 2061.57  24
  -1   1  -3 50186.7 1884.71   6
  -1   1  -3 55422.6 2227.87   8
   1   1   3 53937.0 1877.60   3
   1   1   4 437275. 11708.9  26
  -1   1  -4 468242. 11866.8  24
  -1   1  -4 488412. 12203.3   8
  -1   1  -4 464384. 11727.8   6
   1   1   4 462508. 11407.6   3
  -1   1  -5 64203.6 2678.50  24
   1   1   5 68846.8 2890.17   4
  -1   1  -5 60444.5 2591.30   6
   1   1   5 57661.6 2516.88  26
  -1   1  -5 64537.0 2911.86   8
  -1   1  -6 133532. 4705.35  24
   1   1   6 122586. 4484.04  26
  -1   1  -6 135756. 4745.12   6
   1   1   6 142745. 5039.58   4
  -1   1  -6 139175. 5201.12   8
  -1   1  -7 73724.8 3409.22  24
   1   1   7 77281.3 3661.17   4
  -1   1  -7 75810.5 3514.25   6
  -1   1  -7 71138.0 3727.05   8
  -1   1  -8 16537.3 1812.71   8
  -1   1  -8 16995.0 1675.10   6
  -1   1  -9 91012.0 4139.99  14
  -1   1  -9 84132.0 3789.93  18
  -1   1  -9 82851.2 3887.03  16
  -1   1  -9 89077.5 3714.48  13
  -1   1 -10 18726.2 1766.54  14
  -1   1 -10 19523.2 1753.71  16
  -1   1 -10 20258.2 1629.31  13
  -1   1 -11 36188.1 2507.90  14
  -1   1 -11 42711.2 2612.47  16
  -1   1 -12 11093.5 1286.41  14
  -1   1 -12 10346.0 1194.94  16
  -1   1 -13 3697.36 639.356  16
  -1   1 -13 2292.16 556.526  14
  -1   1 -14 416.583 227.810  14
  -1   1 -14 693.430 247.399  16
   1   2 -14 777.003 299.676  14
   1   2 -13 8269.52 1050.80  14
   1   2 -13 7158.10 918.488  16
   1   2 -12 6596.52 1006.92  16
   1   2 -12 4977.11 864.817  14
   1   2 -11 10904.7 1354.31  14
   1   2 -11 11934.0 1346.72  16
   1   2 -11 10864.7 1280.64  18
   1   2 -10 118114. 5226.81  14
   1   2 -10 123405. 4990.50  18
   1   2 -10 134501. 5186.36  16
   1   2  -9 2831.04 668.189  16
   1   2  -9 2174.87 638.622  14
   1   2  -9 1890.87 532.266  18
   1   2  -8 86508.0 4731.68   8
  -1   2   8 74971.1 3888.06  26
   1   2  -7 230845. 8314.48   8
  -1   2   7 225343. 7546.65  26
   1   2  -6 171231. 6466.50   8
  -1   2   6 165924. 5660.35   3
  -1   2   5 716246. 17332.4   7
   1   2  -5 642654. 17916.7   8
  -1   2   4 148011. 4519.96   7
  -1   2   4 133994. 4028.45  27
   1   2  -4 147018. 4732.37   3
   1   2  -4 137434. 4913.51   8
   1   2  -3 402323. 10492.3  26
  -1   2   3 399484. 9600.65  27
   1   2  -3 385896. 10465.4   3
   1   2  -3 363989. 10600.8   8
   1   2  -2 801485. 19326.3  26
   1   2  -2 777524. 19234.3   3
   1   2  -1 81177.6 2810.18  26
  -1   2   1 71300.3 2585.68   7
   1   2  -1 71875.5 2606.75   8
   1   2  -1 82872.8 2778.38   3
   1   2   0 330636. 8392.22   8
  -1   2   0 306973. 8538.02   7
   1   2   1 537049. 12712.7  26
  -1   2  -1 462210. 12075.0  26
  -1   2  -1 515642. 12312.7   3
  -1   2  -1 497017. 12359.8  24
  -1   2  -1 491153. 12556.7   7
   1   2   1 530620. 12571.1   3
  -1   2  -2 447777. 10732.4   3
  -1   2  -2 475184. 11413.3   7
  -1   2  -2 439401. 11017.6  24
  -1   2  -2 444344. 10386.9  26
   1   2   2 397914. 10089.8   7
   1   2   2 469402. 11279.4  26
   1   2   2 496711. 11197.9   3
  -1   2  -3 278218. 7912.19  24
  -1   2  -3 291815. 7422.50   3
   1   2   3 295362. 7939.19   3
   1   2   3 284389. 8025.26  26
   1   2   4 192835. 5940.00  26
   1   2   4 192514. 5723.07   3
  -1   2  -4 191124. 5867.22  24
  -1   2  -4 192237. 6262.04   8
   1   2   5 127909. 4575.66  26
  -1   2  -5 128274. 4564.58  24
  -1   2  -5 135646. 5149.61   8
   1   2   5 120845. 4241.81   3
   1   2   6 94408.7 4030.49  26
  -1   2  -6 109873. 4807.73   8
   1   2   7 33809.9 2325.17  26
   1   2   7 38571.5 2620.88   4
  -1   2  -7 40373.7 2921.37   8
  -1   2  -8 63746.8 4073.16   8
   1   2   8 63818.9 3725.36   4
  -1   2  -9 4410.22 863.923  14
  -1   2  -9 4713.49 781.133  18
  -1   2 -10 10058.4 1296.54  14
  -1   2 -10 9938.18 1217.30  18
  -1   2 -11 5875.81 969.014  14
  -1   2 -11 7018.32 975.596  18
  -1   2 -12 64.1606 405.850  14
  -1   2 -12 1179.09 373.429  18
  -1   2 -13 1092.14 394.306  14
  -1   2 -14 411.331 205.437  14
   1   3 -13 764.132 300.250  14
   1   3 -13 1294.58 366.370  18
   1   3 -12 6514.15 884.595  18
   1   3 -12 7165.80 963.011  14
   1   3 -11 579.900 358.231  18
   1   3 -11 694.294 526.654  14
   1   3 -10 24077.1 2039.38  14
   1   3 -10 23852.5 1961.65  11
   1   3 -10 24911.5 1910.63  18
   1   3  -9 7559.22 1148.16  14
   1   3  -9 10901.1 1278.97  11
   1   3  -9 8743.80 1103.83  18
   1   3  -8 21180.5 1804.06  12
   1   3  -8 20480.7 1821.40  14
  -1   3   8 20111.9 1978.76  26
   1   3  -8 24510.5 2555.36   8
   1   3  -8 23255.5 1727.19  18
  -1   3   7 17627.4 1736.07  26
  -1   3   7 14406.6 1495.88   3
  -1   3   6 25769.9 1991.65  26
   1   3  -6 32068.2 2570.51   8
  -1   3   6 26660.9 1921.66   3
  -1   3   5 33134.0 2137.40  26
  -1   3   5 30533.0 1981.15   3
   1   3  -5 34793.9 2495.45   8
  -1   3   4 114843. 4114.76   7
   1   3  -4 119593. 4847.01   8
  -1   3   4 124890. 4529.13  26
  -1   3   4 119050. 4393.60   3
   1   3  -4 120436. 4639.49   3
   1   3  -3 172315. 5644.93   3
   1   3  -3 177594. 5701.08  26
  -1   3   3 162380. 5211.21   7
  -1   3   3 165736. 5444.28   3
  -1   3   3 171780. 5541.44  26
   1   3  -3 162991. 5763.00   8
   1   3  -2 88883.2 3398.81  26
   1   3  -2 82481.7 3295.57   3
   1   3  -2 80522.2 3308.94   8
  -1   3   2 79569.3 3055.64   7
  -1   3   2 80555.8 3184.08  26
  -1   3   2 77299.0 3130.16   3
  -1   3   1 439629. 11481.0   3
  -1   3   1 448930. 11445.3   7
   1   3  -1 455062. 11670.0  26
   1   3  -1 434406. 11591.7   3
  -1   3   1 453004. 11492.0  26
  -1   3   0 50848.4 2305.31   7
   1   3   0 49809.4 2314.88   3
   1   3   0 53738.0 2443.45  26
   1   3   0 46896.4 2128.02   8
  -1   3   0 46468.2 2168.05   3
  -1   3   0 52786.4 2225.19  26
   1   3   1 339428. 9031.12   8
  -1   3  -1 361737. 9677.81   7
  -1   3  -1 328877. 9073.38  26
  -1   3  -1 355894. 9311.89   3
   1   3   1 348560. 9484.72   3
   1   3   1 354851. 9637.47  26
  -1   3  -2 311271. 8998.47   8
  -1   3  -2 304230. 8865.81   7
   1   3   2 311657. 8804.25  26
  -1   3  -2 306650. 8416.83   3
   1   3   2 307980. 8682.44   3
   1   3   3 207850. 6587.74  26
  -1   3  -3 205400. 6789.92   8
   1   3   3 210940. 6463.24   3
  -1   3  -4 388864. 11738.7   8
   1   3   4 406130. 11498.9  26
   1   3   4 426672. 11354.9   3
   1   3   5 77034.0 3595.85  26
  -1   3  -5 81517.9 4006.14   8
   1   3   5 72057.0 3346.84   3
   1   3   6 178508. 6632.10  26
  -1   3  -6 195100. 7461.76   8
   1   3   7 31659.8 2473.55  26
  -1   3  -7 35440.0 2934.64   8
  -1   3  -8 23019.9 1875.85  12
  -1   3  -8 27204.6 1914.05  18
  -1   3  -9 37300.3 2344.55  18
  -1   3  -9 34093.3 2477.40  14
  -1   3  -9 33385.7 2375.33  12
  -1   3 -10 2436.87 661.071  14
  -1   3 -10 3421.51 691.678  18
  -1   3 -10 1521.20 515.104  12
  -1   3 -11 6404.68 1000.20  14
  -1   3 -11 7965.93 988.786  18
  -1   3 -12 2812.60 618.803  14
  -1   3 -12 3326.15 586.005  18
  -1   3 -13 933.015 250.826  18
  -1   3 -13 1325.51 358.602  14
   1   4 -13-208.263 147.125  18
   1   4 -12 7310.54 846.547  18
   1   4 -11 2114.59 483.338  11
   1   4 -11 2194.37 527.438  14
   1   4 -11 2818.35 646.860  18
   1   4 -10 34143.7 2257.77  11
   1   4 -10 32013.4 2124.92  18
   1   4  -9 34043.4 2214.10  18
   1   4  -9 31553.3 2248.33  11
   1   4  -8 51138.1 2948.76  12
   1   4  -8 53496.4 2838.65  18
   1   4  -7 93266.6 4187.84  12
   1   4  -7 103822. 4190.08  18
  -1   4   6 13551.5 1585.92  26
   1   4  -6 16283.7 1974.75   8
  -1   4   6 13180.1 1499.33   3
  -1   4   5 192894. 6832.92   3
  -1   4   5 194487. 6983.59  26
   1   4  -5 183348. 7475.27   8
  -1   4   4 109907. 4560.46   3
  -1   4   4 112482. 4703.83  26
   1   4  -4 112849. 5102.26   8
  -1   4   3 409726. 11501.3  26
   1   4  -3 386362. 11529.6   3
  -1   4   3 409079. 11332.5   3
   1   4  -2 246816. 8352.27   8
  -1   4   2 277777. 8118.19   7
   1   4  -2 267647. 8435.19   3
  -1   4   2 272567. 8302.23  26
  -1   4   2 268215. 8229.23   3
   1   4  -2 271668. 8455.76  26
   1   4  -1 3442.91 693.096   3
   1   4  -1 3168.44 639.739  26
  -1   4   1 2783.34 592.591   3
  -1   4   1 2717.88 606.514  26
   1   4  -1 2766.51 583.628   8
  -1   4   1 3216.96 599.720   7
  -1   4   0 251379. 7684.61   3
   1   4   0 250748. 7879.02  26
  -1   4   0 232494. 7495.34  26
  -1   4   0 264576. 7923.70   7
   1   4   0 249409. 7815.85   3
  -1   4  -1 35663.0 2139.60   3
   1   4   1 32219.5 2102.72   3
  -1   4  -1 38671.7 2321.25   7
   1   4   1 35765.1 2279.34  26
   1   4   2 114732. 4599.63  26
  -1   4  -2 112125. 4680.29   8
   1   4   2 104665. 4315.67   3
  -1   4  -2 102386. 4112.81   3
   1   4   3 95703.2 4210.17  26
  -1   4  -3 85564.6 4187.67   8
   1   4   3 91746.8 4011.04   3
   1   4   4 18112.5 1646.55   3
  -1   4  -4 19751.2 1903.60   8
   1   4   4 17267.3 1680.83  26
   1   4   5 95672.0 4523.56  26
  -1   4  -5 98063.8 4920.48   8
   1   4   5 89419.8 4258.41   3
  -1   4  -6 9941.52 1130.19  12
   1   4   6 10049.7 1394.91  26
  -1   4  -6 10957.3 1195.95  18
  -1   4  -7 4147.25 752.428  12
  -1   4  -7 3633.65 754.272  18
  -1   4  -8 34419.4 2324.52  12
  -1   4  -8 36504.1 2312.04  18
  -1   4  -9 2476.15 700.640  14
  -1   4  -9 2460.42 623.759  12
  -1   4  -9 2905.05 677.344  18
  -1   4 -10 4808.97 822.500  12
  -1   4 -10 4949.12 851.267  14
  -1   4 -10 4728.64 802.744  18
  -1   4 -11 3730.14 631.550  11
  -1   4 -11 4435.80 715.089  14
  -1   4 -11 3170.48 633.169  18
  -1   4 -12 270.870 267.117  18
  -1   4 -12 541.973 266.202  14
   1   5 -12 1275.55 305.528  18
   1   5 -11 5827.97 777.283  18
   1   5 -11 5705.14 730.939  11
   1   5 -10 1399.40 395.179  11
   1   5 -10 821.472 459.314  18
   1   5  -9 6893.43 952.213  11
   1   5  -9 7016.18 958.792  18
   1   5  -8 12253.8 1289.98  18
   1   5  -8 14326.9 1424.18  11
   1   5  -7 449.566 399.288  11
   1   5  -7 843.961 453.327  18
   1   5  -7 1487.13 487.246  12
   1   5  -6 16888.7 1565.41  12
   1   5  -6 16804.9 1686.51  23
   1   5  -6 16571.2 1523.85  18
   1   5  -5-64.0202 250.029  18
   1   5  -5-870.213 395.082  23
   1   5  -4 19918.7 1644.84  18
   1   5  -4 18371.2 1628.93  12
   1   5  -4 19335.2 2091.49   8
   1   5  -4 21334.1 1791.76  23
  -1   5   3 24705.7 2130.91  26
  -1   5   3 23831.7 2061.44   3
   1   5  -3 26515.7 1967.70  23
   1   5  -2 3549.79 792.838   3
  -1   5   2 3723.03 816.454  26
  -1   5   2 3975.06 813.800   3
  -1   5   1 72208.5 3675.33   3
  -1   5   1 67941.6 3617.30  26
   1   5  -1 66643.0 3659.60   3
  -1   5   0 5113.74 989.250   8
   1   5   0 4504.74 839.266   3
   1   5   0 5540.13 1002.80  26
  -1   5  -1 61949.5 3392.95   3
  -1   5  -1 64054.6 3668.73   8
   1   5   1 63761.9 3581.15  26
   1   5   1 64826.3 3540.46   3
   1   5   2 16918.1 1763.78  26
  -1   5  -2 14541.9 1687.89   8
   1   5   2 14171.5 1588.49   3
  -1   5  -3 44901.5 3240.09   8
  -1   5  -3 47370.4 2683.54  12
  -1   5  -3 54256.5 2893.77  23
   1   5   3 49175.1 3178.44  26
   1   5   3 48249.8 3086.75   3
  -1   5  -4 77784.0 3636.10  12
  -1   5  -4 80839.3 3790.84  23
  -1   5  -5 1242.92 459.200  12
  -1   5  -5 1480.80 434.025  23
  -1   5  -5 757.960 408.489  18
  -1   5  -6 56815.5 3063.44  12
  -1   5  -6 63082.7 3205.87  18
  -1   5  -7 21671.1 1762.08  18
  -1   5  -7 20870.9 1718.71  12
  -1   5  -8 23713.1 1841.25  12
  -1   5  -8 25754.3 1882.51  18
  -1   5  -8 22773.4 1845.29  14
  -1   5  -9 12022.4 1222.35  14
  -1   5  -9 14592.4 1326.33  18
  -1   5  -9 12857.4 1254.27  12
  -1   5 -10 1592.03 418.216  14
  -1   5 -10 1906.62 513.596  18
  -1   5 -10 2584.82 538.500  11
  -1   5 -11 4213.37 545.591  14
  -1   5 -11 5366.09 666.754  18
  -1   5 -11 4122.40 548.585  11
   1   6 -10 19518.5 1317.81  11
   1   6 -10 20898.0 1347.54  18
   1   6  -9 3791.55 638.351  11
   1   6  -9 3801.78 664.777  18
   1   6  -8 10115.4 1091.60  18
   1   6  -8 9590.81 1064.48  11
   1   6  -7 19546.7 1702.10  23
   1   6  -7 23015.9 1732.09  18
   1   6  -7 18793.9 1588.80  11
   1   6  -6 12100.2 1299.64  18
   1   6  -6 12545.8 1331.08  11
   1   6  -6 12073.4 1377.29  23
   1   6  -5 48832.8 2905.56  23
   1   6  -5 50355.0 2810.91  18
   1   6  -5 49566.5 2824.63  11
   1   6  -5 45500.7 2701.51  12
  -1   6   4 8744.56 1142.50  23
   1   6  -4 10044.8 1216.47  11
   1   6  -4 6847.68 1001.88  12
   1   6  -3 51223.7 2935.15  11
   1   6  -3 55512.7 3044.14  23
   1   6  -2 27333.4 2044.31  23
   1   6  -1 14351.8 1444.45  23
   1   6   0 22000.1 1828.49  23
  -1   6   0 22722.0 1813.55  23
  -1   6  -1 5293.85 863.449  23
   1   6   1 6610.23 993.452  23
   1   6   2 48070.0 2859.79  23
  -1   6  -2 51948.8 2877.38  23
  -1   6  -3 20914.6 1754.31  12
  -1   6  -3 23502.7 1904.59  23
  -1   6  -4 2083.16 533.906  23
  -1   6  -4 1682.77 451.431  12
  -1   6  -5 33401.0 2249.36  12
  -1   6  -5 37571.0 2434.88  23
  -1   6  -6 9602.02 1156.63  12
  -1   6  -6 10798.1 1182.78  18
  -1   6  -7 12199.5 1214.91  12
  -1   6  -7 13593.5 1265.08  18
  -1   6  -8 21622.4 1571.82  11
  -1   6  -8 19612.1 1508.75  12
  -1   6  -8 19384.4 1450.83  18
  -1   6  -9 2493.86 481.874  18
  -1   6  -9 1557.83 414.455  11
  -1   6 -10 7492.02 710.112  18
  -1   6 -10 8251.94 752.131  11
   1   7  -8 4609.27 606.365  11
   1   7  -7 4352.71 651.610  23
   1   7  -7 3858.21 617.809  11
   1   7  -6 12459.9 1206.31  23
   1   7  -6 13727.8 1199.12  11
   1   7  -5 9499.97 1107.94  23
   1   7  -5 8808.35 1006.25  11
   1   7  -4 16901.6 1406.27  11
   1   7  -4 15987.3 1467.97  23
  -1   7   4 13924.5 1289.64  23
  -1   7   3 47809.8 2609.28  23
   1   7  -3 48326.4 2733.84  23
   1   7  -2 3480.48 721.428  23
  -1   7   2 2574.62 638.259  23
   1   7  -1 19573.3 1682.99  23
  -1   7   1 19240.7 1621.76  23
  -1   7   0 7208.98 985.803  23
   1   7   0 7618.67 1025.33  23
   1   7   1 18231.0 1598.72  23
  -1   7  -1 19729.5 1638.69  23
  -1   7  -2 19824.9 1622.40  23
   1   7   2 18378.2 1562.32  23
  -1   7  -3 3072.63 665.701  23
  -1   7  -4 15176.6 1310.37  12
  -1   7  -4 16068.8 1374.03  11
  -1   7  -5 3679.88 664.063  12
  -1   7  -5 4842.41 764.488  23
  -1   7  -5 3977.55 686.829  11
  -1   7  -6 3205.46 583.059  11
  -1   7  -7 4373.15 615.775  11
  -1   7  -8 4108.25 528.947  11
   1   8  -5 10259.3 843.605  23
   1   8  -4 6210.72 738.240  23
  -1   8   3 4548.50 602.534  23
   1   8  -3 4402.08 655.701  23
   1   8  -2 7542.88 852.138  23
  -1   8   2 6656.49 782.803  23
   1   8  -1 862.536 376.260  23
  -1   8   1 304.754 280.305  23
   1   8   0 11943.2 1088.22  23
  -1   8   0 12320.9 1090.24  23
   1   8   1 1417.24 406.087  23
  -1   8  -1 1909.11 481.985  23
  -1   8  -2 15770.8 1203.76  23
   1   8   2 11180.3 950.289  23
  -1   8  -3 2804.67 501.309  23
  -1   8  -4 1807.61 359.093  23
   2  -8  -5 1681.48 348.407  13
   2  -8  -5 2590.66 401.318  20
   2  -8  -4 827.118 283.953  13
   2  -8  -4 1161.82 342.041  20
   2  -8  -3 3821.29 572.924  20
   2  -8  -2 2964.57 523.507  20
   2  -8  -1 56.9763 175.951  30
   2  -8  -1 172.316 183.965  20
   2  -8   0 2505.07 515.532  30
   2  -8   0 1741.80 396.796  20
  -2  -8  -1 2926.18 475.682  20
   2  -8   1 3081.54 560.062  30
  -2  -8  -2 2362.80 433.103  20
   2  -8   2 2199.22 482.735  30
  -2  -8  -3 1519.21 358.385  20
   2  -8   3 1064.57 349.551  30
   2  -8   4 601.361 221.823  30
  -2  -8  -4 311.066 186.026  20
   2  -7  -8 3498.80 513.743  13
   2  -7  -7 1638.78 446.213  13
   2  -7  -7 838.884 321.803  20
   2  -7  -6 7360.03 907.955  13
   2  -7  -6 6660.39 837.302  20
   2  -7  -5-136.067 359.817  20
   2  -7  -4 8473.69 1013.95  20
   2  -7  -3 6386.14 910.209  20
   2  -7  -2 10098.0 1123.30  30
   2  -7  -2 11147.7 1219.75  20
   2  -7  -1 40861.3 2432.30  30
   2  -7  -1 39047.9 2398.42  20
   2  -7   0 1770.01 572.401  20
   2  -7   0 1235.35 457.836  30
  -2  -7   0 722.366 398.879  20
  -2  -7  -1 28497.2 1917.72  13
  -2  -7  -1 30251.8 2039.80  20
   2  -7   1 29822.8 2011.01  20
   2  -7   1 28561.7 2048.15  30
  -2  -7  -2 10066.8 1122.54  20
  -2  -7  -2 9204.49 1052.93  13
   2  -7   2 9366.24 1151.25  30
   2  -7   3 8047.52 1070.10  30
  -2  -7  -3 8506.72 1014.76  13
  -2  -7  -3 8472.49 1006.25  20
  -2  -7  -4 21361.7 1601.14  13
   2  -7   4 24297.3 1781.50  30
  -2  -7  -4 26559.0 1760.05  20
   2  -7   5 2019.40 549.556  30
  -2  -7  -5 2797.13 574.856  13
  -2  -7  -5 2901.86 574.318  20
  -2  -7  -6 6790.25 800.339  20
   2  -7   6 7008.64 839.878  30
  -2  -7  -6 7050.50 798.859  13
  -2  -7  -7 2831.04 426.090  20
  -2  -7  -7 2305.88 418.679  13
   2  -6 -10 5199.88 706.914  19
   2  -6  -9 6447.30 846.950  13
   2  -6  -9 8174.18 984.029  19
   2  -6  -8 11713.5 1140.22  20
   2  -6  -8 13991.8 1354.03  19
   2  -6  -8 13185.8 1320.09  13
   2  -6  -7 8096.35 1002.58  20
   2  -6  -7 8783.94 1128.48  13
   2  -6  -7 10112.3 1198.28  19
   2  -6  -7 8917.55 1055.36   9
  -2  -6   6 223.329 307.060  30
   2  -6  -6 277.815 373.104  20
   2  -6  -6 322.294 359.561   9
   2  -6  -5 7073.92 974.304  20
   2  -6  -5 8795.68 1179.75   9
  -2  -6   5 8040.25 1137.14  30
   2  -6  -4 4263.02 838.692   9
   2  -6  -4 4940.41 831.492  20
  -2  -6   4 5892.34 963.291  30
   2  -6  -3 3379.55 732.803   9
  -2  -6   3 2142.78 577.437  30
   2  -6  -2 9122.24 1170.36  30
  -2  -6   2 9101.66 1155.22  30
  -2  -6   1 1063.28 527.877  20
   2  -6  -1 595.996 400.930  30
  -2  -6   1 418.225 347.921  30
   2  -6   0 20287.5 1769.16  30
  -2  -6   0 19641.2 1753.42  20
  -2  -6   0 21023.7 1769.40  30
  -2  -6  -1 27502.1 2079.46  20
   2  -6   1 27168.5 2077.02  30
  -2  -6  -2 923.422 416.031  20
  -2  -6  -2 416.895 311.220  17
  -2  -6  -3 39890.6 2445.53  20
  -2  -6  -3 40324.8 2505.58  13
  -2  -6  -3 34497.8 2424.84  17
   2  -6   3 40076.7 2579.66  30
  -2  -6  -4 452.375 451.154  13
   2  -6   4 365.070 389.560  30
  -2  -6  -4-84.3700 383.965  20
  -2  -6  -4 202.196 260.281  17
  -2  -6  -5 23398.1 1773.06  20
   2  -6   5 21020.7 1844.63  30
  -2  -6  -5 19843.1 1706.33  17
  -2  -6  -5 19618.6 1681.69  13
  -2  -6  -6 10665.5 1176.60  13
  -2  -6  -6 11201.5 1171.14  20
   2  -6   6 10712.2 1275.02  30
  -2  -6  -6 10185.2 1158.07  17
  -2  -6  -7 6957.37 918.097  13
  -2  -6  -7 7970.85 957.621  20
  -2  -6  -7 7689.40 940.004  17
   2  -6   7 7124.10 982.436  30
  -2  -6  -8 6895.58 830.802  17
  -2  -6  -8 7474.77 821.360  20
  -2  -6  -8 8892.61 942.499  13
  -2  -6  -9 519.411 228.077  13
  -2  -6  -9 547.829 201.481  17
   2  -5 -12 886.695 295.801  19
   2  -5 -11 6684.90 848.037  19
   2  -5 -10 1383.29 474.992  19
   2  -5  -9 6368.68 992.897  19
   2  -5  -9 6612.48 1018.83  13
   2  -5  -8 31066.1 2278.30  19
   2  -5  -8 27887.6 2049.52   9
   2  -5  -8 30154.6 2258.04  13
   2  -5  -7 19866.2 1762.56   9
   2  -5  -7 15806.6 1514.70  20
   2  -5  -7 19923.6 1844.89  19
   2  -5  -6 81048.0 3801.45  20
   2  -5  -6 88284.8 4287.87  19
   2  -5  -5 70884.4 3544.77   9
  -2  -5   5 66712.8 3554.73  30
   2  -5  -5 64231.1 3570.27  19
  -2  -5   4 28128.3 2143.26  30
   2  -5  -4 31881.3 2247.86   9
  -2  -5   3 56542.4 3493.31  25
   2  -5  -3 54178.6 3822.61   5
   2  -5  -3 58172.6 3919.12  28
  -2  -5   3 63497.1 3239.78  30
  -2  -5   2 3222.10 868.684  29
   2  -5  -2 3221.27 925.195  28
   2  -5  -2 2374.45 677.746   2
   2  -5  -2 3068.74 685.628   9
  -2  -5   2 3659.46 935.878  28
   2  -5  -2 2682.62 871.604   5
  -2  -5   2 2137.57 582.757  30
  -2  -5   2 2397.46 642.729  25
  -2  -5   1 164676. 6725.16  29
   2  -5  -1 143595. 6242.73   2
   2  -5  -1 142251. 6615.58   5
   2  -5  -1 142193. 6607.32  28
  -2  -5   1 147048. 6489.03  28
   2  -5   0 46887.2 3539.39  28
   2  -5   0 44849.7 3433.88   5
   2  -5   0 46605.9 3198.28   2
  -2  -5   0 50707.5 3442.90  28
  -2  -5  -1 96977.7 5016.27  28
   2  -5   1 96584.4 4951.58   2
   2  -5   1 96708.4 5395.92  28
  -2  -5  -1 96065.7 4071.53  30
  -2  -5  -1 94281.9 4080.51  20
   2  -5   1 98406.2 4274.39  30
   2  -5   2 79087.2 4481.69   2
   2  -5   2 74202.4 3618.84  30
  -2  -5  -2 68744.3 3341.41  20
  -2  -5  -2 73407.4 3798.08  17
   2  -5   3 31678.5 2291.01  30
  -2  -5  -3 33551.0 2447.89  17
  -2  -5  -3 33809.3 2164.71  20
  -2  -5  -4 50797.8 3020.85  19
  -2  -5  -4 44426.8 2552.73  20
  -2  -5  -4 39428.7 2530.25  13
   2  -5   4 44283.6 2832.68  30
  -2  -5  -4 44365.4 2859.89  17
   2  -5   5 2104.30 679.459  30
  -2  -5  -5 4384.59 901.135  13
  -2  -5  -5 1960.97 536.490  20
  -2  -5  -5 2351.02 695.039  19
  -2  -5  -5 2584.47 666.392  17
   2  -5   6 37033.5 2666.02  30
  -2  -5  -6 35897.8 2299.11  20
  -2  -5  -6 40857.8 2642.57  19
  -2  -5  -6 36040.6 2517.53  17
  -2  -5  -6 37331.1 2413.10  13
  -2  -5  -7 8922.19 1091.80  20
  -2  -5  -7 8103.53 1083.50  13
   2  -5   7 8628.48 1248.41  30
  -2  -5  -7 7277.53 1106.18  17
  -2  -5  -8 22761.6 1691.62  20
  -2  -5  -8 22618.3 1752.80  13
  -2  -5  -8 22075.7 1826.59  17
  -2  -5  -9 5175.65 782.716  13
  -2  -5  -9 4409.74 764.020  17
  -2  -5 -10 2640.10 538.680  17
  -2  -5 -10 3029.74 574.255  13
  -2  -5 -11 3159.23 458.554  13
   2  -4 -13 4733.09 626.130  19
   2  -4 -12 13671.3 1266.89  19
   2  -4 -11 1182.11 523.192  19
   2  -4 -10 10640.7 1310.80  19
   2  -4  -9 24079.5 2009.75  19
   2  -4  -9 30401.2 2314.00  14
   2  -4  -8 106229. 4778.14  14
   2  -4  -8 96942.8 4300.99   9
   2  -4  -8 99055.2 4453.86  19
   2  -4  -8 92515.5 4428.74  13
   2  -4  -7 89649.7 4046.04   9
   2  -4  -7 90165.0 4200.29  19
   2  -4  -6 15554.3 1458.92   9
  -2  -4   6 14266.1 1856.20  29
  -2  -4   6 15344.8 1783.65  25
   2  -4  -6 12785.6 1420.20  19
   2  -4  -6 13673.2 1832.56   5
   2  -4  -6 14497.6 1751.10   1
  -2  -4   5 143337. 5941.66  25
  -2  -4   5 135548. 6060.16  29
   2  -4  -5 128087. 6027.58   5
   2  -4  -4 39374.4 2641.25   2
  -2  -4   4 51004.7 3201.79  29
   2  -4  -4 43951.0 3085.67  28
  -2  -4   4 46843.4 2931.37  25
   2  -4  -4 44800.3 3138.44   5
   2  -4  -3 159376. 6570.60   5
  -2  -4   3 161974. 6070.28  25
  -2  -4   3 154997. 6108.25  28
   2  -4  -3 158423. 6467.76  28
   2  -4  -3 154580. 6054.85   2
  -2  -4   2 161511. 6090.63  29
   2  -4  -2 153922. 6239.45  28
  -2  -4   2 153332. 5652.48  25
   2  -4  -2 153219. 5869.52   2
   2  -4  -2 146305. 6197.41   5
  -2  -4   2 148802. 5864.82  28
   2  -4  -1 130391. 5565.54  28
  -2  -4   1 119890. 5062.78  28
   2  -4  -1 112431. 5255.85   5
   2  -4  -1 120657. 5098.90   2
  -2  -4   1 122780. 4729.14  25
  -2  -4   1 132512. 5320.89  29
   2  -4   0 238574. 8042.38   2
  -2  -4   0 224038. 7423.03  25
  -2  -4   0 235962. 8060.99  28
   2  -4   1 72901.3 3518.89  25
   2  -4   1 80524.7 4009.80   2
  -2  -4  -1 75701.9 3824.53  28
   2  -4   2 1776.13 667.867   2
   2  -4   2 3082.19 691.928  25
  -2  -4  -2 3996.72 835.242   6
  -2  -4  -2 3325.79 847.572  28
  -2  -4  -3 92975.2 4504.79  28
   2  -4   3 90663.1 4350.25  25
   2  -4   3 94084.8 4747.76   2
  -2  -4  -3 89342.7 4202.47   5
  -2  -4  -3 83701.9 4212.28   6
   2  -4   4 14290.8 1813.82   2
  -2  -4  -4 15401.1 1734.71  28
   2  -4   4 14200.2 1652.41  25
   2  -4   4 15200.9 1940.46  29
  -2  -4  -4 9614.95 1375.17   6
  -2  -4  -4 12558.9 1511.31   5
   2  -4   5 39354.2 3309.81  29
  -2  -4  -5 30299.0 2531.81   5
  -2  -4  -5 33286.2 2727.30  28
  -2  -4  -5 29450.4 2063.19  13
  -2  -4  -5 31287.4 2024.88  20
  -2  -4  -5 26282.1 2383.46   6
  -2  -4  -5 37214.7 2414.06  19
   2  -4   5 28312.1 2246.09  30
  -2  -4  -5 35405.2 2432.80  17
   2  -4   5 31091.5 2665.77  25
  -2  -4  -6 42161.5 2473.57  20
  -2  -4  -6 47994.4 2815.02  19
  -2  -4  -6 42317.8 2556.43  13
  -2  -4  -6 46665.8 2874.86  17
   2  -4   6 43370.0 2939.11  30
  -2  -4  -7 2726.35 662.926  20
  -2  -4  -7 1329.65 470.290  13
  -2  -4  -7 3128.90 699.915  19
  -2  -4  -8 24186.2 1894.73  13
  -2  -4  -8 27386.3 2050.30  19
  -2  -4  -8 25468.7 2065.90  17
  -2  -4  -9 19520.6 1635.92  13
  -2  -4  -9 19096.4 1728.10  17
  -2  -4 -10 9533.90 1078.15  13
  -2  -4 -10 10605.2 1243.32  17
  -2  -4 -11 6315.23 845.869  17
  -2  -4 -11 6580.77 829.705  13
  -2  -4 -12 816.696 278.668  13
   2  -3 -13 5219.14 750.395  14
   2  -3 -13 5558.32 744.682  16
   2  -3 -13 5607.13 778.539  19
   2  -3 -12 4406.54 746.488  16
   2  -3 -12 5012.89 795.941  19
   2  -3 -12 5996.86 926.052  14
   2  -3 -11 8240.88 1072.63  16
   2  -3 -11 9993.38 1249.99  19
   2  -3 -11 10419.2 1275.12  14
   2  -3 -10 5870.35 1016.09  14
   2  -3 -10 5280.78 945.118  19
   2  -3  -9 10178.1 1287.38  14
   2  -3  -9 9616.56 1201.86  19
   2  -3  -8 33341.7 2246.38   9
   2  -3  -8 38886.1 2522.65  14
   2  -3  -8 36657.4 2400.34  19
  -2  -3   8 35404.3 2855.42  27
  -2  -3   7 7296.42 1371.82  29
  -2  -3   7 9323.69 1336.56  25
   2  -3  -7 6782.96 1195.85   1
  -2  -3   7 8324.88 1272.13  27
   2  -3  -7 7804.19 1329.71   5
   2  -3  -6 107851. 4645.54   6
  -2  -3   6 122392. 5121.64  27
   2  -3  -6 111829. 5137.21   1
   2  -3  -6 128266. 5576.73   5
  -2  -3   6 128767. 5344.64  25
  -2  -3   6 134087. 5828.90  29
   2  -3  -5 52333.0 3140.76   5
  -2  -3   5 52726.7 2964.35  25
   2  -3  -5 44109.9 2765.80   1
   2  -3  -5 47998.8 2548.79   6
  -2  -3   5 58680.5 3363.45  29
  -2  -3   5 55485.5 2916.42  27
  -2  -3   4 161229. 5529.80  27
  -2  -3   4 161439. 5690.03  25
   2  -3  -4 157336. 5724.44   1
   2  -3  -4 148394. 5395.76   2
   2  -3  -4 155127. 5792.55  28
  -2  -3   4 175639. 6188.03  29
  -2  -3   4 149028. 5437.65  28
   2  -3  -4 163863. 6089.95   5
  -2  -3   3 19901.1 1578.07  25
   2  -3  -3 20831.8 1588.67   2
   2  -3  -3 20249.9 1673.69  28
   2  -3  -3 19193.5 1540.55   1
  -2  -3   3 23044.9 1638.32  28
  -2  -3   3 22220.2 1743.89  29
   2  -3  -3 21122.4 1791.67   5
  -2  -3   3 26127.9 1642.51  27
  -2  -3   2 177122. 5888.24  28
   2  -3  -2 183991. 6321.71  28
  -2  -3   2 188661. 5881.59  25
   2  -3  -2 185194. 6428.48   5
  -2  -3   2 183333. 5589.78  27
   2  -3  -2 168748. 5757.15   1
  -2  -3   2 186196. 6156.00  29
   2  -3  -2 176262. 5989.02   2
  -2  -3   1 463303. 12505.2  27
   2  -3  -1 490348. 13331.6   2
  -2  -3   1 497108. 13183.0  28
  -2  -3   1 519608. 13409.4  29
  -2  -3   1 497977. 12894.1  25
   2  -3  -1 493013. 12907.0   1
  -2  -3   0 20992.3 1392.33  25
   2  -3   0 20369.6 1583.99   2
  -2  -3   0 23746.1 1707.88  29
  -2  -3   0 20974.7 1560.10  28
   2  -3   0 23075.8 1465.66  29
  -2  -3   0 18625.6 1230.62   5
   2  -3   0 18430.4 1300.25   1
   2  -3   1 558993. 14510.5  29
  -2  -3  -1 568454. 14612.6  28
   2  -3   1 530514. 14719.7   2
  -2  -3  -1 511797. 13945.6   5
  -2  -3  -1 565142. 14157.1  25
   2  -3   2 172977. 6011.71  29
  -2  -3  -2 171328. 5873.75  28
   2  -3   2 167178. 5995.41   2
  -2  -3  -2 166922. 5481.75  25
  -2  -3  -2 159683. 5470.13   5
  -2  -3  -3 110714. 4574.74  28
   2  -3   3 115527. 4904.47  29
   2  -3   3 119542. 5003.91   4
  -2  -3  -3 114323. 4613.02  24
  -2  -3  -3 112579. 4420.27   5
   2  -3   3 113047. 4832.32   2
  -2  -3  -3 109978. 4710.39   6
   2  -3   4 231865. 8209.37  29
   2  -3   4 234293. 8094.82   4
  -2  -3  -4 220416. 7576.25  28
   2  -3   4 220348. 7761.15   2
  -2  -3  -4 223764. 7856.78   6
  -2  -3  -4 226958. 7511.59   5
  -2  -3  -4 215284. 7477.61  24
  -2  -3  -5 16508.1 1713.42  28
   2  -3   5 19670.0 1961.71   4
  -2  -3  -5 15998.5 1780.01   6
  -2  -3  -5 16459.1 1661.89   5
   2  -3   5 20095.7 2134.55  29
   2  -3   6 79192.3 4700.87  29
  -2  -3  -6 80504.7 4290.85  28
  -2  -3  -6 83534.6 4325.24   5
   2  -3   6 75612.5 4362.44   4
  -2  -3  -6 74468.9 4241.48   6
  -2  -3  -7 43756.6 2521.00  13
   2  -3   7 40000.1 3470.04  29
  -2  -3  -7 39601.7 2580.45  17
  -2  -3  -7 40193.8 2577.44  16
  -2  -3  -8 12470.3 1309.96  13
  -2  -3  -8 15551.1 1490.75  19
  -2  -3  -8 11065.6 1328.63  16
  -2  -3  -8 11711.9 1380.09  17
  -2  -3  -9 19500.4 1666.37  13
  -2  -3  -9 20080.4 1702.29  19
  -2  -3  -9 18677.0 1770.15  17
  -2  -3  -9 18961.4 1741.87  16
  -2  -3 -10 496.383 344.668  13
  -2  -3 -10 1045.95 401.177  17
  -2  -3 -10 260.703 351.017  16
  -2  -3 -11 5885.84 850.132  13
  -2  -3 -11 6400.56 903.218  16
  -2  -3 -11 4579.48 800.632  17
  -2  -3 -12 5172.29 694.535  13
  -2  -3 -12 4937.48 697.111  16
  -2  -3 -13 1646.43 324.918  16
   2  -2 -14 4871.84 708.766  14
   2  -2 -14 5615.67 739.522  16
   2  -2 -13 19584.1 1610.53  16
   2  -2 -13 17471.2 1533.47  14
   2  -2 -12 21515.5 1783.41  16
   2  -2 -12 20362.2 1725.77  19
   2  -2 -12 17944.7 1661.52  14
   2  -2 -11 4129.02 821.536  19
   2  -2 -11 3793.35 783.669  16
   2  -2 -11 3124.70 671.717  14
   2  -2 -10 110167. 4753.00  19
   2  -2 -10 113220. 4782.44  14
   2  -2 -10 112731. 4727.68  16
   2  -2  -9 16359.9 1666.71  22
   2  -2  -9 14699.0 1883.73   5
   2  -2  -9 16726.1 1566.49  14
   2  -2  -9 15572.6 1515.07  19
   2  -2  -9 13368.0 1391.39  17
   2  -2  -9 13965.7 1399.22  16
  -2  -2   8 174329. 6871.66  27
  -2  -2   8 172677. 6859.16  25
  -2  -2   8 154873. 7048.67  29
   2  -2  -8 163986. 6773.61   1
   2  -2  -8 166082. 6917.97   5
   2  -2  -7 131844. 5596.39   1
  -2  -2   7 154280. 5874.63  25
  -2  -2   7 138636. 6064.26  29
  -2  -2   7 146090. 5734.94  27
   2  -2  -7 127565. 5346.88   6
   2  -2  -7 154046. 6044.73   5
  -2  -2   6 27975.2 2221.78  29
   2  -2  -6 29025.7 2152.10   5
  -2  -2   6 30167.6 2058.58  27
   2  -2  -6 25320.7 1814.31   6
  -2  -2   6 29897.2 2088.40  25
   2  -2  -6 26178.4 1980.91   1
   2  -2  -5 361440. 10141.4   5
   2  -2  -5 325226. 9461.17   6
  -2  -2   5 333410. 9756.75  25
  -2  -2   5 342609. 9750.51  27
   2  -2  -5 348165. 9999.55   1
  -2  -2   5 335123. 10250.4  29
  -2  -2   4 39438.0 2272.64  29
   2  -2  -4 35384.0 1883.37  28
  -2  -2   4 38213.5 1987.06  27
   2  -2  -4 34435.0 1809.87   2
  -2  -2   4 31959.6 1692.61  28
   2  -2  -4 32830.0 1753.57   6
  -2  -2   4 34952.6 1951.72  25
   2  -2  -4 31514.7 1915.42   1
   2  -2  -4 34404.6 2073.35   5
  -2  -2   3 373083. 10591.6  28
  -2  -2   3 408549. 10884.8  27
  -2  -2   3 391734. 10929.9  25
   2  -2  -3 464823. 11189.8  28
   2  -2  -3 441040. 11057.2   2
   2  -2  -3 436637. 11275.1   1
  -2  -2   3 381554. 11216.9  29
   2  -2  -3 457070. 11625.0   5
  -2  -2   2 515474. 14016.7  29
  -2  -2   2 518552. 13660.5  28
   2  -2  -2 563771. 14084.2   1
  -2  -2   2 560988. 13870.5  25
  -2  -2   2 536670. 13742.7  27
   2  -2  -1 183689. 5097.04  29
  -2  -2   1 207901. 5609.39  27
  -2  -2   1 196727. 5706.61  28
  -2  -2   1 212121. 5728.20  25
  -2  -2   1 206015. 5965.66  29
  -2  -2   1 187380. 4978.99   5
   2  -2  -1 218853. 6031.91   2
  -2  -2   0 429959. 10794.0  25
   2  -2   0 445585. 10721.8  29
  -2  -2   0 381170. 10632.7  27
   2  -2   0 448244. 11329.9   4
  -2  -2   0 423290. 11137.6  29
  -2  -2   0 426174. 10434.9   5
   2  -2   0 396093. 11039.9   2
  -2  -2   0 424267. 10978.8  28
  -2  -2  -1 476835. 11737.6   5
  -2  -2  -1 473272. 12094.3  28
   2  -2   1 443580. 12179.5   4
   2  -2   1 459004. 11869.1  29
   2  -2   1 450863. 12156.8   2
  -2  -2  -1 481484. 11882.3  25
  -2  -2  -1 452318. 11794.5  27
  -2  -2  -2 126535. 4352.25  28
   2  -2   2 119791. 4439.57   4
  -2  -2  -2 131574. 4236.47  25
  -2  -2  -2 128318. 4227.60   5
   2  -2   2 126685. 4298.10  29
   2  -2   2 129796. 4527.89   2
   2  -2   3 566359. 14701.4  29
   2  -2   3 541742. 14870.9   4
  -2  -2  -3 539646. 14984.8   6
   2  -2   3 542558. 14744.1   2
  -2  -2  -3 549576. 14647.2  24
  -2  -2  -3 561866. 14597.5  28
  -2  -2  -3 597298. 14614.4   5
   2  -2   4 23573.1 1780.65  29
  -2  -2  -4 26311.1 1812.97  28
   2  -2   4 24917.5 1883.70   4
  -2  -2  -4 22713.5 1674.02  24
   2  -2   4 22579.4 1734.65   2
  -2  -2  -4 23345.3 1852.38   6
  -2  -2  -4 24338.4 1728.58   5
   2  -2   5 104317. 4509.17  29
  -2  -2  -5 101228. 4313.86  28
  -2  -2  -5 93508.4 4034.46  24
   2  -2   5 100958. 4504.57   4
  -2  -2  -5 97594.1 4447.73   6
  -2  -2  -5 111348. 4466.18   5
  -2  -2  -6 237250. 8015.02  28
   2  -2   6 219444. 8003.71   4
   2  -2   6 232362. 8172.71  29
  -2  -2  -6 224059. 8022.98   6
   2  -2   7 3657.16 945.606  29
  -2  -2  -7 4516.36 936.530   6
  -2  -2  -8 48926.2 2685.04  13
  -2  -2  -8 48714.8 2869.92  16
  -2  -2  -8 54265.8 2837.88  19
  -2  -2  -8 48392.8 2885.40  17
  -2  -2  -9 7271.39 987.786  13
  -2  -2  -9 5593.56 918.002  16
  -2  -2  -9 6732.58 953.098  19
  -2  -2  -9 6699.70 1057.36  17
  -2  -2 -10 7126.63 961.851  13
  -2  -2 -10 7338.74 1079.24  16
  -2  -2 -10 6860.91 1066.99  17
  -2  -2 -11 6347.38 974.213  16
  -2  -2 -11 6529.41 923.110  13
  -2  -2 -11 5628.86 923.221  17
  -2  -2 -12 556.899 286.592  13
  -2  -2 -12 478.500 318.766  16
  -2  -2 -13 299.836 194.324  13
  -2  -2 -13 1031.31 335.173  16
   2  -1 -15 841.422 286.989  14
   2  -1 -14 2153.15 533.161  16
   2  -1 -14 1751.03 489.593  14
   2  -1 -13 2818.24 682.426  14
   2  -1 -13 4315.26 781.831  16
   2  -1 -12 1664.86 562.314  14
   2  -1 -12 3008.30 732.242  16
   2  -1 -11 10687.1 1314.19  16
   2  -1 -11 9704.33 1328.59  22
   2  -1 -11 10224.6 1282.53  14
   2  -1 -10 10451.5 1325.89  22
   2  -1 -10 10107.7 1212.24  14
   2  -1 -10 11993.9 1319.35  16
  -2  -1   9 47700.3 3315.61  27
  -2  -1   9 40355.5 3237.72  29
   2  -1  -9 38507.2 2904.86   1
  -2  -1   8 131931. 5994.30  29
   2  -1  -8 147032. 5961.52   5
   2  -1  -8 136967. 5812.76   1
  -2  -1   8 155263. 6094.77  27
   2  -1  -7 17488.6 1627.13   1
  -2  -1   7 20048.9 1709.43  27
  -2  -1   7 17905.3 1562.70  25
   2  -1  -7 22012.8 1877.09   8
  -2  -1   7 17515.8 1693.13  29
   2  -1  -7 19037.5 1717.33   5
  -2  -1   6 298644. 9089.77  29
  -2  -1   6 312154. 8771.91  25
   2  -1  -6 299081. 8908.74   5
   2  -1  -6 297485. 9061.38   8
  -2  -1   6 301591. 8833.74  27
   2  -1  -6 271820. 8837.46   1
   2  -1  -6 301108. 8728.29   6
  -2  -1   5 70538.3 3111.44  29
  -2  -1   5 73245.0 2923.47  25
  -2  -1   5 69762.8 2924.57  27
   2  -1  -5 79853.8 3266.01   8
   2  -1  -5 68593.3 2850.44   6
   2  -1  -5 70993.0 3005.05   5
   2  -1  -4 354846. 9279.84   1
  -2  -1   4 324694. 9219.08  29
  -2  -1   4 337466. 9005.23  27
  -2  -1   4 337159. 8968.28  25
   2  -1  -4 352924. 9133.70   5
   2  -1  -4 356152. 8716.99   2
   2  -1  -3 386222. 9848.80   1
   2  -1  -3 393080. 9117.58  28
  -2  -1   3 377607. 9573.05  27
  -2  -1   3 364733. 9515.15  25
  -2  -1   3 321398. 8752.61  28
   2  -1  -3 419215. 9824.13   5
  -2  -1   3 347149. 9688.54  29
   2  -1  -3 410856. 9556.69   2
  -2  -1   2 492377. 12085.7  27
  -2  -1   2 488316. 12190.1  29
  -2  -1   2 452114. 11587.9  28
  -2  -1   1 882431. 20843.2  27
  -2  -1   1 818809. 20865.7  29
  -2  -1   1 858968. 20647.0  28
   2  -1   0 239633. 5755.24  29
  -2  -1   0 218844. 5660.19   7
  -2  -1   0 232080. 6299.06  27
  -2  -1  -1 915116. 21328.3  27
  -2  -1  -1 891962. 21239.7  25
  -2  -1  -1 884381. 21288.8  28
   2  -1   1 856371. 21344.9   2
  -2  -1  -2 204507. 5899.18  28
  -2  -1  -2 204685. 5962.79  24
   2  -1   2 201221. 6010.94   4
   2  -1   2 198195. 5864.08   2
  -2  -1  -3 135235. 4431.02  24
   2  -1   3 128875. 4536.40   4
   2  -1   3 132815. 4360.48   2
  -2  -1  -3 128844. 4377.60  28
  -2  -1  -4 579180. 14905.7  24
  -2  -1  -4 581620. 14994.3  28
   2  -1   4 598621. 15291.3   4
   2  -1   4 543836. 14685.9   2
  -2  -1  -4 590958. 15302.5   6
  -2  -1  -5 120778. 4742.05   6
  -2  -1  -5 117473. 4414.07  24
   2  -1   6 206513. 7152.09  29
  -2  -1  -6 196978. 6693.21  24
   2  -1   6 213608. 7300.99   4
  -2  -1  -6 203047. 7090.23   6
   2  -1   7 43264.0 2905.70   4
   2  -1   7 46480.8 3025.81  29
  -2  -1  -7 39106.5 2741.74   6
   2  -1   8 9213.78 1419.05  29
  -2  -1  -8 8928.16 1344.85   6
  -2  -1  -9 17879.9 1653.10  16
  -2  -1  -9 20260.8 1636.13  13
  -2  -1  -9 19067.0 1769.60  17
  -2  -1 -10 6458.72 984.075  14
  -2  -1 -10 8832.24 1209.15  17
  -2  -1 -10 9256.78 1106.92  13
  -2  -1 -10 7714.29 1111.22  16
  -2  -1 -11 14184.8 1392.25  14
  -2  -1 -11 16972.4 1467.58  13
  -2  -1 -11 14817.7 1491.16  16
  -2  -1 -12 8110.68 936.329  13
  -2  -1 -12 8503.75 1075.29  16
  -2  -1 -13 1839.22 427.197  13
  -2  -1 -13 2397.94 526.515  16
  -2  -1 -14 441.908 226.155  16
   2   0 -15 2667.97 468.248  14
   2   0 -14 421.661 379.783  14
   2   0 -14-189.848 271.358  16
   2   0 -13 10718.0 1287.45  14
   2   0 -13 10660.7 1172.78  16
   2   0 -12 11496.7 1391.20  14
   2   0 -12 15145.0 1620.10  22
   2   0 -12 14715.1 1466.54  16
   2   0 -11 5395.90 881.232  16
   2   0 -11 6552.03 1067.37  14
   2   0 -11 4533.90 930.616  22
   2   0 -10 89440.0 4209.87  22
   2   0 -10 89538.4 4107.95  14
   2   0 -10 89162.1 3957.04  16
  -2   0   9 22899.5 2165.75  27
   2   0  -9 19462.9 2007.74   8
   2   0  -9 20237.2 1993.30   1
  -2   0   8 84888.9 4146.62  27
   2   0  -8 90458.8 4324.49   8
  -2   0   8 88362.8 4301.33  29
   2   0  -8 82029.4 4043.78   1
  -2   0   7 203973. 6743.99  29
   2   0  -7 192942. 6763.21   8
  -2   0   7 204327. 6721.22  27
  -2   0   6 162662. 5451.65  27
  -2   0   6 160673. 5388.25  29
  -2   0   6 165446. 5067.01  25
   2   0  -6 152961. 5532.62   8
   2   0  -6 153072. 5351.67   1
   2   0  -6 172692. 5391.13   5
  -2   0   5 360306. 9681.32  27
  -2   0   5 379253. 9414.18  25
   2   0  -5 336953. 9845.96   8
  -2   0   5 358100. 9597.48  29
   2   0  -5 365978. 9756.85   1
   2   0  -5 336952. 9451.44   5
  -2   0   4 267751. 7157.42  29
  -2   0   4 280648. 7059.94  25
   2   0  -4 264507. 7453.20   8
   2   0  -4 256641. 7013.27   2
   2   0  -4 249686. 6990.77   5
   2   0  -4 264139. 7387.72   1
  -2   0   4 266990. 7278.43  27
  -2   0   3 224287. 6076.07  29
  -2   0   3 235064. 6056.88  25
  -2   0   3 235694. 6285.91  27
   2   0  -3 237850. 6298.07   2
   2   0  -3 242274. 6450.08   1
  -2   0   2 615006. 15718.2  25
   2   0  -2 625186. 15566.4   5
  -2   0   2 643463. 15604.4  29
  -2   0   1 1359.50 226.445   7
  -2   0   1 959.418 208.165  25
   2   0  -1 1183.48 209.927   4
   2   0   0 182143. 4868.36   4
   2   0   0 187836. 5017.24  26
   2   0   1 612993. 14928.3  26
   2   0   1 610940. 15098.0   2
  -2   0  -1 621241. 14637.1   7
  -2   0  -2 428120. 10229.1   7
   2   0   2 426139. 10520.0   2
  -2   0  -3 246460. 6708.08  24
   2   0   3 219417. 6168.06  26
   2   0   3 246801. 6585.40   2
  -2   0  -3 232081. 6221.92   8
  -2   0  -3 221696. 6689.64   6
   2   0   3 250104. 6888.52   4
  -2   0  -4 21042.6 1375.18  24
   2   0   4 17528.9 1016.14  26
   2   0   4 20126.0 1440.11   4
  -2   0  -4 17677.1 1335.23   6
   2   0   4 19961.3 1205.31   2
  -2   0  -4 19616.9 1193.40   8
  -2   0  -5 152528. 5087.57  24
   2   0   5 153557. 5310.51   4
  -2   0  -5 147037. 4789.46   8
  -2   0  -5 136209. 5013.74   6
  -2   0  -6 49038.2 2618.20  24
   2   0   6 52325.1 2860.37   4
  -2   0  -6 46043.9 2656.61   6
  -2   0  -7 681.402 417.118  24
   2   0   7-198.961 356.160   4
  -2   0  -7 497.757 395.993   6
  -2   0  -8 5450.22 970.339   6
  -2   0  -9 2724.42 638.563  14
  -2   0  -9 4159.83 714.078  13
  -2   0  -9 3277.99 732.299  16
  -2   0  -9 2824.51 711.462  17
  -2   0 -10 17444.2 1651.51  14
  -2   0 -10 18930.5 1571.37  13
  -2   0 -10 17109.8 1641.87  16
  -2   0 -11 363.058 318.883  16
  -2   0 -11 293.773 258.251  13
  -2   0 -12 1286.29 470.624  13
  -2   0 -12 1246.07 437.465  16
  -2   0 -12 485.610 247.425  14
  -2   0 -13 9773.73 892.040  13
  -2   0 -13 8870.77 944.899  14
  -2   0 -14 3.30507 149.992  16
   2   1 -15 1084.97 302.896  14
   2   1 -14 2721.12 602.736  14
   2   1 -14 2571.89 523.580  16
   2   1 -13 4475.89 826.326  14
   2   1 -13 4371.98 772.512  16
   2   1 -12 3742.20 831.781  14
   2   1 -12 2076.34 597.913  16
   2   1 -11 7854.57 1187.01  22
   2   1 -11 9818.34 1305.17  14
   2   1 -11 9798.83 1220.44  16
   2   1 -10 10387.9 1303.54  14
   2   1 -10 7618.14 1044.31   9
   2   1 -10 7596.78 1082.48  22
   2   1 -10 10803.0 1233.11  16
   2   1  -9 48202.1 3432.99   8
  -2   1   9 48847.7 3160.86   7
  -2   1   8 127341. 5214.11  27
   2   1  -8 129449. 5693.19   8
  -2   1   7 19816.1 1599.85  27
   2   1  -7 19960.7 1833.18   8
   2   1  -7 18569.5 1542.68   1
  -2   1   6 327284. 8931.32  29
   2   1  -6 290977. 8832.26   1
  -2   1   6 342845. 9186.58  27
   2   1  -6 309862. 9519.24   8
   2   1  -5 63117.6 2634.18   1
  -2   1   5 63011.1 2484.71  29
  -2   1   5 68575.5 2739.41  27
   2   1  -4 314249. 8554.47   1
  -2   1   4 327889. 8241.94  29
  -2   1   4 348174. 8720.75  27
   2   1  -4 311765. 8964.49   8
  -2   1   4 317387. 7941.64  25
  -2   1   4 349606. 8851.96   7
  -2   1   3 377255. 9356.49  27
   2   1  -3 355755. 9318.71   1
  -2   1   3 363176. 8745.41  29
   2   1  -3 356495. 9640.08   8
  -2   1   3 383268. 9507.43   7
   2   1  -2 522562. 13198.5   8
   2   1  -2 547169. 13509.4  26
  -2   1   2 547140. 12957.8  27
  -2   1   2 522795. 12479.1  24
   2   1  -2 546384. 13458.6   3
   2   1  -1 878569. 21259.5   8
  -2   1   1 918860. 21294.8  27
  -2   1   1 903505. 21074.1  24
   2   1   0 229064. 5827.18   8
  -2   1   0 243526. 6323.72  27
  -2   1   0 238523. 6173.33  24
  -2   1  -1 944000. 21672.7   7
   2   1   1 929543. 21818.3  26
   2   1   1 911303. 21655.8   3
   2   1   2 245349. 6823.98  26
  -2   1  -2 257917. 6900.73   7
  -2   1  -2 242255. 6810.72  24
   2   1   2 252212. 6721.87   3
  -2   1  -2 249555. 6641.71   6
  -2   1  -3 131233. 4181.62   8
  -2   1  -3 130425. 4184.43   7
  -2   1  -3 122889. 4048.00  24
   2   1   3 117735. 3948.28  26
   2   1   3 121059. 3801.09   3
  -2   1  -3 115633. 3816.96   6
   2   1   4 628689. 15369.9   4
   2   1   4 586497. 14589.1   3
  -2   1  -4 591771. 15155.2   8
  -2   1  -4 608900. 15125.9  24
   2   1   4 540885. 14641.9   2
  -2   1  -4 574999. 14815.5   6
   2   1   4 612105. 14942.9  26
  -2   1  -5 141226. 4942.92  24
   2   1   5 135234. 4670.48  26
   2   1   5 154018. 5258.49   4
  -2   1  -5 137613. 4781.92   6
  -2   1  -5 138455. 5059.01   8
  -2   1  -6 214664. 6976.17  24
  -2   1  -6 209852. 7191.45   8
  -2   1  -6 200717. 6810.33   6
   2   1   6 226066. 7335.29   4
  -2   1  -7 49582.4 2872.02  24
   2   1   7 49917.9 3062.50   4
  -2   1  -7 46125.2 2765.69   6
   2   1   8 5610.33 1020.84   4
  -2   1  -8 6785.33 1091.25  24
  -2   1  -9 22316.6 1679.64  13
  -2   1  -9 20473.9 1820.62  14
  -2   1  -9 20043.8 1770.00  16
  -2   1 -10 8584.82 1148.15  16
  -2   1 -10 8572.19 1141.40  18
  -2   1 -10 8257.05 1173.88  14
  -2   1 -10 9685.11 1109.97  13
  -2   1 -11 14407.7 1503.28  14
  -2   1 -11 14839.4 1340.38  13
  -2   1 -11 15635.9 1518.11  16
  -2   1 -12 7467.63 1005.35  14
  -2   1 -12 7167.07 861.460  13
  -2   1 -12 7369.67 942.529  16
  -2   1 -13 1426.18 417.699  14
  -2   1 -13 2209.58 465.615  16
   2   2 -14 4667.28 667.341  14
   2   2 -13 16325.3 1490.24  14
   2   2 -12 17840.8 1694.65  14
   2   2 -12 21154.3 1735.03  16
   2   2 -11 1943.12 549.224   9
   2   2 -11 2869.34 719.622  16
   2   2 -11 1342.28 530.836  14
   2   2 -11 2861.99 660.995  18
   2   2 -10 96677.9 4602.58  14
   2   2 -10 105103. 4487.46  18
   2   2 -10 111468. 4647.26  16
   2   2  -9 10371.9 1315.39  14
  -2   2   9 8891.64 1381.42  26
   2   2  -9 10651.0 1191.95  18
   2   2  -9 12482.4 1314.13  16
   2   2  -8 152177. 6833.12   8
  -2   2   8 164449. 6253.28   7
   2   2  -7 132983. 5865.99   8
  -2   2   7 142483. 5416.10   7
   2   2  -6 31127.9 2314.70   8
  -2   2   6 35393.3 2151.58   7
   2   2  -5 324090. 10190.9   8
  -2   2   5 371008. 9906.37   7
   2   2  -4 23935.2 1704.08   8
  -2   2   4 27722.1 1631.72   7
  -2   2   3 418355. 10413.2  27
   2   2  -3 423815. 11519.4  26
   2   2  -3 403866. 11207.2   8
  -2   2   3 445525. 11137.6   7
   2   2  -3 422771. 11526.0   3
  -2   2   2 495842. 12208.1  27
   2   2  -2 533924. 13430.2  26
   2   2  -2 482883. 12827.9   8
  -2   2   2 522181. 12871.7   7
   2   2  -2 511074. 13202.6   3
  -2   2   1 197848. 5884.80   7
   2   2  -1 214822. 5794.51   8
  -2   2   1 193572. 5431.99  24
   2   2  -1 224476. 6389.70  26
   2   2  -1 214197. 6174.10   3
   2   2   0 458616. 11535.6  26
  -2   2   0 429724. 10861.0  24
   2   2   0 441416. 10620.5   8
  -2   2   0 414318. 11119.2   7
   2   2   0 422473. 11249.2   3
  -2   2  -1 508891. 12786.4   7
   2   2   1 501999. 12916.7  26
   2   2   1 492057. 12761.6   3
  -2   2  -1 493883. 12554.7  24
   2   2   2 148561. 4867.15  26
   2   2   2 152458. 4740.81   3
  -2   2  -2 159237. 4943.09   7
  -2   2  -2 147291. 4654.79  24
  -2   2  -2 139917. 4234.55   3
   2   2   3 568588. 14798.6  26
  -2   2  -3 600697. 15021.7   7
  -2   2  -3 596783. 15051.0   8
   2   2   3 576717. 14585.6   3
  -2   2  -4 23233.2 1618.37  24
  -2   2  -4 25672.8 1842.39   8
   2   2   4 22876.9 1530.13   3
  -2   2  -5 96303.0 4014.09  24
   2   2   5 97581.3 4061.26  26
  -2   2  -5 102979. 4436.63   8
   2   2   6 226940. 7766.01  26
  -2   2  -6 245048. 7937.35  24
  -2   2  -6 240233. 8458.59   8
  -2   2  -7 6350.05 1000.58  24
  -2   2  -7 5294.07 1033.04   8
   2   2   7 6842.69 1151.67   4
  -2   2  -8 47271.9 2607.53  15
   2   2   8 46755.4 3336.19   4
  -2   2  -8 54151.7 2725.81  13
  -2   2  -9 6375.29 1030.07  14
  -2   2  -9 6519.79 925.205  13
  -2   2  -9 6209.08 933.775  18
  -2   2 -10 5034.34 904.026  14
  -2   2 -10 4708.72 781.418  13
  -2   2 -10 5657.56 877.783  18
  -2   2 -11 5428.01 789.592  13
  -2   2 -11 4934.39 864.288  14
  -2   2 -11 6477.80 924.800  18
  -2   2 -12 43.9725 244.208  18
  -2   2 -12 543.838 287.839  14
  -2   2 -13 1088.39 370.814  14
   2   3 -13 4182.05 627.020  14
   2   3 -12 3609.04 671.122  14
   2   3 -12 5263.59 800.185  18
   2   3 -11 7730.59 1056.03  14
   2   3 -11 8491.92 1084.70  18
   2   3 -10 4556.83 829.234  11
   2   3 -10 4975.66 918.087  14
   2   3 -10 5723.21 888.640  18
   2   3  -9 4941.23 857.662  11
   2   3  -9 6779.36 971.336  18
   2   3  -8 37181.2 2436.95  11
   2   3  -8 41109.9 2398.63  18
  -2   3   7 5951.63 1014.99   3
  -2   3   7 7474.68 1162.22  26
   2   3  -7 8842.41 1443.33   8
  -2   3   6 118485. 4897.44   3
   2   3  -6 132334. 5770.60   8
  -2   3   6 119383. 4782.94   7
   2   3  -5 57227.8 3283.75   8
  -2   3   5 54721.7 2777.42   7
   2   3  -4 158635. 5931.37   3
   2   3  -4 144272. 5569.63   8
  -2   3   4 141954. 5068.43   7
   2   3  -4 152636. 5632.75  26
   2   3  -3 39835.9 2451.06  26
  -2   3   3 37794.6 2071.07   7
   2   3  -3 40927.4 2463.62   3
   2   3  -3 35073.1 2195.83   8
  -2   3   2 201222. 6190.62   7
   2   3  -2 205795. 6630.16   3
   2   3  -2 210724. 6734.32  26
  -2   3   1 501778. 12759.6   7
   2   3  -1 487385. 12991.5   3
   2   3  -1 505039. 13163.1  26
   2   3   0 22595.9 1638.19  26
  -2   3   0 19690.8 1303.43  26
  -2   3   0 21028.5 1489.53   7
   2   3   0 20042.6 1513.21   3
  -2   3   0 19837.9 1368.78   3
  -2   3  -1 525612. 14002.5   3
  -2   3  -1 572207. 14571.3   7
   2   3   1 548710. 14428.0   3
   2   3   1 552951. 14599.8  26
  -2   3  -2 139508. 4623.61   3
   2   3   2 146212. 5235.03  26
  -2   3  -2 158623. 5378.53   7
   2   3   2 142924. 5067.87   3
   2   3   3 98753.0 4159.87  26
  -2   3  -3 107124. 4310.92   7
  -2   3  -3 103180. 4349.11   8
   2   3   3 99648.7 4041.13   3
   2   3   4 214650. 7278.55  26
  -2   3  -4 232585. 7669.35   8
   2   3   4 209836. 7014.52   3
   2   3   5 11927.2 1353.19  26
  -2   3  -5 11487.0 1482.31   8
   2   3   5 13050.0 1347.51   3
   2   3   6 70637.4 3816.45  26
  -2   3  -6 75907.0 4306.32   8
  -2   3  -7 42289.2 2390.64  13
  -2   3  -7 38391.7 3176.87   8
  -2   3  -7 40962.2 2382.49  15
  -2   3  -7 40026.0 2458.47  12
  -2   3  -7 43150.6 2473.63  18
  -2   3  -8 11155.1 1174.58  13
  -2   3  -8 9861.86 1200.93  12
  -2   3  -8 10089.8 1141.61  15
  -2   3  -8 11375.4 1242.62  18
  -2   3  -9 20539.7 1630.72  13
  -2   3  -9 18669.3 1695.64  12
  -2   3  -9 20683.1 1863.13  14
  -2   3  -9 19198.1 1665.29  18
  -2   3 -10 223.633 348.260  14
  -2   3 -10 49.5913 333.835  18
  -2   3 -11 5155.72 856.205  14
  -2   3 -11 5452.34 833.038  18
  -2   3 -12 5408.17 757.247  14
  -2   3 -12 5373.35 723.678  18
  -2   3 -13 2129.16 405.909  14
   2   4 -12 13351.3 1166.18  18
   2   4 -11 1225.60 479.042  11
   2   4 -11 1123.15 451.424  18
   2   4 -10 9051.65 1142.92  11
   2   4 -10 10238.8 1169.71  18
   2   4  -9 27947.4 2091.67  11
   2   4  -9 28584.3 2032.31  18
   2   4  -8 102455. 4212.48  18
   2   4  -8 93765.7 4237.38  11
   2   4  -7 88111.7 4413.12  23
   2   4  -7 90896.3 4068.34  11
   2   4  -7 97020.2 4026.90  18
  -2   4   6 12408.9 1506.28  26
  -2   4   6 12152.0 1481.21   3
   2   4  -6 11377.3 1258.97  12
   2   4  -6 16392.3 1466.75  11
   2   4  -6 12835.5 1290.18  18
   2   4  -6 12615.9 1750.78   8
  -2   4   5 126160. 5328.26  26
   2   4  -5 122903. 5700.50   8
  -2   4   5 123645. 5193.90   3
  -2   4   4 48896.1 2859.74   3
  -2   4   4 49267.8 2925.09  26
   2   4  -4 48145.7 3117.30   8
   2   4  -4 52785.5 3380.90   3
  -2   4   3 157444. 5776.29  26
  -2   4   3 151587. 5562.74   7
   2   4  -3 162581. 6287.77   3
  -2   4   3 155124. 5721.89   3
   2   4  -3 168031. 6354.85  26
  -2   4   2 165624. 5914.98   3
  -2   4   2 162178. 5897.84  26
  -2   4   2 169585. 5935.40   7
   2   4  -2 168576. 6401.09  26
   2   4  -2 166836. 6288.12   3
  -2   4   1 133150. 5004.51   7
  -2   4   1 121573. 4749.40  26
   2   4  -1 123182. 5104.71   3
   2   4  -1 127981. 5214.22  26
  -2   4   1 127350. 4836.68   3
  -2   4   0 266919. 8157.99   7
  -2   4   0 234558. 7673.63   3
   2   4   0 242614. 8045.20   3
   2   4   0 248182. 8175.23  26
   2   4   1 89102.5 4089.22  26
  -2   4  -1 98713.7 4266.43   7
  -2   4  -1 83607.5 3703.30   3
   2   4   1 88516.9 4016.15   3
   2   4   2 860.412 440.121  26
  -2   4  -2 909.091 398.225   8
  -2   4  -2 1604.69 506.686   7
  -2   4  -3 96808.9 4590.94   8
   2   4   3 92213.7 4333.51  26
   2   4   3 94497.6 4339.72   3
  -2   4  -4 14392.3 1678.68   8
   2   4   4 17890.5 1774.16  26
   2   4   4 15290.8 1612.35   3
  -2   4  -5 29987.2 2627.73   8
  -2   4  -5 28890.4 1981.96  12
   2   4   5 30403.1 2463.76  26
  -2   4  -5 33717.9 2160.97  18
   2   4   5 27969.6 2313.80   3
  -2   4  -6 41510.2 2500.21  12
  -2   4  -6 43682.4 2566.09  18
  -2   4  -7 3656.56 737.181  12
  -2   4  -7 3544.62 705.032  18
  -2   4  -8 22471.9 1853.98  12
  -2   4  -8 23834.7 1856.25  18
  -2   4  -9 20167.2 1691.46  12
  -2   4  -9 19608.2 1741.04  14
  -2   4  -9 18567.4 1612.71  18
  -2   4 -10 8907.66 1046.99  12
  -2   4 -10 9863.16 1150.30  14
  -2   4 -10 8669.63 1032.25  18
  -2   4 -11 5055.18 780.185  14
  -2   4 -11 6609.65 812.746  18
  -2   4 -12 1684.68 379.999  14
  -2   4 -12 1002.83 306.686  18
   2   5 -11 6981.56 820.560  18
   2   5 -11 5571.62 739.510  11
   2   5 -10 1831.92 499.999  11
   2   5 -10 1984.42 546.919  18
   2   5  -9 6408.65 927.974  11
   2   5  -9 6144.77 911.379  18
   2   5  -8 21989.0 1809.73  11
   2   5  -8 27171.9 1934.00  18
   2   5  -7 14909.9 1599.88  23
   2   5  -7 14912.3 1468.11  11
   2   5  -7 16388.4 1543.91  18
   2   5  -6 81324.6 4093.84  23
   2   5  -6 81509.9 3783.05  11
   2   5  -6 83524.0 3841.92  18
   2   5  -5 65842.2 3301.43  18
   2   5  -5 65596.4 3479.04  23
   2   5  -5 57724.3 3149.36  11
   2   5  -4 23732.9 1879.37  12
   2   5  -4 26042.4 2042.84  23
   2   5  -4 23987.7 1895.21  11
   2   5  -4 24981.5 1910.81  18
  -2   5   3 49687.7 3186.24  26
   2   5  -3 59544.7 3112.52  23
  -2   5   3 51709.3 3201.98   3
   2   5  -3 56490.1 3004.06  11
   2   5  -3 50728.0 3494.21   3
  -2   5   2 2424.74 660.171   3
  -2   5   2 2182.04 616.982  26
   2   5  -2 3000.40 804.934   3
   2   5  -2 2228.70 561.709  23
   2   5  -1 148313. 6370.74  26
  -2   5   1 149011. 6091.34   7
  -2   5   1 149489. 5957.13   3
   2   5  -1 152657. 6334.17   3
   2   5   0 49988.3 3301.52  26
  -2   5   0 55504.2 3355.64   7
   2   5   0 49414.9 3230.05   3
  -2   5   0 50911.0 3097.45   3
   2   5   1 97401.2 4817.07  26
  -2   5  -1 103566. 5037.21   8
  -2   5  -1 95153.8 4736.48   7
   2   5   1 95716.0 4700.46   3
  -2   5  -2 80617.1 3656.85  12
  -2   5  -2 81792.3 4482.52   8
   2   5   2 79322.8 4234.18   3
   2   5   2 80629.0 4324.36  26
  -2   5  -3 34281.6 2236.22  12
  -2   5  -4 51083.5 2804.99  12
  -2   5  -4 47772.5 2815.58  23
  -2   5  -5 1231.40 506.890  12
  -2   5  -5 2946.51 682.793  18
  -2   5  -6 36062.0 2325.29  12
  -2   5  -6 38276.6 2417.23  18
  -2   5  -7 8220.46 1067.34  12
  -2   5  -7 10083.0 1179.77  18
  -2   5  -8 19807.5 1624.17  12
  -2   5  -8 19980.0 1602.40  18
  -2   5  -8 17404.5 1586.11  14
  -2   5  -9 4484.54 756.515  14
  -2   5  -9 4688.33 774.367  12
  -2   5  -9 5158.73 786.575  18
  -2   5 -10 2628.36 512.795  14
  -2   5 -10 2406.11 504.142  11
  -2   5 -10 3011.41 546.107  18
  -2   5 -11 2767.59 449.418  18
   2   6 -10 4617.52 634.881  11
   2   6  -9 9711.76 995.142  11
   2   6  -8 11152.6 1144.74  11
   2   6  -8 13021.2 1235.71  18
   2   6  -8 11726.5 1214.69  23
   2   6  -7 10566.1 1164.44  18
   2   6  -7 8464.16 1094.66  23
   2   6  -7 8294.45 1020.52  11
   2   6  -6-284.586 346.681  23
   2   6  -6 57.9433 292.347  11
   2   6  -6 9.00986 383.522  18
   2   6  -5 6155.58 930.623  18
   2   6  -5 7161.61 1077.33  23
   2   6  -5 6239.86 951.714  11
   2   6  -4 3334.48 748.079  23
   2   6  -4 3089.92 695.352  11
   2   6  -3 2840.74 603.642  11
   2   6  -3 3483.83 779.831  23
   2   6  -2 9946.80 1227.31  23
   2   6  -1 773.640 443.746  23
   2   6   0 21266.6 1835.62  23
   2   6   1 27436.1 2098.79  23
   2   6   2 756.053 366.349  23
  -2   6  -2 258.758 348.125  23
  -2   6  -2 279.729 366.406  12
  -2   6  -3 38141.7 2430.55  12
  -2   6  -3 45153.3 2644.01  23
  -2   6  -4 733.153 402.153  12
  -2   6  -4-97.9309 415.981  23
  -2   6  -5 22663.5 1787.20  12
  -2   6  -6 11052.9 1193.77  12
  -2   6  -6 12464.8 1207.41  18
  -2   6  -7 6640.85 890.250  12
  -2   6  -7 6541.22 827.573  18
  -2   6  -8 7083.09 864.495  12
  -2   6  -8 6893.66 799.371  18
  -2   6  -9 384.633 237.105  11
  -2   6  -9 578.140 248.391  18
   2   7  -8 3876.41 556.660  11
   2   7  -7 1353.31 372.754  11
   2   7  -7 876.420 335.383  23
   2   7  -6 6259.52 795.236  11
   2   7  -6 7180.50 913.771  23
  -2   7   5 520.146 337.578  23
   2   7  -5-103.826 315.271  23
   2   7  -5 329.383 219.942  11
   2   7  -4 10528.1 1203.04  23
   2   7  -4 9928.98 1045.45  11
  -2   7   4 11389.0 1169.92  23
  -2   7   3 6936.58 932.160  23
   2   7  -3 7994.90 1051.02  23
   2   7  -2 12131.8 1313.10  23
  -2   7   2 13101.8 1309.94  23
   2   7  -1 45224.1 2599.66  23
  -2   7   1 42314.1 2455.91  23
   2   7   0 947.315 493.850  23
  -2   7   0 2574.22 622.721  23
   2   7   1 32507.8 2134.20  23
  -2   7  -1 36157.6 2204.75  23
  -2   7  -2 11808.5 1208.94  23
  -2   7  -3 8843.33 1026.20  23
  -2   7  -3 7784.42 918.700  12
  -2   7  -4 23421.2 1654.19  23
  -2   7  -4 20625.0 1523.35  12
  -2   7  -5 3550.79 603.917  12
  -2   7  -5 2345.44 509.224  11
  -2   7  -6 4759.48 663.988  12
  -2   7  -6 5057.17 663.965  11
  -2   7  -7 2887.45 465.084  11
   2   8  -5 2247.66 392.050  23
   2   8  -4 579.629 264.187  23
  -2   8   3 3919.99 556.677  23
   2   8  -3 4703.66 650.453  23
   2   8  -2 2542.32 490.091  23
  -2   8   2 3071.59 528.714  23
  -2   8   1 332.118 254.680  23
   2   8  -1 368.716 261.645  23
  -2   8   0 2687.65 519.167  23
   2   8   0 1801.70 396.614  23
   2   8   1 1617.52 373.178  23
  -2   8  -1 2398.43 473.580  23
  -2   8  -2 2282.44 439.601  23
  -2   8  -3 1175.13 286.344  23
   3  -8  -4 4569.42 545.225  13
   3  -8  -4 5335.04 595.612  20
   3  -8  -3 932.163 310.347  20
   3  -8  -2 4143.76 565.384  20
   3  -8  -1-283.243 262.357  20
   3  -8   0 3362.09 498.837  30
   3  -8   0 2814.60 440.874  20
   3  -8   1 4301.91 577.142  30
   3  -8   2 2460.71 441.638  30
   3  -7  -7-263.741 236.951  13
   3  -7  -7 38.0479 171.796  20
   3  -7  -6 12654.8 1159.21  13
   3  -7  -6 12925.8 1128.79  20
   3  -7  -5 3820.02 655.076  20
   3  -7  -4 11055.2 1142.60  20
   3  -7  -3 6719.58 913.331  20
   3  -7  -2 3510.22 671.148  20
   3  -7  -1 9738.93 1123.82  20
   3  -7  -1 10029.9 1130.82  30
   3  -7   0 1024.59 421.112  30
  -3  -7   0 1598.41 493.429  20
   3  -7   0 652.077 374.428  20
  -3  -7  -1 19206.2 1536.57  20
   3  -7   1 14864.8 1358.19  20
   3  -7   1 17609.8 1552.53  30
  -3  -7  -2 1667.53 437.078  20
  -3  -7  -2 2315.80 525.061  17
   3  -7   2 2038.80 585.727  30
   3  -7   3 9031.12 1101.06  30
  -3  -7  -3 11316.2 1122.69  20
  -3  -7  -3 8305.26 909.221  17
   3  -7   4 5413.50 814.846  30
  -3  -7  -4 6030.50 738.555  13
  -3  -7  -4 6110.30 779.409  20
  -3  -7  -4 4480.70 648.460  17
   3  -7   5 5040.96 728.999  30
  -3  -7  -5 4580.86 605.103  13
  -3  -7  -5 5160.44 668.755  20
  -3  -7  -5 3345.12 504.327  17
  -3  -7  -6 7498.42 701.905  13
  -3  -7  -6 8750.58 799.858  20
   3  -7   6 7953.85 799.628  30
   3  -6 -10 2942.01 497.247  19
   3  -6  -9 8845.37 991.321  19
   3  -6  -9 8082.69 828.938   9
   3  -6  -8 2717.62 615.060  13
   3  -6  -8 3519.31 609.810  20
   3  -6  -8 4238.93 738.566  19
   3  -6  -8 3700.76 697.469   9
   3  -6  -7 10602.8 1230.80  13
   3  -6  -7 8119.72 970.822  20
   3  -6  -7 11569.9 1279.40  19
   3  -6  -7 11356.7 1221.31   9
   3  -6  -6 998.892 407.783   9
   3  -6  -6 1071.10 324.113  20
   3  -6  -5 24007.7 1836.95  20
   3  -6  -5 25065.1 1960.05   9
   3  -6  -4 19777.1 1786.28   9
   3  -6  -3 1243.48 511.713   9
   3  -6  -2 26791.2 2078.41   9
   3  -6  -2 23315.3 1912.89  30
  -3  -6   1 8856.06 1179.28  20
   3  -6  -1 7786.07 1122.85  30
  -3  -6   1 9669.96 1234.84  17
   3  -6  -1 7123.45 1054.28   9
  -3  -6   0 23182.4 1911.32  20
   3  -6   0 19691.7 1774.12  30
  -3  -6   0 20545.2 1857.77  17
  -3  -6  -1 10957.1 1280.12  20
  -3  -6  -1 10257.6 1276.69  17
   3  -6   1 11200.5 1343.27  30
  -3  -6  -2 768.479 461.650  20
   3  -6   2 800.028 458.573  30
  -3  -6  -2 2128.51 668.313  17
  -3  -6  -3 49724.0 2803.74  13
   3  -6   3 53901.7 3037.86  30
  -3  -6  -3 52783.6 2857.90  20
  -3  -6  -3 49201.5 2883.03  17
   3  -6   4 8668.38 1182.48  30
  -3  -6  -4 6508.46 967.791  13
  -3  -6  -4 5213.30 863.624  20
  -3  -6  -4 6543.14 970.718  17
  -3  -6  -5 12652.6 1255.00  20
   3  -6   5 13161.1 1424.31  30
  -3  -6  -5 12889.2 1310.72  17
  -3  -6  -5 12474.1 1259.35  13
  -3  -6  -6 8006.64 972.662  13
   3  -6   6 7300.65 1008.50  30
  -3  -6  -6 8824.84 1002.77  20
  -3  -6  -6 6910.86 912.746  17
  -3  -6  -7 12844.1 1133.16  13
  -3  -6  -7 11437.4 1048.15  20
  -3  -6  -7 9508.95 1018.88  17
   3  -6   7 10942.3 1116.44  30
  -3  -6  -8 5518.46 657.927  13
  -3  -6  -8 4510.29 622.356  17
  -3  -6  -9 1434.25 298.034  13
   3  -5 -12 1884.29 380.443  19
   3  -5 -11 16869.8 1344.88  19
   3  -5 -10 9433.34 1115.97  19
   3  -5  -9 25341.4 1939.80  19
   3  -5  -9 25644.2 1888.24   9
   3  -5  -8 3137.17 710.129   9
   3  -5  -8 3463.45 804.593  13
   3  -5  -8 2814.87 696.414  19
   3  -5  -7 19519.7 1781.98   9
   3  -5  -7 17019.1 1547.58  20
   3  -5  -7 17915.4 1764.27  19
   3  -5  -6 98318.2 4662.38  19
   3  -5  -6 106226. 4639.49   9
  -3  -5   5 764.883 450.666  30
   3  -5  -5 619.634 371.707   9
   3  -5  -5 974.442 559.027  19
  -3  -5   4 174509. 6493.44  30
   3  -5  -4 181691. 6583.49   9
   3  -5  -3 127157. 5187.20   9
  -3  -5   3 121671. 4992.81  30
   3  -5  -2 20517.2 1765.20  30
   3  -5  -2 24016.2 2001.58   9
  -3  -5   2 23463.7 1849.47  30
  -3  -5   1 70834.6 4243.73  28
   3  -5  -1 76739.2 3735.80  30
  -3  -5   1 79891.6 3806.17  20
   3  -5  -1 86571.8 4095.56   9
  -3  -5   1 73895.8 3521.76  30
   3  -5   0 8497.65 1118.94  30
  -3  -5   0 8527.25 1117.36  20
   3  -5   0 9905.69 1316.96   9
   3  -5   1 96221.0 4332.78  30
  -3  -5  -1 94167.4 4140.85  20
  -3  -5  -1 91783.5 4335.70  17
   3  -5   2 88569.4 4077.82  30
  -3  -5  -2 86579.8 3824.77  20
  -3  -5  -2 87516.1 4195.21  17
  -3  -5  -3 34849.2 2353.35  13
  -3  -5  -3 40807.5 2418.59  20
  -3  -5  -3 40706.0 2697.65  17
   3  -5   3 37721.5 2556.79  30
  -3  -5  -4 36859.7 2412.31  13
  -3  -5  -4 38976.6 2363.38  20
  -3  -5  -4 34026.9 2494.94  17
   3  -5   4 37388.3 2592.46  30
   3  -5   5 18094.4 1786.47  30
  -3  -5  -5 18798.8 1597.62  20
  -3  -5  -5 17358.1 1604.74  13
  -3  -5  -5 16196.9 1665.97  17
  -3  -5  -6 16667.4 1482.57  20
  -3  -5  -6 13965.7 1500.80  17
  -3  -5  -6 13905.5 1417.58  13
   3  -5   6 15395.3 1673.55  30
  -3  -5  -7 7321.99 933.745  20
  -3  -5  -7 8312.62 1070.94  13
  -3  -5  -7 6315.12 941.694  17
   3  -5   7 4747.10 899.919  30
  -3  -5  -8 4447.73 711.969  13
  -3  -5  -8 5096.21 754.523  20
  -3  -5  -8 5318.51 839.405  17
  -3  -5  -9 7684.38 858.915  13
  -3  -5  -9 6864.66 888.062  17
  -3  -5 -10 1361.33 353.663  13
  -3  -5 -10 2018.02 413.430  17
   3  -4 -13 2011.25 388.653  19
   3  -4 -12 1677.05 474.059  19
   3  -4 -11 619.361 438.451  19
   3  -4 -10 7794.56 1011.36   9
   3  -4 -10 9289.90 1156.88  19
   3  -4  -9 29947.7 2151.47   9
   3  -4  -9 23228.4 1965.58  19
   3  -4  -8 1625.74 602.427  19
   3  -4  -8 2419.17 703.049   9
   3  -4  -7 52144.0 3000.15   9
   3  -4  -7 49073.5 2994.05  19
   3  -4  -6 21144.1 1787.62   9
   3  -4  -6 15164.1 1873.49   1
   3  -4  -6 18300.4 1754.25  19
  -3  -4   5 129901. 5690.13  25
  -3  -4   5 145882. 6316.67  29
   3  -4  -5 137254. 6477.15   5
  -3  -4   4 97889.8 4515.51  25
   3  -4  -4 97264.6 5154.68   5
   3  -4  -4 87591.9 4481.88   2
  -3  -4   3 34498.9 2598.32  29
   3  -4  -3 31461.0 2624.30  28
   3  -4  -3 33147.5 2805.94   5
  -3  -4   3 34972.1 2410.56  25
   3  -4  -3 32074.6 2494.41   2
  -3  -4   2 248058. 8276.33  29
   3  -4  -2 219808. 8416.47  28
   3  -4  -2 216631. 8455.26   5
  -3  -4   2 222769. 7555.91  25
   3  -4  -2 225411. 8111.07   2
  -3  -4   2 216545. 7666.23  28
  -3  -4   1 6492.51 1043.82  28
   3  -4  -1 5804.96 1142.71  28
   3  -4  -1 7591.94 1183.72   2
  -3  -4   1 7851.13 1196.92  29
  -3  -4   0 93045.5 4390.13  28
   3  -4   0 89799.9 4512.33   2
  -3  -4   0 89639.3 4075.65  25
  -3  -4  -1 49566.0 3090.69  28
   3  -4   1 48880.3 3247.77   2
  -3  -4  -2 43574.6 2954.29  28
   3  -4   2 42971.2 3123.68   2
  -3  -4  -2 40954.0 2928.12   6
  -3  -4  -3 81065.9 4304.27  28
   3  -4   3 79756.3 4530.21   2
  -3  -4  -3 72113.8 4189.10   6
   3  -4   4 54414.5 3775.65   2
  -3  -4  -4 50812.3 2815.57  13
   3  -4   4 48739.7 2984.88  30
  -3  -4  -4 55833.2 2802.92  20
  -3  -4  -4 44886.8 3285.08   6
  -3  -4  -4 58336.5 3257.95  17
  -3  -4  -4 56297.1 3575.49  28
  -3  -4  -5 41548.7 2547.09  13
   3  -4   5 41994.2 2831.88  30
  -3  -4  -5 42442.8 2470.98  20
  -3  -4  -5 46484.3 2865.52  17
  -3  -4  -6 23612.6 1792.11  20
  -3  -4  -6 24158.5 2018.91  17
  -3  -4  -6 22336.7 1819.10  13
   3  -4   6 21326.9 2050.82  30
  -3  -4  -7 4985.67 864.031  13
  -3  -4  -7 5168.38 816.284  20
   3  -4   7 5050.26 1000.96  30
  -3  -4  -7 5367.47 948.926  17
  -3  -4  -8 15222.0 1427.01  13
  -3  -4  -8 14870.6 1365.51  20
  -3  -4  -8 14137.1 1489.86  17
  -3  -4  -8 13200.5 1359.65  16
  -3  -4  -9 6783.81 907.037  16
  -3  -4  -9 8706.12 1020.15  13
  -3  -4  -9 9192.49 1131.65  17
  -3  -4 -10 4887.86 698.555  16
  -3  -4 -10 5232.29 746.500  13
  -3  -4 -10 6753.94 916.986  17
  -3  -4 -11 4943.85 619.468  13
  -3  -4 -11 4661.72 671.252  17
   3  -3 -13 3102.77 596.408  19
   3  -3 -12 4572.40 811.983  14
   3  -3 -12 6245.28 932.930  19
   3  -3 -11 37128.0 2453.66  14
   3  -3 -11 37522.5 2487.02  19
   3  -3 -10 11727.5 1402.76  14
   3  -3 -10 8504.32 1143.13   9
   3  -3 -10 8612.60 1190.10  19
   3  -3  -9 52995.3 3088.04  14
   3  -3  -9 49016.7 2887.00   9
   3  -3  -9 47932.4 2922.43  19
   3  -3  -8 25894.8 2049.55  14
   3  -3  -8 27188.7 2032.14   9
   3  -3  -8 24218.9 1955.14  19
   3  -3  -7 18052.4 2093.41   5
   3  -3  -7 13098.3 1700.55   1
  -3  -3   7 18397.2 2087.59  29
  -3  -3   7 15870.9 1738.69  27
  -3  -3   7 15809.4 1801.65  25
  -3  -3   6 182435. 7024.49  29
   3  -3  -6 175748. 7084.02   5
  -3  -3   6 164304. 6355.61  27
  -3  -3   6 163021. 6384.23  25
   3  -3  -6 149867. 6475.22   1
  -3  -3   5 23860.0 2067.94  29
  -3  -3   5 25730.6 1993.11  27
  -3  -3   5 23331.6 1914.14  25
   3  -3  -5 23017.0 2028.35   1
   3  -3  -5 22629.3 2130.92   5
  -3  -3   4 277618. 8727.32  29
  -3  -3   4 266886. 8185.91  27
   3  -3  -4 266023. 9013.03   5
  -3  -3   4 251196. 8131.11  25
   3  -3  -4 254246. 8300.58   2
   3  -3  -4 244206. 8372.79   1
  -3  -3   3 386173. 10828.9  29
   3  -3  -3 369059. 11316.1   5
   3  -3  -3 369193. 10899.7  28
   3  -3  -3 351518. 10581.7   1
   3  -3  -3 351625. 10585.5   2
  -3  -3   3 339971. 10153.5  25
  -3  -3   3 343600. 10116.3  27
  -3  -3   2 41191.3 2218.47  27
  -3  -3   2 37268.3 2182.28  28
  -3  -3   2 46785.3 2604.26  29
   3  -3  -2 40770.5 2627.61  28
  -3  -3   2 39151.2 2229.47  25
   3  -3  -2 39285.9 2465.73   2
   3  -3  -2 40945.8 2440.75   1
  -3  -3   1 119829. 4514.79  28
   3  -3  -1 110373. 4512.75   1
  -3  -3   1 119474. 4427.15  25
   3  -3  -1 118397. 4786.04   2
  -3  -3   1 115055. 4254.57  27
  -3  -3   0 99384.4 3931.86  27
  -3  -3   0 110659. 4173.33  25
   3  -3   0 111762. 4567.41   2
  -3  -3   0 109281. 4324.39  28
  -3  -3  -1 245488. 7737.20  28
   3  -3   1 242765. 8220.27   4
  -3  -3  -1 239566. 7454.00  25
   3  -3   1 228296. 7898.16   2
   3  -3   2 329574. 10505.4   2
  -3  -3  -2 335436. 10163.1  28
   3  -3   2 350539. 10897.1   4
   3  -3   3 81455.3 4299.85   4
  -3  -3  -3 83245.4 4039.09  24
   3  -3   3 79509.6 4119.47   2
  -3  -3  -3 79046.1 4162.27   6
  -3  -3  -3 74799.6 3549.80   5
  -3  -3  -3 76242.1 3801.95  28
  -3  -3  -4 84466.9 4173.88  28
   3  -3   4 86764.5 4658.93   4
  -3  -3  -4 81359.9 4168.11  24
   3  -3   4 82350.1 4375.80   2
  -3  -3  -4 81842.3 4438.75   6
   3  -3   5 5422.56 1187.81  29
  -3  -3  -5 5828.84 1031.28  28
   3  -3   5 4306.51 1072.76   4
  -3  -3  -5 2397.20 761.588   6
  -3  -3  -6 52861.9 2797.98  13
   3  -3   6 49551.3 3757.34  29
   3  -3   6 45879.4 3582.60   4
  -3  -3  -6 50412.6 2666.60  20
  -3  -3  -6 49088.0 2894.87  16
   3  -3   6 47266.7 3037.54  30
  -3  -3  -6 47215.8 3440.55   6
  -3  -3  -6 49724.6 2940.49  17
  -3  -3  -7 25505.6 2046.99  16
  -3  -3  -7 26894.7 1941.74  13
  -3  -3  -7 28687.0 1956.58  20
  -3  -3  -7 26976.3 2124.80  17
  -3  -3  -8 12907.1 1328.73  13
  -3  -3  -8 14504.0 1531.83  17
  -3  -3  -8 13747.4 1464.17  16
  -3  -3  -9 30605.4 2015.09  13
  -3  -3  -9 27438.9 2136.86  17
  -3  -3  -9 29848.2 2157.20  16
  -3  -3 -10 734.793 326.189  16
  -3  -3 -10 1639.59 440.340  13
  -3  -3 -10 1414.10 507.315  17
  -3  -3 -11 1795.17 501.206  16
  -3  -3 -11 2156.80 504.310  13
  -3  -3 -11 2616.34 592.433  17
  -3  -3 -12 1170.88 328.036  16
  -3  -3 -12 1653.02 373.480  13
   3  -2 -14 949.137 341.368  14
   3  -2 -13 13076.9 1329.95  14
   3  -2 -13 14217.6 1357.96  16
   3  -2 -12 19902.9 1730.43  19
   3  -2 -12 19608.5 1750.91  14
   3  -2 -12 21434.9 1778.21  16
   3  -2 -11 12469.4 1331.59   9
   3  -2 -11 12531.4 1446.66  14
   3  -2 -11 12978.0 1451.66  19
   3  -2 -11 13137.3 1426.04  16
   3  -2 -10 23027.3 1925.96  14
   3  -2 -10 25220.9 2162.82  22
   3  -2 -10 23601.1 1970.87  19
   3  -2 -10 22451.4 1862.67   9
   3  -2 -10 23088.2 1895.98  16
   3  -2  -9 18016.0 1650.09   9
   3  -2  -9 19279.0 1697.30  14
   3  -2  -9 16195.7 1712.21  22
   3  -2  -9 17195.5 1639.92  19
   3  -2  -9 14845.2 1461.81  16
  -3  -2   8 70781.8 4294.31  29
   3  -2  -8 65675.4 3980.62   1
  -3  -2   8 70547.7 3905.64  25
  -3  -2   8 71443.4 4010.32  27
   3  -2  -8 69414.7 4185.16   5
   3  -2  -7 30747.0 2503.53   5
  -3  -2   7 28389.5 2255.38  27
   3  -2  -7 25139.4 2232.88   1
  -3  -2   7 28703.2 2207.09  25
  -3  -2   7 32043.4 2586.41  29
   3  -2  -6 15567.7 1604.15   5
  -3  -2   6 14019.5 1558.95  29
  -3  -2   6 14829.8 1466.30  27
  -3  -2   6 14555.5 1453.40  25
   3  -2  -6 13583.8 1506.61   1
   3  -2  -5 148243. 5566.03   5
  -3  -2   5 143459. 5154.01  25
  -3  -2   5 145973. 5251.41  27
   3  -2  -5 135615. 4919.82   2
  -3  -2   5 154263. 5667.77  29
   3  -2  -5 134487. 5368.46   1
  -3  -2   4 260033. 7916.76  29
  -3  -2   4 266010. 7720.62  27
   3  -2  -4 258443. 8119.56   5
  -3  -2   4 235531. 7524.64  25
   3  -2  -4 257075. 7677.29   2
   3  -2  -4 242653. 7939.80   1
   3  -2  -3 84082.8 3412.67  28
   3  -2  -3 80495.1 3653.94   5
  -3  -2   3 85176.4 3303.78  25
   3  -2  -3 75326.1 3456.77   1
  -3  -2   3 84878.9 3321.43  27
   3  -2  -3 79767.4 3389.07   2
  -3  -2   3 87811.5 3487.48  29
  -3  -2   2 371414. 10134.0  29
  -3  -2   2 365295. 9854.30  27
  -3  -2   2 359056. 9645.90  28
  -3  -2   2 357353. 9799.59  25
   3  -2  -2 368899. 10205.8   2
   3  -2  -1 467175. 12309.7   4
  -3  -2   1 465691. 11815.5  27
  -3  -2   1 426895. 11709.7  25
   3  -2  -1 424758. 12073.0   2
  -3  -2   1 455340. 12019.8  29
  -3  -2   1 453593. 11767.8  28
  -3  -2   0 420502. 10889.4  28
  -3  -2   0 405214. 10766.9  25
   3  -2   0 395114. 11162.7   4
  -3  -2   0 401219. 10776.0  27
   3  -2   0 392933. 11115.1   2
  -3  -2  -1 263623. 7597.11  28
   3  -2   1 242933. 7099.00  29
  -3  -2  -1 271257. 7581.96  27
  -3  -2  -1 253266. 7423.91  25
   3  -2   1 244696. 7744.00   4
   3  -2   1 243727. 7688.01   2
   3  -2   2 100689. 3834.68  29
  -3  -2  -2 108114. 4090.49  28
  -3  -2  -2 99661.0 4048.74  24
   3  -2   2 99811.5 4246.18   4
   3  -2   2 102059. 4207.36   2
   3  -2   3 569337. 15397.3  29
   3  -2   3 559534. 15939.5   4
  -3  -2  -3 560557. 15553.6  24
  -3  -2  -3 619220. 15634.1  28
   3  -2   3 580403. 15753.7   2
  -3  -2  -4 86964.2 3986.09  24
   3  -2   4 86140.7 4276.75   4
   3  -2   4 87693.4 4087.32   2
   3  -2   4 84761.7 3978.93  29
  -3  -2  -4 86445.9 4220.48   6
  -3  -2  -4 86803.7 3930.51  28
  -3  -2  -5 107781. 4839.11  24
   3  -2   5 117928. 5370.06   4
   3  -2   5 115718. 5126.67  29
  -3  -2  -5 116291. 5275.46   6
  -3  -2  -5 123045. 5063.50  28
   3  -2   6 102176. 5029.41  29
   3  -2   6 101923. 5150.25   4
  -3  -2  -6 96491.5 4933.97   6
   3  -2   7 32092.5 2838.55  29
  -3  -2  -7 36296.3 2209.84  13
   3  -2   7 31523.6 2836.85   4
  -3  -2  -7 33899.4 2845.48   6
  -3  -2  -7 36206.9 2439.27  17
  -3  -2  -7 37689.5 2476.75  16
  -3  -2  -8 74390.6 3396.70  13
  -3  -2  -8 72581.3 3721.99  17
  -3  -2  -8 71835.2 3672.31  16
  -3  -2  -9 25769.9 1886.14  13
  -3  -2  -9 27143.4 2140.21  17
  -3  -2  -9 26527.6 2095.55  16
  -3  -2 -10 12571.8 1237.61  13
  -3  -2 -10 10956.4 1320.65  17
  -3  -2 -10 12410.5 1360.03  16
  -3  -2 -11 6309.68 940.850  16
  -3  -2 -11 6476.00 859.696  13
  -3  -2 -11 7873.27 1017.09  17
  -3  -2 -12 2812.61 525.672  13
  -3  -2 -12 2713.37 564.173  16
  -3  -2 -13 338.498 171.943  16
  -3  -2 -13 439.113 191.828  13
   3  -1 -15 269.571 141.036  14
   3  -1 -14 691.686 336.536  14
   3  -1 -14 222.905 272.951  16
   3  -1 -13 1030.83 414.065  14
   3  -1 -13 648.833 445.204  16
   3  -1 -12 5614.87 935.349  14
   3  -1 -12 5415.58 950.049  22
   3  -1 -12 6589.57 1036.23  16
   3  -1 -11 18485.0 1676.92   9
   3  -1 -11 19992.5 1888.25  22
   3  -1 -11 19467.5 1799.32  14
   3  -1 -11 21620.6 1859.58  16
   3  -1 -10 1964.42 516.517   9
   3  -1 -10 2024.07 663.932  14
   3  -1 -10 1842.29 532.621  16
   3  -1 -10 2052.26 529.366  22
   3  -1  -9 40142.0 3080.33   1
   3  -1  -9 40986.9 2509.86  14
  -3  -1   9 43434.9 3143.31  27
   3  -1  -9 41561.3 2674.11  22
   3  -1  -9 37639.9 2472.12   9
   3  -1  -9 40547.5 2442.80  16
   3  -1  -8 60281.8 3599.86   1
  -3  -1   8 63949.8 3637.45  27
  -3  -1   7 75757.8 3478.25  25
  -3  -1   7 77314.6 3720.51  27
   3  -1  -7 70740.1 3725.27   1
  -3  -1   7 70887.6 3771.73  29
   3  -1  -7 72594.5 3678.52   5
   3  -1  -6 438209. 12918.6   5
  -3  -1   6 457303. 13195.3  29
  -3  -1   6 477855. 13025.7  27
  -3  -1   6 491278. 12832.7  25
   3  -1  -6 481394. 13338.4   1
   3  -1  -5 50665.6 2518.36   5
  -3  -1   5 48948.0 2565.56  29
  -3  -1   5 50611.2 2530.66  27
  -3  -1   5 55744.3 2498.85  25
   3  -1  -5 48600.3 2310.22   2
   3  -1  -5 44910.8 2614.56   1
  -3  -1   4 588794. 15071.1  29
   3  -1  -4 586430. 15056.2   5
  -3  -1   4 601699. 15017.8  27
  -3  -1   4 559319. 14777.8  25
   3  -1  -4 609218. 15473.4   1
   3  -1  -4 572451. 14926.4   2
  -3  -1   3 365218. 9792.78  27
   3  -1  -3 381704. 10043.3   5
   3  -1  -3 369950. 9975.99   2
  -3  -1   3 343164. 9606.34  25
  -3  -1   3 371819. 9738.89  29
  -3  -1   2 276243. 7208.98  28
  -3  -1   2 285703. 7670.75  29
   3  -1  -2 290904. 8103.04   2
  -3  -1   2 290745. 7759.85  27
  -3  -1   2 265758. 7626.90  25
   3  -1  -2 290415. 7823.31   4
   3  -1  -1 496680. 12795.5   2
   3  -1  -1 504887. 12577.5   4
  -3  -1   1 513229. 12249.3  28
  -3  -1   1 511984. 12537.5  27
  -3  -1   1 496368. 12429.8  29
  -3  -1   1 477332. 12363.6  25
  -3  -1   0 71293.1 2621.01  28
  -3  -1   0 71955.3 2649.22  25
   3  -1   0 67104.7 2728.45   4
  -3  -1   0 67189.9 2638.39  27
  -3  -1   0 59445.7 2052.91   7
   3  -1   0 62286.7 2745.60   2
  -3  -1  -1 538131. 13478.1  28
  -3  -1  -1 524979. 13549.4  27
  -3  -1  -1 520985. 13512.2  24
   3  -1   1 538619. 13712.9   4
   3  -1   1 492068. 13569.4   2
  -3  -1  -2 222690. 6494.17  28
  -3  -1  -2 219100. 6625.26  27
  -3  -1  -2 200889. 6458.41  24
   3  -1   2 208914. 6652.84   4
   3  -1   2 202299. 6487.04   2
  -3  -1  -3 5303.01 781.205  24
  -3  -1  -3 5603.44 808.529  28
   3  -1   3 5649.92 819.448   2
   3  -1   3 4391.78 760.183   4
   3  -1   4 121130. 4666.16   2
  -3  -1  -4 120051. 4684.78  24
   3  -1   4 134455. 5106.36   4
  -3  -1  -4 121161. 4936.74   6
  -3  -1  -5 45594.7 2678.13  24
   3  -1   5 50719.2 3006.83   4
  -3  -1  -5 45983.6 2870.88   6
   3  -1   6 90649.8 4337.15  29
  -3  -1  -6 83120.8 4057.41  24
   3  -1   6 89529.5 4466.79   4
  -3  -1  -6 81280.7 4213.30   6
   3  -1   7 93184.8 4733.12  29
  -3  -1  -7 90957.5 4438.51  24
  -3  -1  -7 92940.8 4746.78   6
   3  -1   7 91272.2 4840.00   4
  -3  -1  -8 11552.3 1186.71  13
  -3  -1  -8 11577.4 1384.65  17
  -3  -1  -8 9792.52 1239.97  16
  -3  -1  -9 32216.1 2081.05  13
  -3  -1  -9 30572.1 2290.30  17
  -3  -1  -9 28546.3 2152.65  16
  -3  -1 -10 16252.9 1412.48  13
  -3  -1 -10 13892.1 1493.32  17
  -3  -1 -10 13503.4 1455.74  16
  -3  -1 -11 1499.82 505.650  16
  -3  -1 -11 1633.78 466.763  13
  -3  -1 -12 9718.97 953.662  13
  -3  -1 -12 8691.13 987.174  16
  -3  -1 -13 1165.11 315.823  16
  -3  -1 -13 968.537 264.964  13
   3   0 -15 6000.02 711.177  14
   3   0 -14 1417.22 464.540  14
   3   0 -13 688.314 463.585  14
   3   0 -13 621.747 445.266  16
   3   0 -12 8873.16 1154.91   9
   3   0 -12 8504.79 1228.17  22
   3   0 -12 10283.2 1338.88  14
   3   0 -12 7906.94 1085.99  16
   3   0 -11 1143.60 385.776  16
   3   0 -11 976.447 542.577   9
   3   0 -11 1888.56 609.526  14
   3   0 -11 630.895 487.921  22
   3   0 -10 35550.0 2455.88  14
   3   0 -10 39135.7 2632.80  22
   3   0 -10 36731.9 2448.77   9
   3   0 -10 38660.4 2410.18  16
   3   0  -9 2762.04 739.858   1
  -3   0   9 3460.71 856.248  27
   3   0  -9 3005.71 696.274  14
   3   0  -9 3120.83 822.529   8
   3   0  -9 2500.97 650.874  22
   3   0  -9 2991.84 680.730  16
  -3   0   8 65346.3 3530.00  27
   3   0  -8 57304.1 3377.05   1
   3   0  -8 60100.4 3557.86   8
   3   0  -7 169426. 6376.36   1
   3   0  -7 176094. 6530.07   8
  -3   0   6 12071.5 1202.10  27
   3   0  -6 10527.6 1213.34   8
   3   0  -6 9359.93 1105.79   1
  -3   0   5 185258. 5689.05  27
   3   0  -5 170776. 5443.83   2
  -3   0   5 184051. 5353.98  25
   3   0  -5 183768. 5919.62   8
   3   0  -5 170747. 5806.20   1
   3   0  -4 607374. 16008.4   5
  -3   0   4 654126. 16202.7  29
  -3   0   4 709578. 16707.4  27
  -3   0   4 707959. 16453.6  25
   3   0  -4 624670. 16774.3   8
   3   0  -4 636522. 16630.8   2
   3   0  -4 741621. 17172.3   1
   3   0  -3 193360. 5397.25   5
  -3   0   3 214794. 5823.29  25
   3   0  -3 200252. 6074.29   8
   3   0  -3 218168. 6219.15   2
  -3   0   3 195428. 5357.43  29
  -3   0   3 202766. 5891.14  27
  -3   0   2 576425. 14311.0  27
  -3   0   2 594619. 14281.7  25
   3   0  -2 567888. 13987.9   4
   3   0  -2 576692. 14708.4   2
  -3   0   2 568849. 13746.1  29
  -3   0   2 571737. 14145.8   7
  -3   0   1 295896. 7845.63  25
   3   0  -1 287533. 7730.81   4
   3   0  -1 326740. 8334.48   2
  -3   0   1 272275. 7816.96  27
  -3   0   1 278543. 7590.00   7
  -3   0   1 310935. 7936.94  24
  -3   0   0 278349. 7872.22  27
   3   0   0 293701. 8033.30  26
  -3   0   0 313004. 8010.99  24
   3   0   0 305764. 8220.75   2
   3   0   0 307297. 7921.92   4
  -3   0   0 263250. 7457.97   7
   3   0   1 638810. 15921.6  26
  -3   0  -1 621304. 15889.3  24
   3   0   1 641699. 16100.8   2
  -3   0  -1 623429. 15402.7   7
  -3   0  -1 610986. 15994.5  27
   3   0   2 58427.8 2474.06  26
   3   0   2 65640.0 2731.35   2
  -3   0  -2 56512.6 2526.56  24
   3   0   2 65538.5 2723.99   4
  -3   0  -2 56554.1 2230.42   7
   3   0   3 234606. 6939.11   2
  -3   0  -3 227818. 6909.99  24
  -3   0  -3 218564. 6204.71   8
   3   0   3 221369. 6540.09  26
  -3   0  -4 160790. 5521.35  24
   3   0   4 173139. 5794.65   4
  -3   0  -4 153086. 5581.26   6
   3   0   4 158261. 5381.55   2
  -3   0  -5 77488.6 3606.05  24
   3   0   5 84127.4 3851.08   4
  -3   0  -5 76036.8 3648.48   6
  -3   0  -6 10476.3 1284.44  24
   3   0   6 11332.7 1366.11   4
  -3   0  -6 12492.3 1448.65   6
  -3   0  -7 8304.27 1193.37  24
   3   0   7 9487.75 1400.52   4
  -3   0  -7 7574.82 1220.76   6
  -3   0  -8 36992.5 2790.17  24
   3   0   8 33910.9 2880.54   4
  -3   0  -8 41802.4 2499.14  21
  -3   0  -8 41776.4 2542.54  14
  -3   0  -8 41080.5 2571.13  17
  -3   0  -8 41338.2 2606.96  16
  -3   0  -9 13302.3 1287.01  13
  -3   0  -9 11944.0 1301.07  21
  -3   0  -9 14030.7 1481.41  17
  -3   0  -9 13587.5 1473.69  16
  -3   0  -9 12670.4 1384.75  14
  -3   0 -10 209.356 337.821  14
  -3   0 -10 999.857 435.466  13
  -3   0 -10 499.410 361.842  16
  -3   0 -11-61.1187 338.054  16
  -3   0 -11 320.664 335.430  14
  -3   0 -11 221.131 241.780  13
  -3   0 -12 18.6200 243.298  14
  -3   0 -12-100.628 244.554  16
  -3   0 -12-159.907 308.282  13
  -3   0 -13 992.674 253.589  13
  -3   0 -13 1517.79 370.607  16
   3   1 -14 1093.89 335.389  14
   3   1 -13 770.527 436.093  14
   3   1 -13 1342.41 491.307  22
   3   1 -13 1559.98 504.464  16
   3   1 -12 6260.60 967.662   9
   3   1 -12 6837.53 1066.49  14
   3   1 -12 6488.90 1028.67  22
   3   1 -12 8102.52 1088.14  16
   3   1 -11 18848.6 1758.61   9
   3   1 -11 18944.0 1858.13  14
   3   1 -11 19553.8 1875.69  22
   3   1 -11 22880.9 1855.44  16
   3   1 -10 1414.96 488.485   9
   3   1 -10 1796.25 560.513  14
   3   1 -10 1877.26 587.553  22
   3   1 -10 2784.22 676.307  16
   3   1  -9 38778.0 2542.02  14
   3   1  -9 38139.4 3063.29   8
   3   1  -9 38331.7 2582.83  22
  -3   1   9 44296.7 2993.44   7
   3   1  -9 44888.3 2571.47  16
  -3   1   8 57993.7 3272.66  27
   3   1  -8 58333.8 3586.80   8
  -3   1   8 64946.6 3490.87   7
  -3   1   7 74727.4 3528.43  27
   3   1  -7 67387.0 3376.22   1
   3   1  -7 77621.1 3920.05   8
  -3   1   7 82232.7 3762.86   7
  -3   1   6 531409. 13439.6  27
   3   1  -6 443099. 13538.4   8
   3   1  -6 440546. 13126.2   1
  -3   1   6 564904. 13710.1   7
  -3   1   5 46042.4 2285.40  27
   3   1  -5 48377.3 2575.48   8
   3   1  -5 39461.8 2192.03   1
  -3   1   5 48141.8 2386.40   7
   3   1  -4 579718. 15345.4   1
  -3   1   4 633876. 15227.5  27
   3   1  -4 544170. 15407.2   8
  -3   1   4 638967. 15353.6   7
   3   1  -3 375594. 10234.3   8
  -3   1   3 365448. 9304.07  24
  -3   1   3 396741. 9971.10  27
  -3   1   3 397094. 10082.4   7
  -3   1   2 274713. 7162.48  24
  -3   1   2 281022. 7475.81  27
   3   1  -2 276856. 8001.10  26
   3   1  -2 279266. 7572.05   8
   3   1  -2 255244. 6997.09   4
  -3   1   2 289200. 7564.43   7
   3   1  -1 506293. 13526.2  26
   3   1  -1 512936. 12917.7   8
  -3   1   1 526317. 12920.6  24
   3   1  -1 491549. 12794.6   4
  -3   1   1 545444. 13114.1   7
  -3   1   1 534698. 13140.5  27
  -3   1   0 67963.2 2573.55  24
   3   1   0 66549.1 2835.58  26
   3   1   0 67923.1 2564.48   4
  -3   1   0 61807.7 2499.10   7
  -3   1   0 73915.0 2786.76  27
   3   1   0 70231.5 2836.46   3
   3   1   1 519253. 14068.0  26
  -3   1  -1 523911. 13795.5  24
  -3   1  -1 548239. 13769.1   7
   3   1   1 563864. 13940.7   4
   3   1   1 585380. 14205.0   3
  -3   1  -2 217487. 6660.81  24
   3   1   2 221952. 6801.19  26
  -3   1  -2 229838. 6667.90   7
   3   1   2 236888. 6869.50   4
   3   1   2 242084. 6899.55   3
  -3   1  -3 3915.60 637.877  24
  -3   1  -3 5524.87 727.027   8
   3   1   3 4962.31 656.310  26
   3   1   3 5263.21 763.830   4
   3   1   3 6881.40 804.564   3
  -3   1  -3 4019.22 638.561   7
  -3   1  -3 5131.22 680.846   6
  -3   1  -4 158248. 5384.99  24
   3   1   4 144053. 5077.89  26
  -3   1  -4 142617. 5115.09   8
  -3   1  -4 147087. 5091.92   6
  -3   1  -5 52527.9 2857.18  24
   3   1   5 55117.7 3029.33   4
  -3   1  -5 49871.4 2670.29   6
  -3   1  -6 92658.6 4285.99  24
   3   1   6 96293.7 4531.52   4
  -3   1  -7 103022. 4774.45  24
   3   1   7 100254. 4933.48   4
  -3   1  -8 10754.3 1199.10  15
  -3   1  -8 12161.6 1252.22  21
  -3   1  -8 12728.9 1234.90  13
  -3   1  -8 11146.5 1321.31  16
  -3   1  -9 35804.0 2186.04  13
  -3   1  -9 33312.7 2365.51  16
  -3   1  -9 34981.7 2426.44  14
  -3   1 -10 18603.7 1502.29  13
  -3   1 -10 15768.7 1557.34  14
  -3   1 -10 16288.5 1522.36  18
  -3   1 -10 14814.0 1500.80  16
  -3   1 -11 1399.14 416.880  16
  -3   1 -11 2227.26 564.717  14
  -3   1 -11 2309.95 509.438  13
  -3   1 -11 2672.23 594.440  18
  -3   1 -12 7679.59 906.699  14
  -3   1 -12 8450.24 871.025  13
  -3   1 -12 7379.02 874.435  16
  -3   1 -13 532.100 186.258  13
  -3   1 -13 496.116 199.539  14
   3   2 -14 1308.92 382.525  14
   3   2 -13 12441.7 1255.71  14
   3   2 -12 20540.5 1748.19   9
   3   2 -12 18795.7 1710.29  14
   3   2 -11 10600.6 1304.44   9
   3   2 -11 12263.7 1444.69  14
   3   2 -11 11737.6 1409.76  22
   3   2 -11 15137.6 1535.67  16
   3   2 -10 23951.6 2040.73  14
   3   2 -10 28274.0 2254.54  22
   3   2 -10 28701.2 2128.17  18
   3   2 -10 26869.0 2096.41  16
   3   2  -9 13934.6 1508.93  14
   3   2  -9 16533.6 1669.69  22
   3   2  -9 17017.9 1544.29  18
   3   2  -9 19217.6 1695.52  16
   3   2  -8 62978.7 4027.85   8
  -3   2   8 68232.9 3762.44   7
   3   2  -7 22339.3 2147.50   8
  -3   2   7 22783.3 1932.58   7
   3   2  -6 15388.1 1632.82   8
  -3   2   6 16018.9 1494.48   7
   3   2  -5 132502. 5252.35   8
  -3   2   5 140213. 5019.53   7
   3   2  -4 271769. 8468.17   8
  -3   2   4 291139. 8290.58   7
   3   2  -3 68531.6 3355.00  26
   3   2  -3 70628.0 3037.59   8
  -3   2   3 68246.9 2883.55   7
   3   2  -3 73102.4 3387.53   3
  -3   2   3 64452.4 2540.43  27
   3   2  -2 330359. 9925.03  26
   3   2  -2 339608. 9255.70   8
  -3   2   2 331250. 9174.82   7
   3   2  -2 355584. 9964.60   3
  -3   2   2 328179. 8869.55  27
  -3   2   1 454069. 11673.4  24
   3   2  -1 465382. 11809.5   8
   3   2  -1 454752. 12774.7  26
  -3   2   1 451674. 12117.9   7
  -3   2   1 489979. 12018.1  27
   3   2  -1 466177. 12620.0   3
  -3   2   0 388186. 10144.3  24
  -3   2   0 382638. 10376.8   7
   3   2   0 368800. 10818.2  26
   3   2   0 397767. 10721.6   3
   3   2   1 246264. 7742.05  26
  -3   2  -1 252870. 7301.10  24
  -3   2  -1 254500. 7476.54   7
   3   2   1 264669. 7684.09   3
   3   2   2 116811. 4552.32  26
  -3   2  -2 127714. 4419.24  24
  -3   2  -2 123363. 4522.59   7
   3   2   2 127139. 4561.67   3
   3   2   3 598735. 16362.2  26
  -3   2  -3 596892. 16149.7  24
  -3   2  -3 661409. 16624.8   7
   3   2   3 636755. 16322.1   3
   3   2   4 83449.2 3762.30  26
  -3   2  -4 82244.7 3700.04  24
  -3   2  -4 84375.3 3891.78   8
   3   2   4 90654.0 4028.28   4
   3   2   4 89559.6 3767.27   3
   3   2   5 113894. 4812.48  26
  -3   2  -5 119773. 4862.10  24
  -3   2  -5 113158. 5046.33   8
  -3   2  -6 95615.1 4501.33  24
  -3   2  -6 98884.2 4879.23   8
   3   2   6 110876. 5069.58   4
  -3   2  -7 35447.6 2227.37  15
  -3   2  -7 33939.8 2614.48  24
  -3   2  -7 40457.3 2285.90  13
  -3   2  -7 32117.5 2149.69  21
   3   2   7 38233.1 2949.54   4
  -3   2  -8 67533.4 3359.08  15
  -3   2  -8 74338.1 3344.18  13
  -3   2  -9 23767.0 1830.91  15
  -3   2  -9 25881.8 1817.78  13
  -3   2  -9 24615.6 2045.23  14
  -3   2  -9 26224.7 1971.61  18
  -3   2 -10 11930.5 1362.25  14
  -3   2 -10 12872.4 1233.93  13
  -3   2 -10 12786.6 1314.08  18
  -3   2 -11 5697.98 880.660  14
  -3   2 -11 6566.71 823.120  13
  -3   2 -11 7101.05 914.758  18
  -3   2 -12 3087.50 599.350  14
  -3   2 -12 2610.69 493.954  18
  -3   2 -13 394.679 189.639  14
   3   3 -12 3962.91 754.624   9
   3   3 -12 4707.08 721.857  18
   3   3 -11 33908.2 2244.50  18
   3   3 -10 7821.10 1126.15  11
   3   3 -10 8570.04 1110.68  18
   3   3  -9 38784.0 2707.49  22
   3   3  -9 40940.5 2644.78  11
   3   3  -9 41792.3 2524.33  18
   3   3  -8 34193.6 2470.57  22
   3   3  -8 32416.0 2270.42  11
   3   3  -8 35026.6 2253.15  18
   3   3  -7 18836.7 2171.61   8
  -3   3   7 18250.8 1827.98   7
   3   3  -6 169277. 6939.89   8
  -3   3   6 167180. 6239.14   7
   3   3  -5 24475.3 2116.48   8
  -3   3   5 19681.9 1682.20   7
   3   3  -4 313179. 9878.69  26
   3   3  -4 280949. 9248.02   8
  -3   3   4 292488. 8892.78   7
   3   3  -4 301750. 9939.85   3
   3   3  -3 359757. 10864.8   8
   3   3  -3 406661. 11906.1  26
  -3   3   3 373535. 10762.3   7
   3   3  -3 405205. 11961.8   3
   3   3  -2 53656.0 3108.70   3
   3   3  -2 58834.3 3269.17  26
  -3   3   1 141601. 5109.79   7
   3   3  -1 143682. 5533.62   3
   3   3  -1 155764. 5825.61  26
   3   3   0 106016. 4480.80  26
  -3   3   0 102155. 4102.56   7
   3   3   0 96844.5 4220.24   3
   3   3   1 259875. 8224.63  26
  -3   3  -1 239230. 7509.00  24
  -3   3  -1 263409. 8010.31   7
   3   3   1 248303. 8021.25   3
   3   3   2 307043. 9597.77  26
  -3   3  -2 309977. 9211.48  24
  -3   3  -2 325670. 9712.28   7
   3   3   2 305025. 9459.32   3
   3   3   3 73748.0 3694.69  26
  -3   3  -3 73686.8 3505.71  24
  -3   3  -3 81347.5 3937.92   8
  -3   3  -3 79697.9 3849.53   7
   3   3   3 73603.6 3620.96   3
   3   3   4 79406.3 3978.51  26
  -3   3  -4 79246.1 3851.28  24
  -3   3  -4 87367.0 4267.85   8
   3   3   4 81445.9 3949.97   3
   3   3   5 4913.33 961.136  26
  -3   3  -5 3848.48 912.483   8
  -3   3  -5 4326.52 867.257  24
   3   3   5 4401.12 946.484   4
  -3   3  -6 51355.0 2696.20  15
  -3   3  -6 55724.6 2790.91  13
  -3   3  -6 45762.2 3394.23   8
  -3   3  -6 45877.0 2670.60  21
  -3   3  -6 49263.0 2734.91  12
   3   3   6 55434.0 3682.47   4
  -3   3  -7 26737.6 1911.30  15
  -3   3  -7 26358.3 1874.78  13
  -3   3  -7 25299.3 1930.35  12
  -3   3  -8 13227.7 1346.38  15
  -3   3  -8 12965.9 1278.54  13
  -3   3  -8 11737.1 1338.13  12
  -3   3  -8 12131.1 1342.87  18
  -3   3  -9 30055.4 2210.09  14
  -3   3  -9 28860.9 1943.37  13
  -3   3  -9 32045.8 2143.61  18
  -3   3  -9 29794.0 2015.25  15
  -3   3 -10 2255.83 639.170  14
  -3   3 -10 1870.82 553.641  18
  -3   3 -11 2058.34 526.901  14
  -3   3 -11 1835.39 473.227  18
  -3   3 -12 1299.71 369.940  14
  -3   3 -12 1489.77 358.437  18
   3   4 -12 1890.31 451.352   9
   3   4 -11 747.054 343.744  11
   3   4 -11-43.1157 299.379  18
   3   4 -10 10835.2 1247.83  11
   3   4 -10 9945.12 1188.38  18
   3   4  -9 23053.2 1886.64  11
   3   4  -9 25835.3 1912.49  18
   3   4  -8 2457.45 748.779  23
   3   4  -8 1542.11 516.611  11
   3   4  -8 3750.78 728.249  18
   3   4  -7 51857.4 3274.76  23
   3   4  -7 53229.9 3191.71  22
   3   4  -7 53756.9 2968.44  11
   3   4  -7 52848.5 2849.93  18
   3   4  -6 20193.5 1927.34  23
   3   4  -6 18860.2 2151.14   8
   3   4  -6 20379.6 1919.38  22
   3   4  -6 22246.4 1762.72  11
   3   4  -6 19703.1 1648.98  18
  -3   4   5 148502. 6006.17  26
   3   4  -5 135120. 6099.16   8
  -3   4   5 138414. 5781.27   3
  -3   4   5 133334. 5546.31   7
  -3   4   4 109662. 4786.84   3
  -3   4   4 100861. 4695.88  26
  -3   4   4 96472.0 4459.34   7
   3   4  -4 109974. 5531.67   3
  -3   4   3 43315.4 2746.50   3
  -3   4   3 41576.9 2719.32  26
   3   4  -3 45701.4 3259.70   3
  -3   4   3 42731.0 2689.91   7
  -3   4   2 245170. 8219.16   3
   3   4  -2 265859. 9155.51  26
  -3   4   2 240507. 8116.85  26
  -3   4   2 258615. 8314.51   7
   3   4  -2 260534. 9031.94   3
  -3   4   1 10795.0 1248.04   3
   3   4  -1 8635.80 1252.46   3
   3   4  -1 8790.26 1338.46  26
  -3   4   1 8496.27 1157.83   7
   3   4   0 109383. 4951.38  26
  -3   4   0 111294. 4725.08   7
   3   4   0 99619.7 4666.33   3
   3   4   1 48295.7 3108.98  26
  -3   4  -1 55006.1 3227.41   7
   3   4   1 44382.8 2937.07   3
   3   4   2 45927.1 3036.98  26
  -3   4  -2 47927.0 3053.75   7
   3   4   2 44586.6 2953.75   3
   3   4   3 76338.9 4127.30  26
  -3   4  -3 76114.3 4224.15   8
   3   4   3 82695.8 4222.29   3
  -3   4  -4 60920.9 2986.23  15
  -3   4  -4 55669.1 3654.42   8
   3   4   4 57267.7 3599.79  26
  -3   4  -4 63461.6 3069.53  12
   3   4   4 56378.0 3519.25   3
  -3   4  -5 39649.0 2433.27  12
  -3   4  -5 40273.2 2368.24  15
  -3   4  -5 42733.5 2558.28  18
  -3   4  -6 22727.0 1727.82  15
  -3   4  -6 22896.4 1825.39  12
  -3   4  -6 21707.8 1782.98  18
  -3   4  -7 4498.64 822.936  12
  -3   4  -7 3994.79 778.816  18
  -3   4  -8 14006.1 1395.57  12
  -3   4  -8 12821.8 1318.03  18
  -3   4  -9 8601.47 1120.82  14
  -3   4  -9 9265.13 1073.73  12
  -3   4  -9 9209.43 1073.16  18
  -3   4 -10 5171.86 794.188  14
  -3   4 -10 4050.91 648.408  12
  -3   4 -10 5606.22 792.260  18
  -3   4 -11 4735.46 657.982  14
  -3   4 -11 5123.47 653.647  18
   3   5 -11 12014.7 1062.75  11
   3   5 -10 9189.59 1042.03  11
   3   5  -9 26877.2 1891.94  11
   3   5  -9 24978.9 1816.24  18
   3   5  -8 1657.20 619.461  23
   3   5  -8 982.241 416.334  11
   3   5  -7 17096.7 1726.50  23
   3   5  -7 19569.8 1659.07  11
   3   5  -7 17172.5 1580.83  18
   3   5  -6 97961.8 4567.28  23
   3   5  -6 90181.1 4102.36  11
   3   5  -6 96506.3 4213.07  18
   3   5  -5 2152.88 672.370  23
   3   5  -5 1312.10 581.984  22
   3   5  -5 1179.99 487.800  11
   3   5  -5 1275.25 561.739  18
   3   5  -4 170890. 6384.69  23
   3   5  -4 165488. 6143.08  11
   3   5  -3 112651. 4808.44  23
   3   5  -3 112027. 4703.85  11
   3   5  -2 17430.5 2101.02  26
   3   5  -2 22049.4 1859.97  23
   3   5  -2 19701.4 1712.64  11
   3   5  -1 75895.6 4478.83  26
   3   5  -1 83806.9 3895.18  23
   3   5   0 9100.32 1174.14  23
  -3   5   0 7204.10 964.719  12
   3   5   1 83164.7 4013.70  23
  -3   5  -1 92224.4 3969.57  12
  -3   5  -2 85904.3 3882.17  12
  -3   5  -3 37125.0 2352.87  12
  -3   5  -4 36624.1 2341.70  12
  -3   5  -5 16445.6 1511.75  12
  -3   5  -5 17534.6 1589.90  18
  -3   5  -6 14049.1 1392.72  12
  -3   5  -6 16138.1 1484.47  18
  -3   5  -7 7625.06 1011.10  12
  -3   5  -7 7663.24 995.773  18
  -3   5  -8 5219.57 846.204  12
  -3   5  -8 5179.95 774.836  18
  -3   5  -9 7685.52 894.521  12
  -3   5  -9 8047.17 898.608  18
  -3   5  -9 7326.22 893.591  14
  -3   5 -10 1346.69 336.801  14
  -3   5 -10 1687.42 364.466  11
  -3   5 -10 1049.62 290.923  18
   3   6 -10 2825.98 473.041  11
   3   6  -9 9428.35 971.878  11
   3   6  -8 3228.50 636.608  23
   3   6  -8 3919.02 684.086  11
   3   6  -7 10952.2 1287.56  23
   3   6  -7 12083.2 1247.24  11
   3   6  -6 2007.09 610.254  23
   3   6  -6 1921.23 510.022  11
   3   6  -5 24257.9 1977.25  23
   3   6  -5 26175.8 1946.61  11
   3   6  -4 16295.5 1602.51  23
   3   6  -4 15822.0 1667.87  22
   3   6  -4 17332.3 1569.02  11
   3   6  -3 699.257 413.945  23
   3   6  -3-52.0517 418.073  11
   3   6  -2 28147.6 2148.10  23
   3   6  -1 9314.78 1219.55  23
   3   6   0 21012.0 1874.57  23
   3   6   1 9767.29 1221.46  23
  -3   6  -1 7909.88 1024.30  12
  -3   6  -2 2110.52 584.855  23
  -3   6  -2 2217.40 571.908  12
  -3   6  -3 53343.9 2915.46  23
  -3   6  -3 51040.9 2801.80  12
  -3   6  -4 7947.71 1030.45  23
  -3   6  -4 6772.39 964.326  12
  -3   6  -5 11839.0 1223.09  12
  -3   6  -6 9318.81 1046.24  12
  -3   6  -7 11647.5 1076.78  14
  -3   6  -7 11006.8 1066.70  12
  -3   6  -7 10624.7 969.606  18
  -3   6  -8 4847.48 598.638  14
  -3   6  -8 6093.20 716.324  12
  -3   6  -8 4298.15 553.746  18
  -3   6  -9 1121.59 270.230  11
   3   7  -8 6650.89 660.217  11
   3   7  -7 441.941 280.822  23
   3   7  -7 411.974 241.311  11
   3   7  -6 11898.2 1067.95  11
   3   7  -6 12409.7 1173.50  23
   3   7  -5 4901.28 801.649  23
  -3   7   5 3728.95 626.001  23
   3   7  -5 5322.05 740.070  11
   3   7  -4 11164.0 1206.01  23
  -3   7   4 12326.8 1193.74  23
   3   7  -3 6918.77 971.802  23
  -3   7   3 6695.91 897.006  23
   3   7  -2 4379.04 764.361  23
  -3   7   2 4659.13 769.471  23
   3   7  -1 11783.6 1245.30  23
  -3   7   1 9445.64 1045.02  23
   3   7   0 255.648 282.503  23
  -3   7   0 1058.90 413.351  23
   3   7   1 15948.1 1387.54  23
  -3   7  -1 16001.2 1368.00  23
  -3   7  -2 1663.88 486.158  23
  -3   7  -3 8515.44 960.912  23
  -3   7  -3 8101.22 908.124  12
  -3   7  -4 4556.93 670.968  23
  -3   7  -4 5735.04 756.747  12
  -3   7  -5 4169.53 609.019  12
  -3   7  -6 7568.56 741.896  12
  -3   7  -6 8186.46 761.361  11
   3   8  -4 4850.30 580.221  23
   3   8  -3 1519.61 349.669  23
  -3   8   3 902.465 262.861  23
   3   8  -2 4008.65 567.904  23
  -3   8   2 3937.83 536.835  23
   3   8  -1 170.630 212.047  23
  -3   8   1-5.32011 188.911  23
  -3   8   0 4434.28 586.406  23
  -3   8  -1 5354.55 608.057  23
  -3   8  -2 2277.54 375.960  23
   4  -7  -7 393.593 191.655  20
   4  -7  -6 8212.86 828.656  13
   4  -7  -6 8807.20 851.826  20
   4  -7  -5 2375.51 509.415  20
   4  -7  -4 3861.36 659.265  20
  -4  -7   4 4338.54 685.417  17
   4  -7  -3 6287.68 835.624  20
  -4  -7   3 6138.03 836.788  17
  -4  -7   2 2929.92 558.226  17
  -4  -7   1 10019.2 1084.18  17
   4  -7  -1 10165.2 1089.89  30
   4  -7   0 5323.92 802.870  30
  -4  -7   0 4618.12 705.893  20
  -4  -7   0 5202.72 778.787  17
   4  -7   1 5888.27 864.119  30
  -4  -7  -1 4635.99 693.572  20
  -4  -7  -1 4135.23 665.593  17
   4  -7   2 5660.22 833.930  30
  -4  -7  -2 5193.06 720.984  20
  -4  -7  -2 4173.55 639.135  17
   4  -7   3 1947.48 486.526  30
  -4  -7  -3 1597.37 441.723  20
  -4  -7  -3 1023.93 325.300  17
  -4  -7  -4 5386.32 660.371  20
   4  -7   4 5530.69 728.330  30
  -4  -7  -4 4882.25 609.646  17
   4  -7   5 1323.74 350.565  30
  -4  -7  -5 1161.22 271.024  17
   4  -6  -9 4310.76 602.005   9
   4  -6  -9 4179.48 629.755  19
   4  -6  -8 1518.53 464.852   9
   4  -6  -8 1278.28 422.742  19
   4  -6  -7 9773.06 1039.76  20
   4  -6  -7 11161.1 1218.40  19
   4  -6  -7 13329.1 1329.06   9
   4  -6  -6 15790.3 1413.56  20
   4  -6  -6 18449.5 1623.41   9
   4  -6  -5 4848.92 854.159   9
   4  -6  -4 11974.3 1318.58   9
   4  -6  -3 447.418 326.672   9
   4  -6  -2 47300.5 2800.39   9
   4  -6  -2 41511.0 2604.08  30
  -4  -6   1 30509.4 2218.45  17
   4  -6  -1 29757.3 2201.82  30
   4  -6   0 31995.2 2354.16  30
  -4  -6   0 39708.0 2486.30  20
  -4  -6   0 35465.5 2404.14  17
  -4  -6  -1 33347.8 2258.76  20
  -4  -6  -1 33585.0 2318.28  17
   4  -6   1 33683.4 2374.27  30
  -4  -6  -2 7293.84 990.821  20
   4  -6   2 8783.52 1182.64  30
  -4  -6  -2 6074.52 949.429  17
   4  -6   3 37967.8 2495.99  30
  -4  -6  -3 39673.9 2320.73  20
  -4  -6  -3 34766.4 2272.39  17
   4  -6   4 3988.08 776.451  30
  -4  -6  -4 4623.43 746.509  20
  -4  -6  -4 4776.31 802.902  17
  -4  -6  -5 16492.8 1316.28  13
  -4  -6  -5 18017.4 1394.52  20
   4  -6   5 16970.1 1518.39  30
  -4  -6  -5 15776.7 1363.29  17
  -4  -6  -6 12141.4 1052.39  13
  -4  -6  -6 12973.3 1119.73  20
   4  -6   6 14401.0 1295.28  30
  -4  -6  -6 13127.3 1148.82  17
  -4  -6  -7 3698.68 514.953  13
   4  -6   7 3421.49 542.795  30
  -4  -6  -7 3679.13 558.688  17
  -4  -6  -8 2057.80 367.057  17
   4  -5 -11 3487.70 479.087   9
   4  -5 -11 4412.16 670.169  19
   4  -5 -10-98.3094 290.474   9
   4  -5 -10 451.444 468.461  19
   4  -5  -9 25622.9 1928.58  19
   4  -5  -9 26812.1 1925.37   9
   4  -5  -8 14328.1 1485.26   9
   4  -5  -8 11390.4 1322.44  19
   4  -5  -7 2765.86 742.894   9
   4  -5  -7 1861.28 610.318  19
   4  -5  -6 7252.19 1083.22   9
   4  -5  -6 5146.81 957.344  19
   4  -5  -5 5150.36 874.691   9
   4  -5  -5 5639.03 1026.55  19
   4  -5  -4 39646.6 2624.82   9
   4  -5  -3 15483.5 1637.12   9
   4  -5  -2 38236.4 2628.33   9
  -4  -5   1 43432.5 2799.90  20
   4  -5  -1 45472.5 2859.54  30
   4  -5  -1 50300.0 3021.21   9
   4  -5   0 10710.1 1328.63  30
  -4  -5   0 11607.2 1340.45  20
   4  -5   1 15225.7 1588.50  30
  -4  -5  -1 14912.4 1486.68  20
  -4  -5  -1 16630.0 1638.29  17
   4  -5   2 53566.5 3156.72  30
  -4  -5  -2 54203.1 2938.92  20
  -4  -5  -2 52253.3 3117.67  17
   4  -5   3 7827.18 1110.34  30
  -4  -5  -3 8640.42 1095.01  20
  -4  -5  -3 5571.69 1004.43  17
  -4  -5  -4 94846.8 4173.97  13
  -4  -5  -4 92646.0 4353.22  17
   4  -5   4 100015. 4608.83  30
  -4  -5  -5 12219.9 1293.88  13
   4  -5   5 11431.1 1414.67  30
  -4  -5  -5 14842.0 1396.82  20
  -4  -5  -5 12783.5 1402.79  17
  -4  -5  -6 17867.8 1510.49  13
   4  -5   6 19023.4 1770.06  30
  -4  -5  -6 20291.2 1584.17  20
  -4  -5  -6 16679.3 1585.41  17
  -4  -5  -7 23164.9 1625.11  13
  -4  -5  -7 19176.9 1580.44  17
   4  -5   7 20593.3 1736.48  30
  -4  -5  -8 3374.40 565.701  13
  -4  -5  -8 3833.54 685.864  17
  -4  -5  -9 8580.44 793.596  13
  -4  -5  -9 9747.25 918.480  17
   4  -4 -12 970.313 379.140  19
   4  -4 -11 2059.48 539.513   9
   4  -4 -11 2783.54 658.015  19
   4  -4 -10 22514.1 1847.87  19
   4  -4 -10 21849.4 1743.80   9
   4  -4  -9 13022.6 1436.58  19
   4  -4  -9 16904.4 1620.75   9
   4  -4  -8 15492.2 1613.99  19
   4  -4  -8 22674.1 1921.33   9
   4  -4  -7 234838. 7745.65   9
   4  -4  -7 202245. 7536.21  19
   4  -4  -6 18440.0 1699.68   9
   4  -4  -6 13722.4 1570.43  19
   4  -4  -5 53206.4 2991.92   9
   4  -4  -5 47184.2 2983.34  19
   4  -4  -4 53203.4 3934.32   5
  -4  -4   4 58294.9 3446.09  25
   4  -4  -4 53917.4 3600.80   2
  -4  -4   4 62594.2 3837.32  29
   4  -4  -4 62049.4 3244.61   9
   4  -4  -3 47937.6 3672.50   5
  -4  -4   3 47047.3 3030.42  25
   4  -4  -3 49589.6 3414.52   2
   4  -4  -2 178976. 7969.35   5
  -4  -4   2 197003. 7133.35  25
   4  -4  -2 193071. 7689.65   2
  -4  -4   1 26504.9 2181.94  25
   4  -4  -1 29209.9 2550.31   2
  -4  -4   0 83233.2 4293.61  28
  -4  -4   0 90619.8 4313.70  25
   4  -4   0 87722.4 4751.48   2
   4  -4   1 60149.2 3909.94   2
  -4  -4  -1 57188.4 3535.94  28
  -4  -4  -2 65802.2 3906.17  28
   4  -4   2 65168.1 4215.87   2
  -4  -4  -2 59649.4 3792.50  24
  -4  -4  -2 63970.7 3109.02  20
  -4  -4  -2 64638.1 3440.58  17
  -4  -4  -2 59560.2 3833.48   6
   4  -4   2 60133.2 3275.27  30
  -4  -4  -3 16067.1 1427.28  20
  -4  -4  -3 17454.6 1701.42  17
   4  -4   3 14757.6 1548.61  30
   4  -4   4 42689.3 2807.84  30
  -4  -4  -4 46970.0 2573.66  20
  -4  -4  -4 39185.3 2472.22  13
  -4  -4  -4 45079.8 2844.72  17
  -4  -4  -5 51094.3 2853.94  13
  -4  -4  -5 53757.1 2831.61  20
  -4  -4  -5 48741.5 2990.06  17
   4  -4   5 51046.3 3182.20  30
  -4  -4  -6 36691.5 2332.74  13
   4  -4   6 37173.4 2671.25  30
  -4  -4  -6 37749.3 2302.92  20
  -4  -4  -6 33083.1 2371.13  17
  -4  -4  -6 32761.8 2260.03  16
  -4  -4  -7 12519.4 1284.30  13
  -4  -4  -7 9848.11 1254.30  17
  -4  -4  -7 12021.3 1271.65  16
   4  -4   7 11124.0 1403.83  30
  -4  -4  -8 6609.92 888.080  16
  -4  -4  -8 9341.06 1046.74  13
  -4  -4  -8 9551.00 1162.92  17
  -4  -4  -9 2724.21 543.336  13
  -4  -4  -9 2159.45 474.604  16
  -4  -4  -9 2159.38 574.192  17
  -4  -4 -10 3468.46 505.380  16
  -4  -4 -10 3990.44 559.025  13
  -4  -4 -10 4449.32 655.129  17
  -4  -4 -11 3812.75 449.739  13
   4  -3 -13 5310.49 725.727  19
   4  -3 -12 6125.85 873.313  19
   4  -3 -12 5187.81 738.394   9
   4  -3 -11 31122.2 2076.57   9
   4  -3 -11 34194.8 2310.37  14
   4  -3 -11 32583.6 2271.74  19
   4  -3 -10 2528.19 674.879   9
   4  -3 -10 3330.48 775.286  14
   4  -3 -10 3116.29 772.591  19
   4  -3  -9 155364. 5886.86  14
   4  -3  -9 137456. 5649.34  19
   4  -3  -9 146145. 5710.56   9
   4  -3  -8 100099. 4444.26   9
   4  -3  -8 107159. 4609.63  14
  -4  -3   7 23510.6 2303.13  29
   4  -3  -7 28546.1 2153.74  14
   4  -3  -7 27200.8 2380.31  22
   4  -3  -7 22500.3 2456.63   5
   4  -3  -7 21804.0 1871.86  19
   4  -3  -7 27300.8 2054.57   9
  -4  -3   6 96883.8 4787.16  29
   4  -3  -6 92133.0 5037.88   5
  -4  -3   6 94520.3 4562.94  27
  -4  -3   6 91613.9 4469.69  25
   4  -3  -6 87223.7 4790.48   1
  -4  -3   5 18707.4 1850.07  29
   4  -3  -5 19344.3 2101.20   5
  -4  -3   5 16346.3 1642.96  25
  -4  -3   5 19737.0 1810.42  27
   4  -3  -5 14814.9 1741.08   1
  -4  -3   4 174049. 6410.80  29
  -4  -3   4 163581. 5982.38  27
   4  -3  -4 143601. 6235.36   1
  -4  -3   4 161222. 5963.91  25
   4  -3  -4 157819. 6327.74   2
   4  -3  -4 154400. 6786.21   5
  -4  -3   3 179773. 6329.63  27
   4  -3  -3 176996. 7238.95   5
  -4  -3   3 179942. 6326.73  25
  -4  -3   3 188237. 6733.24  29
   4  -3  -3 178175. 6791.60   2
   4  -3  -3 164735. 6661.70   1
  -4  -3   2 74924.8 3518.17  27
  -4  -3   2 85448.5 3969.39  29
   4  -3  -2 81408.3 4072.13   2
  -4  -3   2 78796.6 3636.65  25
   4  -3  -2 69548.7 3780.62   1
  -4  -3   1 234244. 7553.68  27
  -4  -3   1 242308. 7731.17  25
   4  -3  -1 230750. 8214.13   2
  -4  -3   1 237269. 7659.87  28
  -4  -3   0 66084.9 3348.06  28
  -4  -3   0 66138.6 3301.72  25
  -4  -3   0 62521.3 3197.25  27
   4  -3   0 71661.1 3790.34   2
  -4  -3  -1 19685.1 1757.54  28
   4  -3   1 19913.0 2032.42   4
  -4  -3  -1 19635.8 1731.58  25
   4  -3   1 20830.9 1977.66   2
  -4  -3  -2 170357. 6359.32  28
   4  -3   2 171737. 7097.90   4
  -4  -3  -2 162148. 6433.79  24
   4  -3   2 156084. 6662.20   2
  -4  -3  -3 18554.4 1876.06  28
   4  -3   3 19182.7 2206.85   4
  -4  -3  -3 19055.4 1945.71  24
   4  -3   3 19281.1 2091.13   2
  -4  -3  -3 20962.9 2137.78   6
  -4  -3  -4 102060. 4906.03  28
   4  -3   4 101057. 5517.16   4
  -4  -3  -4 89674.3 4745.18  24
  -4  -3  -4 98431.2 5153.99   6
  -4  -3  -5 35377.3 2286.08  13
  -4  -3  -5 38276.7 2269.49  20
  -4  -3  -5 38155.4 2563.80  17
   4  -3   5 33329.2 2473.84  30
  -4  -3  -6 3153.77 677.947  13
  -4  -3  -6 3940.54 720.688  20
  -4  -3  -6 3350.31 794.890  17
   4  -3   6 3606.67 867.161  30
  -4  -3  -7 23909.2 1823.72  13
   4  -3   7 21279.6 2033.30  30
  -4  -3  -7 23203.6 1966.03  17
  -4  -3  -7 22624.1 1921.54  16
  -4  -3  -8 6026.78 906.559  13
  -4  -3  -8 5220.11 919.768  16
  -4  -3  -8 5868.89 971.729  17
  -4  -3  -9 5589.50 826.658  13
  -4  -3  -9 4313.81 786.215  16
  -4  -3  -9 4647.61 833.546  17
  -4  -3 -10 2306.58 513.408  13
  -4  -3 -10 1799.26 508.195  16
  -4  -3 -10 2244.14 597.161  17
  -4  -3 -11 2391.04 464.195  16
  -4  -3 -11 2204.31 424.823  13
  -4  -3 -11 2503.66 519.748  17
   4  -2 -13 2050.38 598.459  14
   4  -2 -12 12044.2 1224.84   9
   4  -2 -12 14627.4 1462.89  14
   4  -2 -12 12482.5 1340.34  19
   4  -2 -12 15328.5 1455.73  16
   4  -2 -11 2481.36 647.221   9
   4  -2 -11 2862.00 683.600  14
   4  -2 -11 3042.33 776.067  22
   4  -2 -11 3207.01 745.939  19
   4  -2 -11 3283.05 731.035  16
   4  -2 -10 26076.7 2024.29   9
   4  -2 -10 27031.3 2106.43  14
   4  -2 -10 23004.1 2135.63  22
   4  -2 -10 27749.8 2212.87  19
   4  -2 -10 26143.4 2027.46  16
   4  -2  -9 54531.0 3067.62   9
   4  -2  -9 55647.8 3083.46  14
   4  -2  -9 53995.5 3356.71  22
   4  -2  -9 50489.1 3033.11  19
   4  -2  -9 52464.3 2962.40  16
   4  -2  -8 25700.9 2006.97   9
   4  -2  -8 23934.3 1913.32  14
  -4  -2   8 21256.1 2035.72  25
   4  -2  -8 25154.4 2167.74  22
   4  -2  -8 22380.5 1883.62  19
   4  -2  -8 22131.3 1773.59  16
  -4  -2   7 126744. 5426.63  25
   4  -2  -7 126217. 5928.96   1
   4  -2  -6 110848. 5167.45   5
  -4  -2   6 126977. 5069.99  27
  -4  -2   6 108469. 4704.51  25
  -4  -2   6 117645. 4970.79  29
   4  -2  -6 107185. 5136.30   1
  -4  -2   5 147528. 5470.03  29
   4  -2  -5 135191. 5650.01   5
  -4  -2   5 147467. 5407.39  27
  -4  -2   5 138569. 5216.35  25
   4  -2  -5 131418. 5684.54   1
   4  -2  -5 129139. 5241.34   2
  -4  -2   4 162183. 5663.88  29
   4  -2  -4 151265. 5976.88   5
  -4  -2   4 156539. 5541.73  27
  -4  -2   4 153827. 5465.75  25
   4  -2  -4 151235. 5721.32   2
   4  -2  -4 144754. 5924.98   1
  -4  -2   3 23134.7 1693.65  29
   4  -2  -3 19166.9 1779.33   5
  -4  -2   3 24624.7 1704.41  25
  -4  -2   3 20883.3 1605.60  27
   4  -2  -3 18953.3 1749.16   1
   4  -2  -3 20326.4 1733.89   2
  -4  -2   2 444358. 12122.5  27
  -4  -2   2 430954. 12049.8  25
   4  -2  -2 433598. 12611.3   2
  -4  -2   2 462819. 12314.9  29
  -4  -2   1 172873. 5590.14  28
  -4  -2   1 166326. 5666.04  25
   4  -2  -1 171254. 6149.57   4
  -4  -2   1 171499. 5695.54  27
   4  -2  -1 169661. 6158.49   2
  -4  -2   0 429368. 11447.3  28
  -4  -2   0 409251. 11401.4  25
   4  -2   0 393398. 11777.2   4
  -4  -2   0 424229. 11527.6  27
   4  -2   0 384237. 11778.1   2
  -4  -2  -1 168126. 5735.90  28
  -4  -2  -1 163196. 5792.46  27
   4  -2   1 152774. 5953.46   4
  -4  -2  -1 162983. 5810.52  24
   4  -2   1 153321. 5938.29   2
  -4  -2  -2 61121.7 3148.95  28
   4  -2   2 58182.3 3378.38   4
  -4  -2  -2 59237.1 3202.00  24
   4  -2   2 66357.7 3484.19   2
  -4  -2  -3 228837. 7572.02  28
   4  -2   3 215665. 7973.02   4
  -4  -2  -3 210701. 7510.74  24
   4  -2   3 213028. 7768.25   2
  -4  -2  -4 36815.9 2615.34  24
   4  -2   4 35884.0 2690.52   2
   4  -2   4 39436.7 2977.71   4
  -4  -2  -4 35139.2 2776.07   6
  -4  -2  -5 55256.3 3403.22  24
   4  -2   5 56731.1 3801.31   4
  -4  -2  -5 53802.7 3641.78   6
  -4  -2  -6 20440.0 2071.89  24
   4  -2   6 24174.1 2546.90   4
  -4  -2  -6 26763.2 1895.77  13
  -4  -2  -6 27079.4 2096.41  17
   4  -2   6 25264.8 2105.15  30
  -4  -2  -7 5279.30 943.357  16
  -4  -2  -7 5223.82 826.065  13
  -4  -2  -7 4624.57 876.231  17
  -4  -2  -8 4676.33 873.825  16
  -4  -2  -8 4323.01 758.426  13
  -4  -2  -8 3978.84 858.357  17
  -4  -2  -9 1787.06 542.437  16
  -4  -2  -9 2003.44 485.400  13
  -4  -2  -9 2352.16 672.912  17
  -4  -2 -10 1384.14 425.670  13
  -4  -2 -10 1586.87 543.077  16
  -4  -2 -10 1319.94 464.531  17
  -4  -2 -11 2090.64 497.140  16
  -4  -2 -11 2754.72 512.302  13
  -4  -2 -12 577.679 227.824  13
  -4  -2 -12 643.753 217.622  16
   4  -1 -14 6348.69 854.256  14
   4  -1 -13 9638.22 1016.46   9
   4  -1 -13 13502.7 1398.07  14
   4  -1 -12 7782.09 1024.33   9
   4  -1 -12 6684.95 1035.13  14
   4  -1 -12 7282.55 1155.94  22
   4  -1 -12 9153.60 1203.02  16
   4  -1 -11 28804.7 2131.98   9
   4  -1 -11 32529.3 2343.28  14
   4  -1 -11 27223.1 2249.95  22
   4  -1 -11 33706.1 2330.06  16
   4  -1 -10 2466.61 600.117   9
   4  -1 -10 3109.80 749.608  14
   4  -1 -10 3554.10 825.874  22
   4  -1 -10 2851.26 653.307  19
   4  -1 -10 3514.76 753.934  16
   4  -1  -9 86048.0 4053.30   9
   4  -1  -9 93663.7 4182.67  14
   4  -1  -9 82218.6 4161.22  22
   4  -1  -9 84392.5 4054.50  19
   4  -1  -9 91387.6 4017.60  16
   4  -1  -8 76393.3 4404.55   1
  -4  -1   8 83618.9 4311.72  27
  -4  -1   7 65862.8 3518.81  27
  -4  -1   7 65170.3 3282.90  25
   4  -1  -7 62031.2 3733.26   1
   4  -1  -6 258116. 8907.47   1
  -4  -1   6 270608. 8418.55  27
  -4  -1   6 258046. 8124.11  25
  -4  -1   5 51816.7 2692.75  27
  -4  -1   5 51044.3 2592.39  25
   4  -1  -5 46788.1 2933.14   1
   4  -1  -5 44742.9 2556.06   2
   4  -1  -4 416984. 11818.8   5
  -4  -1   4 450586. 11825.2  25
  -4  -1   4 431391. 11539.9  29
   4  -1  -4 438370. 12593.4   1
  -4  -1   4 437686. 11852.7  27
   4  -1  -4 414430. 12050.7   2
  -4  -1   3 82715.5 3154.05  29
  -4  -1   3 80596.8 3296.51  27
   4  -1  -3 76473.9 3396.20   5
  -4  -1   3 81395.1 3304.15  25
   4  -1  -3 82821.2 3649.50   2
   4  -1  -2 125865. 4685.30   2
  -4  -1   2 120819. 4248.71  27
   4  -1  -2 116221. 4287.66   4
  -4  -1   2 117132. 4186.06  25
  -4  -1   2 113351. 3822.39   7
   4  -1  -1 545915. 14628.2   2
  -4  -1   1 553729. 14187.7  27
  -4  -1   1 565556. 14162.7  25
   4  -1  -1 551533. 14329.2   4
  -4  -1   1 514173. 13430.9   7
  -4  -1   0 532.887 332.531  27
  -4  -1   0-24.1827 331.157  24
  -4  -1  -1 188681. 6210.47  24
   4  -1   1 188279. 6392.64   4
  -4  -1  -1 188938. 6280.00  27
   4  -1   1 189969. 6456.45   2
  -4  -1  -2 322424. 9638.71  24
   4  -1   2 328407. 9950.64   4
   4  -1   2 328271. 9858.05   2
  -4  -1  -3 11769.8 1298.49  24
   4  -1   3 14300.8 1495.32   4
   4  -1   3 12609.6 1396.34   2
  -4  -1  -4 169675. 6396.92  24
   4  -1   4 183599. 6858.51   4
   4  -1   4 175763. 6519.60   2
  -4  -1  -4 179062. 6883.57   6
  -4  -1  -5 72917.4 3830.63  24
   4  -1   5 79648.6 4260.17   4
  -4  -1  -5 71961.8 4090.14   6
   4  -1   6 2766.48 777.168   4
  -4  -1  -6 2877.74 738.614  24
  -4  -1  -6 3284.39 791.636   6
   4  -1   6 2714.22 698.248  29
  -4  -1  -7 59336.0 3080.40  15
  -4  -1  -7 62766.8 3028.48  13
  -4  -1  -7 57431.0 3090.71  21
  -4  -1  -7 54944.3 3122.10  17
  -4  -1  -7 58935.2 3237.05  16
  -4  -1  -8 1815.30 609.394  16
  -4  -1  -8 2296.07 569.685  13
  -4  -1  -8 1969.22 599.413  21
  -4  -1  -8 2559.91 645.272  17
  -4  -1  -9 15511.4 1367.46  13
  -4  -1  -9 14712.0 1442.82  21
  -4  -1  -9 16672.0 1588.24  17
  -4  -1  -9 16768.9 1613.95  16
  -4  -1 -10 11570.2 1123.22  13
  -4  -1 -10 9352.81 1127.92  17
  -4  -1 -10 10591.9 1246.48  16
  -4  -1 -11 929.817 432.226  16
  -4  -1 -11 725.263 336.612  13
  -4  -1 -12 4396.23 648.564  16
  -4  -1 -12 2866.71 473.750  13
   4   0 -14 4368.92 724.984  14
   4   0 -13 1245.60 395.798   9
   4   0 -13 1226.35 512.105  14
   4   0 -13 1619.98 559.382  22
   4   0 -12 24292.0 1917.68   9
   4   0 -12 24526.4 2072.31  22
   4   0 -12 25837.2 2118.83  14
   4   0 -12 30515.0 2133.88  16
   4   0 -11 12604.5 1396.52   9
   4   0 -11 11640.2 1427.66  14
   4   0 -11 10223.8 1375.92  22
   4   0 -11 12653.2 1407.21  16
   4   0 -10 29656.7 2212.13   9
   4   0 -10 29504.5 2256.05  14
   4   0 -10 26915.7 2215.21  22
   4   0 -10 30590.6 2154.26  16
   4   0  -9 22236.9 1843.42   9
   4   0  -9 23063.1 1916.07  14
   4   0  -9 21005.9 1882.86  22
   4   0  -9 24388.6 1857.24  16
  -4   0   8 47.6344 431.386  27
   4   0  -8 1143.25 538.546   8
   4   0  -8-115.929 238.585   1
  -4   0   8 307.861 369.724   7
  -4   0   7 246275. 7962.87  27
   4   0  -7 224936. 8151.11   8
  -4   0   7 246173. 7871.40   7
  -4   0   6 13093.9 1311.58  27
   4   0  -6 10998.9 1383.81   1
   4   0  -6 12741.7 1454.05   8
  -4   0   6 14260.7 1375.56   7
   4   0  -5 29651.5 1991.54   2
  -4   0   5 29863.4 1942.41  27
  -4   0   5 31316.9 1848.32  25
  -4   0   5 31207.1 1944.35   7
   4   0  -5 28985.7 2164.35   1
  -4   0   4 315190. 8969.88  27
  -4   0   4 334237. 8937.73  25
   4   0  -4 296715. 9175.19   2
  -4   0   4 317142. 8903.17   7
   4   0  -4 298246. 9587.28   1
  -4   0   3 39463.7 2086.62  27
   4   0  -3 37830.5 2255.43   2
  -4   0   3 40713.4 2056.64  24
  -4   0   3 36467.4 1912.07   7
  -4   0   2 320965. 9279.75  27
  -4   0   2 358930. 9409.66  25
  -4   0   2 364841. 9477.53  24
   4   0  -2 317283. 9093.04   4
   4   0  -2 345066. 9820.97   2
  -4   0   2 333176. 9040.90   7
  -4   0   1 13693.7 1140.21  27
  -4   0   1 15073.0 1202.71  24
   4   0  -1 17605.4 1419.01   2
   4   0  -1 16269.0 1220.05   4
  -4   0   1 13588.8 1010.80   7
  -4   0   0 225405. 7042.28  27
   4   0   0 255852. 7486.48   2
  -4   0   0 243361. 7057.05  24
   4   0   0 242686. 7037.75   4
  -4   0   0 213010. 6455.69   7
   4   0   1 395494. 10785.1   2
  -4   0  -1 381142. 10419.3  24
  -4   0  -1 380589. 10602.6  27
   4   0   1 376343. 10468.2   4
  -4   0  -1 350957. 9740.98   7
   4   0   2 139009. 5136.25   2
  -4   0  -2 133536. 4896.02  24
   4   0   2 139889. 5079.27   4
   4   0   3 325737. 9849.16   2
  -4   0  -3 326093. 9692.21  24
   4   0   3 336695. 9960.48   4
  -4   0  -4 75108.7 3599.80  24
   4   0   4 80657.0 3871.07   4
  -4   0  -4 70538.8 3697.35   6
  -4   0  -5 113798. 4989.81  24
   4   0   5 122534. 5283.46   4
  -4   0  -5 111720. 5072.07   6
  -4   0  -6 29244.8 2348.78  24
   4   0   6 27470.5 2419.48   4
  -4   0  -6 25937.7 2293.67   6
  -4   0  -7 1141.33 473.910  16
  -4   0  -7 862.061 387.548  15
  -4   0  -7 613.624 343.818  13
  -4   0  -7 1037.53 381.441  21
  -4   0  -8 12136.2 1311.20  15
  -4   0  -8 14593.1 1325.78  13
  -4   0  -8 13700.3 1416.41  21
  -4   0  -8 12525.0 1444.05  16
  -4   0  -9 2795.02 708.426  16
  -4   0  -9 2843.14 645.097  13
  -4   0  -9 3182.01 660.572  21
  -4   0 -10 4644.96 844.998  16
  -4   0 -10 4957.46 744.470  13
  -4   0 -11 693.163 414.600  16
  -4   0 -11 933.947 361.533  13
  -4   0 -12 109.381 175.461  13
  -4   0 -12-117.976 187.762  16
   4   1 -14 5341.21 753.383  14
   4   1 -13 9123.05 1062.10   9
   4   1 -13 10497.4 1206.64  14
   4   1 -13 10459.8 1223.03  22
   4   1 -12 9840.04 1271.95  14
   4   1 -12 7882.55 1117.37   9
   4   1 -12 8975.96 1225.46  22
   4   1 -11 24472.3 2041.39   9
   4   1 -11 23804.0 2067.83  14
   4   1 -11 29054.2 2297.88  22
   4   1 -11 31737.7 2224.72  16
   4   1 -10 3389.08 765.152  14
   4   1 -10 2639.16 710.034   9
   4   1 -10 1554.70 556.781  22
   4   1 -10 2262.56 628.266  16
   4   1  -9 86868.8 4079.60   9
   4   1  -9 79183.6 3999.82  14
   4   1  -9 90769.3 4345.93  22
   4   1  -8 79359.8 4469.38   8
  -4   1   8 96956.1 4517.42   7
  -4   1   7 62334.3 3302.95  27
   4   1  -7 65735.5 3699.67   8
   4   1  -7 56506.1 3324.37   1
  -4   1   7 72113.3 3575.24   7
   4   1  -6 237040. 8250.57   1
  -4   1   6 258662. 8105.70  27
   4   1  -6 244195. 8423.27   8
  -4   1   5 44645.5 2384.74  27
   4   1  -5 44244.5 2627.33   8
  -4   1   5 44678.8 2439.04   7
   4   1  -5 42055.4 2588.42   1
   4   1  -4 441900. 12710.8   8
   4   1  -4 444855. 12924.9   1
  -4   1   4 469410. 12478.8   7
  -4   1   3 73893.9 3038.20  27
   4   1  -3 74828.2 3238.77   8
  -4   1   3 71650.1 3013.82   7
  -4   1   2 119774. 3960.62  24
   4   1  -2 113341. 3839.51   4
  -4   1   2 119934. 4145.10  27
  -4   1   2 114049. 4046.84   7
  -4   1   1 609866. 15115.0  27
  -4   1   1 582343. 14785.7  24
   4   1  -1 572155. 14702.5   4
  -4   1   1 549611. 14680.4   7
   4   1  -1 594172. 15562.3  26
  -4   1   0 2615.52 549.270  27
   4   1   0 1618.77 485.057  26
  -4   1   0 1611.49 427.928  24
   4   1   0 1018.22 358.984   4
  -4   1   0 1359.45 381.956   7
   4   1   1 199898. 6525.66  26
  -4   1  -1 199752. 6178.57  24
   4   1   1 195562. 6203.61   4
  -4   1  -1 183228. 5928.63   7
   4   1   2 308402. 9524.91  26
  -4   1  -2 314941. 9329.79  24
   4   1   2 337092. 9753.50   2
  -4   1  -2 321259. 9232.18   7
   4   1   2 336284. 9558.23   4
   4   1   3 11285.8 1217.64  26
  -4   1  -3 12726.8 1283.48  24
   4   1   3 11637.0 1250.97   2
  -4   1  -3 11716.5 1177.43   8
  -4   1  -3 10866.9 1161.69   7
   4   1   3 13152.1 1337.56   4
  -4   1  -3 11575.4 1185.46   6
  -4   1  -4 186788. 6564.51  24
   4   1   4 186234. 6759.33   4
  -4   1  -5 75895.5 3825.52  24
   4   1   5 74380.0 3932.93   4
  -4   1  -6 3020.11 736.930  24
   4   1   6 3150.99 806.737   4
  -4   1  -7 65476.7 3207.60  15
  -4   1  -7 64180.2 3057.98  13
  -4   1  -7 63562.5 3199.29  21
  -4   1  -7 58658.6 3270.78  16
  -4   1  -8 3194.77 686.681  15
  -4   1  -8 3039.20 684.653  14
  -4   1  -8 2479.44 592.914  13
  -4   1  -8 1535.85 546.572  21
  -4   1  -8 2220.46 653.598  16
  -4   1  -9 14613.6 1426.58  15
  -4   1  -9 14700.9 1482.43  14
  -4   1  -9 17900.4 1458.65  13
  -4   1  -9 14005.8 1384.77  21
  -4   1  -9 14824.3 1501.56  16
  -4   1 -10 9874.59 1116.21  14
  -4   1 -10 9869.67 1038.33  13
  -4   1 -10 10290.0 1160.36  18
  -4   1 -10 10636.2 1187.85  16
  -4   1 -11 479.200 236.503  14
  -4   1 -11 990.058 343.837  13
  -4   1 -11 1074.15 398.761  16
  -4   1 -11 1155.60 381.619  18
  -4   1 -12 2910.57 448.317  14
  -4   1 -12 3509.72 508.737  13
   4   2 -13 1275.77 438.581   9
   4   2 -13 1685.73 463.144  22
   4   2 -12 12275.4 1352.09   9
   4   2 -12 14262.2 1483.23  22
   4   2 -11 2264.65 690.984   9
   4   2 -11 3486.87 838.472  22
   4   2 -10 29417.3 2370.87  22
   4   2 -10 32709.2 2300.69  18
   4   2  -9 57116.1 3391.84  22
   4   2  -9 53779.7 3021.60  18
   4   2  -8 23590.7 2088.11  23
   4   2  -8 27100.6 2214.88  22
  -4   2   8 28406.6 2401.61   7
   4   2  -8 25603.1 1962.55  11
   4   2  -8 23691.0 1845.89  18
   4   2  -7 129089. 6010.79   8
  -4   2   7 151455. 5942.68   7
   4   2  -6 115665. 5221.88   8
  -4   2   6 124654. 5064.53   7
   4   2  -5 133238. 5481.75   8
  -4   2   5 147953. 5374.86   7
   4   2  -4 167941. 6056.44   8
  -4   2   4 169363. 5831.72   7
   4   2  -3 15458.3 1646.65  26
   4   2  -3 19385.3 1521.77   8
  -4   2   3 16762.0 1283.67  27
  -4   2   3 15037.1 1314.54   7
   4   2  -2 441089. 13187.8  26
  -4   2   2 462859. 12052.7  27
  -4   2   2 436478. 12068.4   7
  -4   2   1 193869. 5978.85  27
  -4   2   1 171661. 5551.29  24
   4   2  -1 186541. 6713.93  26
   4   2  -1 173424. 5679.40   4
  -4   2   1 175582. 5848.47   7
   4   2  -1 194208. 6598.79   3
  -4   2   0 397137. 10790.2  24
  -4   2   0 384254. 10905.2   7
   4   2   0 391499. 11714.3  26
   4   2   0 369359. 10769.5   4
   4   2   1 166719. 6193.05  26
  -4   2  -1 160631. 5584.11  24
  -4   2  -1 161288. 5658.83   7
   4   2   1 165655. 5715.25   4
   4   2   1 179922. 6249.02   3
   4   2   2 55176.3 3174.20  26
  -4   2  -2 58735.7 2937.68  24
  -4   2  -2 56986.6 2966.13   7
   4   2   2 54690.3 2955.86   4
   4   2   2 61661.4 3242.18   3
   4   2   3 221008. 7872.98  26
  -4   2  -3 220845. 7530.77  24
  -4   2  -3 246905. 7914.09   7
   4   2   3 237196. 7901.40   4
   4   2   3 240247. 7959.51   3
   4   2   4 35082.7 2529.24  26
  -4   2  -4 34541.5 2397.52  24
  -4   2  -4 34182.8 2466.32   8
   4   2   4 38144.3 2638.35   4
  -4   2  -5 50671.3 3127.15  24
   4   2   5 56767.1 3493.69   4
  -4   2  -6 29237.2 1967.53  15
  -4   2  -6 26380.9 1835.67  13
  -4   2  -6 25178.5 1902.17  21
  -4   2  -7 5275.79 845.335  15
  -4   2  -7 4809.18 777.403  13
  -4   2  -7 4340.22 778.920  21
  -4   2  -8 2219.20 570.618  15
  -4   2  -8 3100.47 633.771  13
  -4   2  -8 2109.34 525.189  21
  -4   2  -9 1099.60 401.983  15
  -4   2  -9 1181.40 486.007  14
  -4   2  -9 1669.69 514.575  13
  -4   2 -10 1567.11 468.893  15
  -4   2 -10 2067.24 542.528  14
  -4   2 -10 1619.60 443.635  13
  -4   2 -10 1719.09 481.833  18
  -4   2 -11 1525.34 425.046  14
  -4   2 -11 1735.94 403.020  13
  -4   2 -11 2387.99 509.199  18
  -4   2 -12 447.106 192.149  14
  -4   2 -12 156.537 117.467  18
   4   3 -13 3541.67 590.935   9
   4   3 -12 4214.63 761.909   9
   4   3 -11 27315.6 2096.88  22
   4   3 -10 3431.14 786.898  22
   4   3 -10 1837.43 558.413  18
   4   3 -10 2673.82 752.873  11
   4   3  -9 150814. 6062.25  22
   4   3  -9 139078. 5604.11  11
   4   3  -9 142317. 5500.49  18
   4   3  -8 88749.6 4663.15  23
   4   3  -8 105630. 4853.09  22
   4   3  -8 101011. 4422.09  11
   4   3  -8 98735.8 4277.36  18
   4   3  -7 24325.1 2135.54  22
   4   3  -7 24601.6 1915.47  11
   4   3  -7 25697.6 1899.20  18
   4   3  -7 23182.4 2098.45  23
   4   3  -6 82501.8 4587.28   8
  -4   3   6 94845.1 4411.54   7
   4   3  -5 16745.0 1783.51   8
  -4   3   5 15378.6 1563.51   7
  -4   3   4 162536. 5947.64   7
   4   3  -3 188360. 7331.45  26
  -4   3   3 164109. 5996.69   7
   4   3  -2 84024.8 4432.26  26
  -4   3   2 72383.1 3481.95   7
   4   3  -2 83528.8 4367.67   3
   4   3  -1 266310. 9223.46  26
  -4   3   1 248676. 8088.40   7
   4   3  -1 268524. 9124.06   3
   4   3   0 76347.3 4047.29  26
  -4   3   0 63980.5 3307.68   7
   4   3   0 70566.0 3800.89   3
   4   3   1 21782.5 2078.14  26
  -4   3  -1 20841.3 1675.28  24
  -4   3  -1 21165.0 1835.54   7
   4   3   1 19431.2 1894.10   3
   4   3   2 160906. 6494.20  26
  -4   3  -2 149913. 5827.88  24
  -4   3  -2 173180. 6432.10   7
   4   3   2 157642. 6156.28   4
   4   3   2 165644. 6530.67   3
   4   3   3 17288.2 1849.12  26
  -4   3  -3 17410.5 1688.13  24
  -4   3  -3 17031.8 1805.47   8
  -4   3  -3 16898.5 1769.12   7
   4   3   3 21313.1 1968.12   4
   4   3   3 17611.5 1877.06   3
   4   3   4 85514.9 4598.13  26
  -4   3  -4 94109.4 4461.15  24
  -4   3  -4 89531.7 4641.84   8
   4   3   4 95326.8 4798.36   4
  -4   3  -5 40638.0 2371.41  15
   4   3   5 34320.4 2856.45  26
  -4   3  -5 45937.5 2490.08  13
  -4   3  -5 32834.2 2800.93   8
  -4   3  -5 39291.4 2438.38  21
  -4   3  -5 43352.2 2529.78  12
  -4   3  -6 6792.15 955.472  15
  -4   3  -6 5589.26 867.386  13
  -4   3  -6 5157.65 851.578  21
  -4   3  -6 5577.30 861.180  12
  -4   3  -7 25825.1 1881.56  15
  -4   3  -7 29038.4 1955.20  13
  -4   3  -7 25723.1 1963.38  12
  -4   3  -8 7165.54 954.009  15
  -4   3  -8 6508.27 877.862  13
  -4   3  -8 6484.47 969.074  12
  -4   3  -8 6338.56 943.620  18
  -4   3  -9 6052.70 848.871  15
  -4   3  -9 5631.78 924.552  14
  -4   3  -9 5267.55 842.753  18
  -4   3 -10 2431.28 574.675  14
  -4   3 -10 2963.38 586.951  18
  -4   3 -11 2153.17 440.620  14
  -4   3 -11 2117.09 457.883  18
   4   4 -12 424.169 290.597   9
   4   4 -11 2223.66 532.980  11
   4   4 -10 17473.4 1619.21  22
   4   4 -10 18528.1 1604.07  11
   4   4  -9 13266.8 1556.66  23
   4   4  -9 14337.7 1557.69  22
   4   4  -9 12675.6 1391.43  11
   4   4  -8 18188.5 1795.56  22
   4   4  -8 15332.6 1707.62  23
   4   4  -8 16253.1 1598.86  11
   4   4  -8 15417.2 1518.93  18
   4   4  -7 206462. 7670.10  23
   4   4  -7 212074. 7681.69  22
   4   4  -7 198065. 7002.62  11
   4   4  -7 209705. 7027.61  18
   4   4  -6 16279.5 1764.22  23
   4   4  -6 15239.8 1690.99  22
   4   4  -6 14983.1 1464.29  11
   4   4  -6 14931.3 1464.85  18
   4   4  -5 50702.3 3090.42  23
   4   4  -5 48700.3 3150.78  22
   4   4  -5 44219.3 2654.56  11
   4   4  -4 52445.1 3687.63  26
   4   4  -4 52530.7 3078.80  23
  -4   4   4 47093.1 3025.72   7
   4   4  -4 49569.0 2810.67  11
   4   4  -3 55972.3 3863.50  26
  -4   4   3 51349.3 3128.32   7
   4   4  -3 55312.1 3840.40   3
   4   4  -2 200471. 8133.21  26
  -4   4   2 190880. 7082.89   3
  -4   4   2 190857. 7077.60   7
   4   4  -2 207077. 8306.88   3
  -4   4   1 23673.7 1999.44   3
   4   4  -1 29060.4 2616.39  26
  -4   4   1 25409.6 2137.51   7
   4   4  -1 27033.5 2532.55   3
   4   4   0 97115.6 5074.60  26
  -4   4   0 95743.2 4579.46   7
   4   4   0 91323.4 4934.44   3
   4   4   1 60923.5 3908.76  26
  -4   4  -1 64836.5 3729.86   7
   4   4   1 64840.9 3958.49   3
  -4   4  -2 61657.7 3142.37  15
   4   4   2 62168.5 3948.78  26
  -4   4  -2 67453.4 3901.81   7
  -4   4  -2 68570.6 3269.12  12
   4   4   2 66184.8 4062.06   3
  -4   4  -3 21501.5 1717.92  15
  -4   4  -3 20907.9 1693.25  12
  -4   4  -4 46507.6 2657.47  15
  -4   4  -4 50470.4 2768.91  12
  -4   4  -5 53328.9 2830.29  15
  -4   4  -5 53567.9 2931.92  12
  -4   4  -6 37681.2 2290.93  15
  -4   4  -6 38401.8 2409.32  12
  -4   4  -6 39419.7 2464.05  18
  -4   4  -7 14291.7 1400.35  12
  -4   4  -7 12613.7 1312.67  18
  -4   4  -8 8549.99 1033.44  12
  -4   4  -8 9906.16 1122.50  18
  -4   4  -9 2924.07 679.382  14
  -4   4  -9 1853.99 472.180  12
  -4   4  -9 2744.63 567.516  18
  -4   4 -10 4297.64 644.753  14
  -4   4 -10 4347.56 616.470  18
  -4   4 -11 3590.79 457.794  14
  -4   4 -11 3987.89 476.617  18
   4   5 -11 4994.98 670.054   9
   4   5 -11 4807.87 628.334  11
   4   5 -10 736.124 369.560  11
   4   5  -9 20028.6 1705.13  23
   4   5  -9 23783.6 1726.97  11
   4   5  -8 12063.7 1414.17  23
   4   5  -8 12140.5 1360.25  22
   4   5  -8 12472.4 1320.14  11
   4   5  -7 186.397 402.241  23
   4   5  -7 535.978 322.249  22
   4   5  -7 495.315 328.915  11
   4   5  -6 3784.33 832.636  23
   4   5  -6 2587.34 697.660  22
   4   5  -6 3428.13 736.985  11
   4   5  -5 6185.16 1041.40  23
   4   5  -5 7703.12 1159.94  22
   4   5  -5 7825.81 1093.96  11
   4   5  -4 31580.2 2371.36  23
   4   5  -4 31067.4 2234.08  11
   4   5  -3 13073.1 1464.17  23
   4   5  -3 14105.0 1501.82  11
   4   5  -2 33006.7 2407.93  23
   4   5  -2 29697.8 2230.15  11
   4   5  -1 43778.0 2833.83  23
  -4   5   1 42385.6 2587.88  12
   4   5   0 12806.5 1487.63  23
  -4   5   0 13841.4 1412.88  12
  -4   5  -1 14948.0 1460.69  12
  -4   5  -2 60594.6 3127.14  12
  -4   5  -3 6831.43 1015.68  12
  -4   5  -4 100764. 4231.90  12
  -4   5  -5 12411.3 1320.71  12
  -4   5  -5 11396.6 1230.92  18
  -4   5  -6 20407.5 1636.14  12
  -4   5  -6 18825.5 1529.52  18
  -4   5  -7 21551.7 1613.42  12
  -4   5  -7 21120.1 1554.32  18
  -4   5  -8 3440.11 607.468  12
  -4   5  -8 3301.06 563.424  18
  -4   5  -9 10361.7 930.340  14
  -4   5  -9 8719.83 803.936  12
  -4   5  -9 8510.55 799.734  18
   4   6 -10 1327.37 295.480  11
   4   6  -9 3171.26 533.681  23
   4   6  -9 5104.81 691.797  11
   4   6  -8 741.604 355.325  23
   4   6  -8 1066.50 399.197  11
   4   6  -7 10988.5 1231.13  23
   4   6  -7 13217.1 1237.08  11
   4   6  -6 16374.1 1538.16  23
   4   6  -6 16249.2 1517.76  22
   4   6  -6 16772.9 1434.13  11
   4   6  -5 3712.81 778.740  23
   4   6  -5 3415.33 724.509  22
   4   6  -5 4105.36 770.966  11
   4   6  -4 12553.2 1395.40  23
   4   6  -4 11856.8 1414.98  22
   4   6  -4 11710.9 1270.51  11
   4   6  -3 236.742 358.837  23
   4   6  -3 233.338 345.520  11
   4   6  -2 43424.3 2737.90  23
   4   6  -1 30316.3 2251.85  23
   4   6   0 31625.1 2258.71  23
  -4   6   0 30582.8 2056.12  12
  -4   6  -1 29800.7 2012.72  12
  -4   6  -2 7873.44 1012.43  12
  -4   6  -3 35201.6 2164.85  23
  -4   6  -3 34637.7 2151.94  12
  -4   6  -4 4169.78 684.248  12
  -4   6  -5 14625.9 1289.71  12
  -4   6  -6 12997.4 1141.45  12
  -4   6  -7 3810.18 548.358  14
  -4   6  -7 2639.13 502.872  12
  -4   6  -8 1890.16 337.871  12
   4   7  -7 814.778 311.555  23
   4   7  -7 394.549 211.747  11
   4   7  -6 9983.75 985.081  23
   4   7  -6 9635.19 871.817  11
   4   7  -5 3766.85 644.467  23
  -4   7   5 3343.03 565.841  23
   4   7  -5 1956.83 445.169  11
   4   7  -4 4439.71 723.749  23
   4   7  -4 3193.88 593.855  22
   4   7  -3 7278.60 929.817  23
   4   7  -3 7633.90 953.523  22
   4   7  -2 4467.83 759.041  23
   4   7  -1 11231.6 1163.59  23
  -4   7   1 11080.6 1097.12  23
   4   7   0 5042.93 736.379  23
  -4   7   0 5798.43 796.165  23
  -4   7  -1 5024.87 721.559  23
  -4   7  -2 5019.73 680.237  23
  -4   7  -2 4091.07 595.437  12
  -4   7  -3 1348.28 371.752  23
  -4   7  -3 1097.69 328.436  12
  -4   7  -4 4626.32 594.348  12
  -4   7  -5 1096.31 300.035  12
  -4   8   1 1768.47 328.020  23
   5  -7  -6 3355.40 456.370  20
   5  -7  -5 3997.33 576.023  20
  -5  -7   5 5093.16 618.655  17
   5  -7  -4 4289.86 660.860  20
  -5  -7   4 4458.34 635.717  17
   5  -7  -3 6576.87 814.599  20
  -5  -7   3 6751.45 802.259  17
  -5  -7   2 648.731 300.283  17
  -5  -7   1 9812.53 970.515  17
   5  -7  -1 7983.52 852.141  30
   5  -7   0 4647.71 692.273  30
  -5  -7   0 3748.55 603.304  17
  -5  -7  -1 6362.26 744.536  17
   5  -7   1 7630.48 868.424  30
  -5  -7  -2 6905.61 736.879  17
   5  -7   2 8552.96 891.214  30
   5  -7   3 2685.89 483.455  30
  -5  -7  -3 1774.90 355.079  17
   5  -7   4 4314.04 539.914  30
   5  -6  -9 7846.89 749.411   9
   5  -6  -8 4465.41 702.532   9
   5  -6  -8 3337.94 573.862  19
   5  -6  -7 13632.3 1155.45  20
   5  -6  -7 19140.9 1511.27   9
   5  -6  -6 6366.94 844.550  20
   5  -6  -6 9450.18 1121.68   9
   5  -6  -5 40358.0 2429.27   9
   5  -6  -4 31511.5 2134.07   9
   5  -6  -3 7911.98 1044.37   9
  -5  -6   2 30590.6 2125.25  17
   5  -6  -2 30617.2 2100.33   9
   5  -6  -1 2790.24 657.339  30
  -5  -6   1 2630.23 629.057  17
  -5  -6   0 35894.5 2226.31  20
  -5  -6   0 34338.2 2247.06  17
   5  -6   0 35221.4 2381.77  30
  -5  -6  -1 22718.7 1722.06  20
  -5  -6  -1 21492.6 1707.05  17
   5  -6   1 22477.7 1867.09  30
   5  -6   2 8497.08 1122.26  30
  -5  -6  -2 8713.71 1020.39  20
  -5  -6  -2 7456.71 984.960  17
  -5  -6  -3 10767.7 1076.95  20
  -5  -6  -3 8791.68 1015.01  17
   5  -6   3 10122.0 1190.88  30
   5  -6   4 910.650 415.574  30
  -5  -6  -4 1666.99 424.219  17
   5  -6   5 2723.71 564.100  30
  -5  -6  -5 2181.11 479.395  17
   5  -6   6 1311.10 364.619  30
  -5  -6  -6 1301.46 349.290  17
  -5  -6  -7 338.971 174.776  17
   5  -5 -11 9542.91 889.333  19
   5  -5 -10 3765.78 609.766   9
   5  -5 -10 4378.10 680.395  19
   5  -5  -9 3232.58 676.843   9
   5  -5  -9 1367.67 465.228  19
   5  -5  -8 24579.0 1915.43   9
   5  -5  -8 22284.9 1849.11  19
   5  -5  -7 9414.55 1242.38  19
   5  -5  -7 12066.8 1377.88   9
   5  -5  -6 25036.6 2014.99   9
   5  -5  -6 20903.8 1919.18  19
   5  -5  -5 22330.3 2015.45  19
   5  -5  -5 26373.1 2108.25   9
   5  -5  -4 7137.62 1119.25   9
   5  -5  -3 42680.2 2751.72   9
   5  -5  -2 700.259 475.845   9
  -5  -5   1 43712.7 2757.66  20
   5  -5  -1 40522.4 2668.65   9
   5  -5  -1 40212.3 2735.33  30
   5  -5   0 14938.2 1610.13  30
  -5  -5   0 17859.4 1653.03  20
  -5  -5   0 15442.7 1565.35  17
   5  -5   0 13294.1 1482.34   9
  -5  -5  -1 15624.1 1521.22  20
  -5  -5  -1 15302.6 1560.85  17
   5  -5   1 15092.3 1627.02  30
  -5  -5  -2 31498.7 2137.91  20
  -5  -5  -2 30168.2 2201.61  17
   5  -5   2 28589.4 2298.68  30
   5  -5   3 4084.54 842.179  30
  -5  -5  -3 3961.11 772.007  20
  -5  -5  -3 3779.31 793.677  17
   5  -5   4 30881.8 2267.34  30
  -5  -5  -4 30065.7 1997.47  20
  -5  -5  -4 28001.2 2043.82  17
   5  -5   5 3205.65 703.896  30
  -5  -5  -5 2434.36 624.831  17
  -5  -5  -6 14455.9 1185.03  13
  -5  -5  -6 13773.3 1283.77  17
   5  -5   6 16605.6 1497.84  30
   5  -5   7 5343.42 761.288  30
  -5  -5  -7 5916.87 684.638  13
  -5  -5  -7 6322.14 801.185  17
  -5  -5  -8 1481.49 321.587  13
  -5  -5  -8 1878.70 409.599  17
   5  -4 -12 13091.5 1109.69  19
   5  -4 -12 8986.59 806.305   9
   5  -4 -11 14742.6 1252.48   9
   5  -4 -11 14566.6 1335.81  19
   5  -4 -10 7629.39 1023.14  19
   5  -4 -10 8795.52 1080.15   9
   5  -4  -9 9979.72 1253.52  19
   5  -4  -9 11627.8 1326.35   9
   5  -4  -8 1189.12 568.108   9
   5  -4  -8 411.146 417.338  19
   5  -4  -7 100623. 4343.25   9
   5  -4  -7 77861.5 4094.91  19
   5  -4  -6 9968.42 1326.51  19
   5  -4  -6 11822.8 1392.37   9
   5  -4  -5 119674. 4915.75   9
   5  -4  -5 98972.8 4803.07  19
   5  -4  -4 61172.4 3578.06  19
   5  -4  -4 75253.7 3722.96   9
   5  -4  -3 31019.1 2291.15   9
   5  -4  -2 72424.6 3732.23   9
   5  -4  -1 22036.5 1904.14  30
  -5  -4   1 25653.7 1991.61  20
   5  -4  -1 22064.7 1918.41   9
   5  -4   0 69422.6 3718.46  30
  -5  -4   0 82287.7 3787.01  20
  -5  -4  -1 83630.4 3861.02  20
  -5  -4  -1 94677.7 4274.77  17
   5  -4   1 84066.0 4116.08  30
   5  -4   2 17273.3 1698.69  30
  -5  -4  -2 19890.4 1628.49  20
  -5  -4  -2 16416.9 1667.60  17
  -5  -4  -3 13044.6 1310.78  20
  -5  -4  -3 14293.3 1528.74  17
   5  -4   3 12932.0 1491.61  30
  -5  -4  -4 26749.7 1894.47  20
  -5  -4  -4 25676.3 2072.69  17
   5  -4   4 20993.1 1942.71  30
  -5  -4  -5 2103.60 532.154  13
   5  -4   5 2989.83 710.946  30
  -5  -4  -5 2317.88 682.011  17
  -5  -4  -6 26297.4 1821.03  13
  -5  -4  -6 26694.2 2003.37  17
  -5  -4  -6 23003.0 1792.23  16
   5  -4   6 26755.1 2130.09  30
  -5  -4  -7 11068.1 1092.21  13
  -5  -4  -7 9901.07 1143.55  17
  -5  -4  -7 9725.73 1075.92  16
   5  -4   7 11831.5 1328.93  30
  -5  -4  -8 12431.4 1060.84  13
  -5  -4  -8 9764.58 1062.11  17
  -5  -4  -8 9418.91 950.582  16
  -5  -4  -9 1698.00 340.229  16
  -5  -4  -9 2200.78 419.318  13
  -5  -4  -9 1661.55 405.391  17
   5  -3 -13 6607.87 747.351  19
   5  -3 -13 5138.24 593.555   9
   5  -3 -12 9749.32 1104.02  19
   5  -3 -12 7920.49 881.221   9
   5  -3 -11 15875.1 1432.58   9
   5  -3 -11 16340.7 1549.42  19
   5  -3 -10 4183.38 815.500   9
   5  -3 -10 3503.03 764.322  19
   5  -3  -9 17712.9 1671.41   9
   5  -3  -9 16508.5 1670.26  19
   5  -3  -8 23127.3 1915.34   9
   5  -3  -8 17975.1 1737.10  19
   5  -3  -7 70732.9 3548.25   9
   5  -3  -7 59478.8 3382.45  19
   5  -3  -6 85715.2 3943.87   9
   5  -3  -6 71754.5 3767.82  19
   5  -3  -5 29862.5 2154.14   9
   5  -3  -5 24269.3 2460.82   1
   5  -3  -5 27134.8 2647.99   5
  -5  -3   5 29277.5 2361.27  25
  -5  -3   5 27379.5 2300.93  27
  -5  -3   4 15012.9 1698.02  29
  -5  -3   4 16263.4 1684.78  27
   5  -3  -4 12995.3 1777.71   5
  -5  -3   4 16390.0 1700.33  25
   5  -3  -4 11717.1 1687.62   1
   5  -3  -4 13690.6 1732.46   2
   5  -3  -3 154068. 7085.56   5
  -5  -3   3 159523. 6167.45  25
  -5  -3   3 162513. 6135.42  27
   5  -3  -3 154243. 6710.51   2
   5  -3  -3 148061. 6668.14   1
  -5  -3   2 26305.1 2084.11  27
   5  -3  -2 22098.3 2230.16   1
  -5  -3   2 26251.7 2108.35  25
   5  -3  -2 25190.7 2394.89   2
  -5  -3   1 172766. 6531.95  27
  -5  -3   1 179073. 6631.04  25
   5  -3  -1 174388. 7251.59   2
  -5  -3   0 155795. 6248.85  27
  -5  -3   0 165790. 6355.23  25
  -5  -3   0 173341. 6637.11  24
   5  -3   0 157212. 6901.36   2
  -5  -3  -1 18290.8 1827.74  28
   5  -3   1 18776.7 2184.99   4
  -5  -3  -1 20477.6 2022.45  24
   5  -3   1 19125.7 2141.45   2
  -5  -3  -2 171324. 6801.50  28
  -5  -3  -2 176599. 7017.81  24
   5  -3   2 164257. 7280.50   2
  -5  -3  -2 163675. 5803.44  20
   5  -3   2 158706. 6086.25  30
  -5  -3  -3 87972.2 3736.58  20
  -5  -3  -3 92042.3 4260.88  17
   5  -3   3 82476.6 3981.32  30
  -5  -3  -4 134487. 4940.66  20
  -5  -3  -4 132236. 5405.57  17
  -5  -3  -5 37219.0 2334.20  13
  -5  -3  -5 38848.0 2601.16  17
   5  -3   5 34574.8 2544.85  30
  -5  -3  -6 17993.1 1554.07  13
   5  -3   6 16483.0 1701.70  30
  -5  -3  -6 19431.2 1770.04  17
  -5  -3  -7 42420.0 2397.68  13
  -5  -3  -7 41078.0 2542.16  16
  -5  -3  -7 37693.7 2492.29  17
   5  -3   7 40787.3 2701.20  30
  -5  -3  -8 3262.66 666.850  16
  -5  -3  -8 3723.73 744.114  17
  -5  -3  -9 7736.26 867.524  13
  -5  -3  -9 8034.58 941.172  17
  -5  -3  -9 8364.72 967.897  16
  -5  -3 -10 2873.53 499.327  16
  -5  -3 -10 2928.67 472.420  13
  -5  -3 -10 3374.83 550.203  17
   5  -2 -13 1358.48 386.972   9
   5  -2 -12 10529.0 1110.37   9
   5  -2 -12 11211.0 1239.49  19
   5  -2 -11 4483.80 818.011   9
   5  -2 -11 4939.63 910.477  14
   5  -2 -11 3611.44 858.016  22
   5  -2 -11 4427.72 846.474  19
   5  -2 -10 2767.48 694.939   9
   5  -2 -10 3471.96 793.378  14
   5  -2 -10 2530.68 777.897  22
   5  -2 -10 3776.45 856.284  19
   5  -2  -9 28049.3 2112.93   9
   5  -2  -9 23650.6 1996.76  14
   5  -2  -9 25530.1 2274.71  22
   5  -2  -9 20827.3 1928.78  19
   5  -2  -8 42490.6 2627.84   9
   5  -2  -8 44573.6 2794.88  14
   5  -2  -8 39868.9 2919.69  22
   5  -2  -8 34514.1 2497.93  19
   5  -2  -7 19018.2 1722.33   9
   5  -2  -7 20694.3 1851.38  14
  -5  -2   7 19276.8 1924.11  25
   5  -2  -7 20908.6 2034.15  22
   5  -2  -6 37343.4 3062.70   1
  -5  -2   6 39579.0 2715.04  27
  -5  -2   6 40479.1 2755.97  25
  -5  -2   5 215679. 7359.17  27
  -5  -2   5 208668. 7254.10  25
   5  -2  -5 197321. 7982.69   1
  -5  -2   4 148909. 5641.34  27
  -5  -2   4 145856. 5577.04  25
   5  -2  -4 132835. 6099.29   1
   5  -2  -4 131602. 5827.41   2
  -5  -2   3 2498.10 628.419  27
   5  -2  -3 2860.46 778.834   5
   5  -2  -3 4596.49 970.376   2
  -5  -2   2 296470. 8951.40  27
  -5  -2   2 281749. 8858.36  25
   5  -2  -2 268105. 9431.66   2
  -5  -2   1 98146.6 4250.68  27
  -5  -2   1 97569.7 4206.54  25
   5  -2  -1 96385.3 4674.37   4
   5  -2  -1 94299.0 4642.92   2
  -5  -2   0 158325. 5825.91  27
   5  -2   0 138147. 5977.73   4
  -5  -2   0 147164. 5760.24  24
   5  -2   0 141806. 6042.33   2
  -5  -2  -1 280715. 9067.43  27
   5  -2   1 258078. 9202.57   4
  -5  -2  -1 274768. 8970.67  24
   5  -2   1 259180. 9246.96   2
  -5  -2  -2 4763.64 936.914  24
   5  -2   2 4766.68 980.480   2
   5  -2   2 5322.47 1069.96   4
   5  -2   3 103889. 5355.37   4
  -5  -2  -3 102981. 4892.29  24
   5  -2   3 107178. 5294.96   2
  -5  -2  -4 9960.58 1404.14  24
   5  -2   4 8988.49 1495.83   4
  -5  -2  -4 9444.86 1474.26   6
   5  -2   4 8134.16 1154.40  30
  -5  -2  -5 37594.1 2320.83  13
  -5  -2  -5 37402.8 2443.12  21
  -5  -2  -5 37060.4 2484.05  17
   5  -2   5 37764.4 2590.65  30
  -5  -2  -6 25358.3 1858.89  13
  -5  -2  -6 23636.5 1964.05  17
   5  -2   6 24236.6 2099.29  30
   5  -2   7 6612.49 1093.66  30
  -5  -2  -7 6636.13 1034.09  16
  -5  -2  -7 7351.97 975.273  13
  -5  -2  -7 7603.61 1078.34  17
  -5  -2  -8 15344.0 1365.00  13
  -5  -2  -8 15357.7 1486.66  17
  -5  -2  -8 14259.8 1465.96  16
  -5  -2  -9-105.422 237.896  13
  -5  -2  -9 266.013 341.140  16
  -5  -2  -9-24.4105 280.803  17
  -5  -2 -10 1331.78 394.274  16
  -5  -2 -10 1079.53 330.043  13
  -5  -2 -10 943.554 324.323  17
  -5  -2 -11 584.745 261.693  16
  -5  -2 -11 884.851 261.192  13
   5  -1 -13 1611.09 484.919   9
   5  -1 -13 2482.06 627.768  14
   5  -1 -12 9304.87 1217.82  14
   5  -1 -12 7172.56 938.457   9
   5  -1 -12 6760.44 1098.79  22
   5  -1 -11 30044.4 2167.46   9
   5  -1 -11 26978.5 2186.74  14
   5  -1 -11 28136.4 2283.37  22
   5  -1 -11 28905.0 2208.59  19
   5  -1 -10 11504.8 1348.84   9
   5  -1 -10 11777.3 1507.68  22
   5  -1 -10 11968.7 1436.92  14
   5  -1 -10 11542.3 1426.88  19
   5  -1  -9 16116.8 1566.72   9
   5  -1  -9 19481.0 1825.97  14
   5  -1  -9 15357.3 1713.66  22
   5  -1  -9 14662.7 1603.69  19
   5  -1  -8 41213.4 2621.75   9
   5  -1  -8 43772.3 2931.34  22
   5  -1  -8 45041.4 2820.22  14
   5  -1  -7 10828.3 1597.17   1
  -5  -1   7 9262.56 1301.40  27
  -5  -1   7 11674.7 1390.12   7
  -5  -1   6 203274. 7199.93  27
  -5  -1   6 206670. 7172.54  25
   5  -1  -6 192391. 7945.48   1
  -5  -1   6 204463. 7046.70   7
  -5  -1   5 66480.7 3353.56  27
  -5  -1   5 68817.9 3400.01  25
  -5  -1   5 66123.2 3206.45   7
   5  -1  -5 61152.3 3499.00   2
   5  -1  -5 59369.3 3778.28   1
  -5  -1   4 140512. 5168.44  27
  -5  -1   4 140918. 5175.96  25
   5  -1  -4 120829. 5714.39   1
  -5  -1   4 124011. 4711.69   7
   5  -1  -4 130242. 5434.99   2
   5  -1  -3 466276. 13704.5   2
  -5  -1   3 510487. 13285.4  25
  -5  -1   3 496995. 13168.9  27
   5  -1  -2 21810.5 1931.31   2
  -5  -1   2 19993.8 1611.76  27
  -5  -1   2 24345.4 1791.36  25
   5  -1  -2 19502.0 1700.56   4
  -5  -1   2 23829.9 1826.14  24
   5  -1  -1 308861. 9729.57   2
  -5  -1   1 305887. 9178.07  27
  -5  -1   1 324064. 9428.22  24
  -5  -1   0 246334. 7850.02  27
  -5  -1   0 245639. 7870.40  24
   5  -1   0 225984. 7888.95   4
   5  -1   0 237684. 8184.49   2
  -5  -1  -1 97354.6 4316.98  27
  -5  -1  -1 89808.1 4072.34  24
   5  -1   1 92139.7 4307.16   4
   5  -1   1 85812.7 4249.15   2
  -5  -1  -2 199363. 6976.24  24
   5  -1   2 192935. 7283.74   4
   5  -1   2 198002. 7306.72   2
  -5  -1  -3 26194.9 2149.29  24
   5  -1   3 26688.7 2326.21   4
   5  -1   3 27296.9 2327.08   2
  -5  -1  -4 61318.2 3556.31  24
   5  -1   4 61019.9 3826.98   4
  -5  -1  -4 67112.8 4020.28   6
   5  -1   5 47073.3 2866.95  30
  -5  -1  -5 44238.2 3103.35  24
  -5  -1  -5 50462.5 2685.69  13
   5  -1   5 49374.2 3539.02   4
  -5  -1  -5 50525.0 2862.22  21
  -5  -1  -5 47283.8 3439.51   6
   5  -1   6 5918.70 1032.71  30
  -5  -1  -6 5717.13 884.505  13
  -5  -1  -6 5132.30 868.677  21
  -5  -1  -7 33820.9 2240.13  15
  -5  -1  -7 34180.0 2164.21  13
  -5  -1  -7 29376.9 2157.53  21
  -5  -1  -7 34699.0 2413.86  16
  -5  -1  -8 4173.85 812.207  16
  -5  -1  -8 4363.23 787.454  15
  -5  -1  -8 5505.13 817.067  13
  -5  -1  -8 3779.55 776.776  21
  -5  -1  -9 9989.92 1057.86  13
  -5  -1  -9 10331.3 1120.16  21
  -5  -1  -9 11634.6 1266.58  16
  -5  -1 -10 4433.69 730.719  16
  -5  -1 -10 4083.39 647.363  13
  -5  -1 -11 934.259 281.141  16
  -5  -1 -11 942.418 293.638  13
   5   0 -14 2533.44 428.252   9
   5   0 -14 2612.04 490.049  14
   5   0 -13 3078.62 622.416   9
   5   0 -13 3636.93 712.484  14
   5   0 -13 3360.16 716.630  22
   5   0 -12 24310.6 1855.96   9
   5   0 -12 24000.1 1941.50  14
   5   0 -12 22108.6 1947.56  22
   5   0 -11 34544.4 2378.46   9
   5   0 -11 32919.0 2497.79  22
   5   0 -11 36133.0 2533.27  14
   5   0 -10 70175.5 3608.57   9
   5   0 -10 76160.7 3869.17  14
   5   0 -10 64049.4 3666.27  22
   5   0  -9 84959.4 4017.75   9
   5   0  -9 90881.3 4267.65  14
   5   0  -9 81685.0 4198.60  22
   5   0  -8 622.997 361.229  14
   5   0  -8 971.676 389.548   9
   5   0  -8 1043.08 439.592  22
   5   0  -8 1054.02 470.626   1
  -5   0   7 180873. 6791.64  27
  -5   0   7 189632. 6774.06   7
   5   0  -7 166448. 7221.46   1
  -5   0   6 19303.8 1736.19  27
   5   0  -6 18009.9 1970.87   1
  -5   0   6 19547.9 1708.56   7
  -5   0   5 346078. 9920.11  27
  -5   0   5 338163. 9748.96  25
  -5   0   5 333907. 9714.01   7
  -5   0   4 376528. 10771.9  27
  -5   0   4 358019. 10461.6   7
  -5   0   3 1117.36 390.602  27
  -5   0   3 1186.28 395.328  24
   5   0  -3 2101.41 616.064   2
  -5   0   3 823.676 335.789   7
  -5   0   2 435427. 11928.2  27
   5   0  -2 409701. 12440.7   2
  -5   0   2 399383. 11395.2   7
  -5   0   1 26777.9 1872.27  27
   5   0  -1 26863.2 2070.03   2
  -5   0   1 29607.3 1972.02  24
   5   0  -1 29635.8 1982.12   4
  -5   0   1 23457.3 1553.56   7
  -5   0   0 29783.6 2047.84  27
   5   0   0 30382.9 2223.49   2
  -5   0   0 30213.0 2004.26  24
   5   0   0 25672.6 1926.11   4
  -5   0   0 26234.5 1632.74   7
  -5   0  -1 250648. 8198.45  27
   5   0   1 254451. 8371.82   2
  -5   0  -1 252254. 7941.37  24
   5   0   1 235793. 7986.96   4
  -5   0  -2 1904.85 634.070  24
   5   0   2 849.954 483.785   2
   5   0   2 476.452 375.579   4
   5   0   3 70791.1 3818.35   2
  -5   0  -3 72229.5 3648.74  24
   5   0   3 76776.3 3945.80   4
  -5   0  -4 13438.5 1511.89  24
   5   0   4 16485.2 1845.61   4
  -5   0  -4 14601.7 1676.48   6
  -5   0  -5 12500.6 1239.29  15
  -5   0  -5 12515.8 1545.42  24
  -5   0  -5 12676.1 1251.40  13
   5   0   5 11647.6 1601.91   4
  -5   0  -5 12372.0 1306.03  21
  -5   0  -5 11131.7 1540.09   6
   5   0   6 28953.5 2249.16  30
  -5   0  -6 34718.3 2209.35  15
  -5   0  -6 34074.4 2160.98  13
  -5   0  -6 37281.2 2359.57  21
  -5   0  -7 1645.84 564.965  16
  -5   0  -7 2820.87 685.464  15
  -5   0  -7 1550.85 502.182  13
  -5   0  -7 1529.21 494.068  21
  -5   0  -8 5453.80 937.186  16
  -5   0  -8 7174.48 984.583  15
  -5   0  -8 6175.27 871.956  13
  -5   0  -8 6822.15 979.692  21
  -5   0  -9 4077.05 753.818  16
  -5   0  -9 3934.91 734.630  15
  -5   0  -9 3470.58 637.488  13
  -5   0  -9 3360.76 649.455  21
  -5   0 -10 7719.37 858.650  13
  -5   0 -10 7612.26 947.656  16
  -5   0 -11 2243.30 471.717  16
  -5   0 -11 2511.70 483.388  13
  -5   0 -12 98.5557 129.285  13
   5   1 -14 1157.15 313.349   9
   5   1 -13 1304.50 409.104   9
   5   1 -13 1732.35 472.924  14
   5   1 -13 1566.98 483.788  22
   5   1 -12 5507.57 920.108   9
   5   1 -12 7899.97 1033.73  14
   5   1 -12 6681.86 1065.94  22
   5   1 -11 22539.4 1949.78   9
   5   1 -11 25839.5 2056.94  14
   5   1 -11 26116.9 2213.18  22
   5   1 -10 8994.79 1217.69   9
   5   1 -10 7842.37 1188.44  22
   5   1  -9 11631.1 1321.81   9
   5   1  -9 13107.7 1556.18  22
   5   1  -8 34097.6 2324.84   9
   5   1  -8 34932.1 2555.39  23
   5   1  -8 34528.5 2529.85  22
  -5   1   7 9558.90 1288.30  27
   5   1  -7 12016.0 1615.29   8
  -5   1   7 12819.6 1486.38   7
  -5   1   6 197639. 6895.11  27
   5   1  -6 187679. 7344.74   8
   5   1  -6 175889. 7221.67   1
  -5   1   6 206132. 7041.96   7
   5   1  -5 66168.4 3779.20   1
  -5   1   5 67965.6 3362.90  27
   5   1  -5 64363.4 3613.15   2
  -5   1   5 71409.0 3447.36   7
  -5   1   4 132235. 4964.41  27
   5   1  -4 125566. 5311.97   2
  -5   1   4 128609. 4889.35   7
  -5   1   3 478635. 12802.3  27
  -5   1   3 470447. 12643.1   7
  -5   1   2 21060.9 1638.57  27
   5   1  -2 21482.8 1846.97   2
  -5   1   2 18759.4 1455.18   7
  -5   1   1 330290. 9248.87  27
  -5   1   1 309910. 8868.99  24
   5   1  -1 274664. 8717.36   4
   5   1  -1 297792. 9466.44   2
  -5   1   1 283280. 8566.10   7
   5   1   0 243881. 8217.60  26
  -5   1   0 272205. 8183.86  27
  -5   1   0 251246. 7744.29  24
   5   1   0 225565. 7632.63   4
   5   1   0 265485. 8425.05   2
  -5   1   0 228755. 7395.66   7
   5   1   1 93421.7 4315.81  26
  -5   1  -1 95918.4 4060.92  24
   5   1   1 104800. 4575.72   2
   5   1   1 90560.1 4045.39   4
  -5   1  -1 88522.1 3803.48   7
   5   1   2 188005. 7007.91  26
   5   1   2 201066. 7272.31   2
  -5   1  -2 197994. 6825.99  24
   5   1   2 199355. 7010.08   4
  -5   1  -2 199859. 6671.74   7
   5   1   3 29645.4 2351.64   2
  -5   1  -3 30579.7 2250.99  24
   5   1   3 28400.4 2270.10   4
  -5   1  -4 65590.2 3589.83  24
   5   1   4 61461.8 3663.30   4
  -5   1  -5 54687.4 2745.66  15
  -5   1  -5 43449.8 3012.04  24
  -5   1  -5 49753.8 2657.99  13
   5   1   5 47708.1 3319.81   4
  -5   1  -5 45208.7 2659.00  21
  -5   1  -6 5223.03 925.571  16
  -5   1  -6 5858.82 869.733  15
  -5   1  -6 5595.83 853.926  13
  -5   1  -6 5521.67 877.272  21
  -5   1  -7 37424.3 2322.48  15
  -5   1  -7 36877.5 2224.83  13
  -5   1  -7 33766.4 2251.42  21
  -5   1  -7 32086.7 2347.95  16
  -5   1  -8 4009.34 755.557  15
  -5   1  -8 3436.59 697.556  14
  -5   1  -8 5001.12 788.098  13
  -5   1  -8 3321.58 714.251  16
  -5   1  -8 4325.79 792.100  21
  -5   1  -9 10570.4 1103.29  15
  -5   1  -9 9810.08 1091.37  14
  -5   1  -9 10027.5 1064.64  13
  -5   1  -9 9314.88 1096.94  16
  -5   1 -10 4072.35 624.473  15
  -5   1 -10 3856.09 620.325  13
  -5   1 -10 3554.17 633.575  18
  -5   1 -11 815.329 289.171  13
  -5   1 -11 915.454 277.522  18
   5   2 -13 2774.40 593.947   9
   5   2 -13 2325.69 563.754  22
   5   2 -12 9614.75 1176.00   9
   5   2 -12 10186.6 1242.59  22
   5   2 -11 3582.95 765.592   9
   5   2 -11 3233.40 772.030  22
   5   2 -10 2691.58 642.220   9
   5   2 -10 3974.45 852.030  22
   5   2  -9 18716.4 1921.74  23
   5   2  -9 23708.1 2134.85  22
   5   2  -9 22181.8 1909.27  11
   5   2  -8 41653.8 2902.02  23
   5   2  -8 45312.1 3043.76  22
   5   2  -8 47047.6 2802.67  11
   5   2  -7 15504.8 1914.39   8
   5   2  -7 19171.8 1843.99  23
   5   2  -7 17121.7 1761.91  22
   5   2  -7 18792.5 1649.67  11
   5   2  -6 37897.8 2855.05   8
  -5   2   6 40551.3 2711.16   7
   5   2  -5 191876. 7315.86   8
  -5   2   5 209813. 7141.09   7
  -5   2   4 131712. 5100.61   7
  -5   2   3 4185.81 741.264   7
   5   2  -2 277402. 9652.40  26
  -5   2   2 267844. 8500.38   7
  -5   2   2 294852. 8751.60  27
  -5   2   1 95939.1 4081.19  27
   5   2  -1 95168.6 4723.17  26
  -5   2   1 82860.0 3773.69   7
   5   2   0 154842. 6310.31  26
  -5   2   0 143578. 5357.38  24
   5   2   0 142908. 5467.63   4
  -5   2   0 147402. 5436.14   7
   5   2   1 279829. 9516.16  26
  -5   2  -1 270707. 8671.20  24
  -5   2  -1 281353. 8790.80   7
   5   2   1 268667. 8815.12   4
   5   2   2 5086.17 1048.94  26
  -5   2  -2 4213.82 853.602  24
   5   2   2 6925.40 1085.02   4
  -5   2  -2 5250.07 950.375   7
   5   2   3 100823. 5068.37  26
  -5   2  -3 105655. 4806.87  24
   5   2   3 112643. 5349.35   2
  -5   2  -3 110926. 4959.89   7
   5   2   3 113282. 5138.74   4
  -5   2  -4 10892.8 1183.50  15
  -5   2  -4 10850.3 1183.12  13
  -5   2  -4 10975.9 1431.14  24
   5   2   4 10985.8 1506.29   4
  -5   2  -4 12146.8 1293.46  21
  -5   2  -5 41816.9 2435.43  15
  -5   2  -5 44547.2 2510.84  13
  -5   2  -5 42313.5 2565.83  21
  -5   2  -5 44189.4 2584.24  12
  -5   2  -6 29054.2 1983.75  15
  -5   2  -6 26537.0 1889.38  13
  -5   2  -6 24871.2 1931.42  21
  -5   2  -7 6383.69 934.495  15
  -5   2  -7 6321.26 885.409  13
  -5   2  -7 7308.85 992.709  21
  -5   2  -8 16145.7 1432.44  15
  -5   2  -8 14521.6 1311.24  13
  -5   2  -8 15593.7 1411.74  21
  -5   2  -9 481.596 311.437  15
  -5   2  -9 654.569 307.952  14
  -5   2  -9 372.524 342.601  13
  -5   2 -10 791.826 247.597  15
  -5   2 -10 1136.19 390.521  14
  -5   2 -10 1261.54 385.002  13
  -5   2 -10 1569.88 441.763  18
  -5   2 -11 596.719 210.020  14
  -5   2 -11 830.272 269.333  18
   5   3 -13 5809.41 688.639   9
   5   3 -12 7252.66 960.551   9
   5   3 -12 7577.90 942.431  22
   5   3 -11 12232.3 1354.71   9
   5   3 -11 16123.0 1554.06  22
   5   3 -10 5425.26 1008.40  22
   5   3 -10 5306.37 892.760  11
   5   3  -9 16233.9 1786.24  23
   5   3  -9 19449.7 1901.50  22
   5   3  -9 17792.2 1692.48  11
   5   3  -8 19792.1 1962.66  23
   5   3  -8 19188.8 1930.85  22
   5   3  -8 21536.7 1843.59  11
   5   3  -7 68622.0 3845.22  23
   5   3  -7 69531.6 3875.78  22
   5   3  -7 67211.9 3470.97  11
   5   3  -6 102262. 4789.31  23
   5   3  -6 105971. 4963.42  22
   5   3  -6 102360. 4414.93  11
   5   3  -5 27646.5 2176.16  23
   5   3  -5 27240.2 2274.96  22
  -5   3   5 23899.9 2064.25   7
   5   3  -5 25652.7 1939.48  11
  -5   3   4 14064.5 1494.57   7
   5   3  -3 165958. 7221.28  26
  -5   3   3 149979. 5842.30   7
   5   3  -2 26257.1 2566.11  26
  -5   3   2 21489.0 1831.38   7
   5   3  -1 183550. 7634.87  26
  -5   3   1 173392. 6435.80   7
   5   3   0 167351. 7165.89  26
  -5   3   0 159315. 6197.76   7
   5   3   1 18766.7 2129.16  26
  -5   3  -1 19794.1 1871.07   7
   5   3   1 20652.7 1914.35   4
   5   3   2 165489. 7298.53  26
  -5   3  -2 159450. 6429.04  24
  -5   3  -2 183609. 7047.50   7
   5   3   2 163291. 6743.27   4
  -5   3  -2 188290. 6229.68  12
  -5   3  -3 92664.7 3918.39  15
   5   3   3 76168.4 4617.33  26
  -5   3  -3 78594.7 4164.89  24
  -5   3  -3 74614.1 4306.38   8
  -5   3  -3 82633.2 4425.30   7
  -5   3  -3 95870.5 4000.14  12
  -5   3  -4 120718. 4676.90  15
  -5   3  -4 127702. 4855.62  12
  -5   3  -5 38479.0 2334.56  15
  -5   3  -5 36679.6 2290.60  13
  -5   3  -5 36310.4 2368.67  21
  -5   3  -5 40524.0 2470.90  12
  -5   3  -6 17556.1 1529.77  15
  -5   3  -6 17826.6 1531.98  13
  -5   3  -6 17583.5 1559.09  21
  -5   3  -6 18108.4 1597.21  12
  -5   3  -7 40423.3 2334.13  15
  -5   3  -7 39859.6 2396.11  12
  -5   3  -8 3393.37 655.886  15
  -5   3  -8 5725.28 848.238  18
  -5   3  -9 9092.69 1013.02  14
  -5   3  -9 7620.98 916.881  18
  -5   3 -10 2695.68 512.655  14
  -5   3 -10 3285.41 537.390  18
   5   4 -12 10806.7 961.743   9
   5   4 -11 11498.9 1159.09   9
   5   4 -11 14183.8 1260.72  22
   5   4 -11 12917.5 1178.82  11
   5   4 -10 6166.44 962.216  23
   5   4 -10 7225.96 998.030  22
   5   4 -10 7214.41 958.807  11
   5   4  -9 10196.9 1319.45  23
   5   4  -9 11953.8 1413.37  22
   5   4  -9 12007.2 1295.15  11
   5   4  -8 335.536 441.081  23
   5   4  -8 879.033 468.456  22
   5   4  -8 355.074 372.160  11
   5   4  -7 91896.7 4515.43  23
   5   4  -7 91744.1 4484.12  22
   5   4  -7 83119.6 3955.46  11
   5   4  -6 13246.4 1571.71  23
   5   4  -6 11932.4 1544.28  22
   5   4  -6 12238.1 1360.01  11
   5   4  -5 114776. 5075.13  23
   5   4  -5 123806. 5374.91  22
   5   4  -4 70602.2 3759.82  23
   5   4  -4 68139.9 3517.97  11
   5   4  -3 31245.5 2340.12  23
  -5   4   3 26489.1 2039.15  12
   5   4  -3 26896.1 2116.79  11
   5   4  -2 62759.2 3531.85  23
  -5   4   2 67855.8 3405.50  12
   5   4  -2 69299.8 3587.00  11
   5   4  -1 22054.9 1966.09  23
  -5   4   1 24380.0 1903.26  12
   5   4  -1 21840.1 1946.52  11
  -5   4   0 81049.0 3741.45  12
  -5   4  -1 80049.3 3696.80  12
  -5   4  -2 19662.3 1704.26  15
  -5   4  -2 19086.5 1629.07  12
  -5   4  -3 9947.16 1191.05  15
  -5   4  -3 10306.7 1168.01  12
  -5   4  -4 21738.8 1749.94  15
  -5   4  -4 22689.8 1815.45  12
  -5   4  -5 4584.88 746.593  15
  -5   4  -5 4495.97 805.302  12
  -5   4  -6 21921.9 1642.76  15
  -5   4  -6 25568.6 1845.82  12
  -5   4  -6 23613.0 1766.21  18
  -5   4  -7 9226.14 1043.77  12
  -5   4  -7 8093.29 1009.07  18
  -5   4  -8 9552.92 981.664  12
  -5   4  -8 10844.2 1057.83  18
  -5   4  -9 2139.13 493.484  14
  -5   4  -9 2399.76 460.950  18
  -5   4 -10 1272.07 292.017  14
  -5   4 -10 1051.20 261.830  18
   5   5 -11 7779.00 754.103   9
   5   5 -11 6998.63 679.125  11
   5   5 -10 2975.35 540.354  11
   5   5  -9 2080.56 522.154  23
   5   5  -9 1381.60 463.104  22
   5   5  -9 1893.79 478.586  11
   5   5  -8 18454.5 1661.13  23
   5   5  -8 20678.8 1727.17  22
   5   5  -8 18467.3 1559.38  11
   5   5  -7 10661.5 1323.72  23
   5   5  -7 10288.6 1284.81  22
   5   5  -7 10574.8 1206.16  11
   5   5  -6 22600.3 1951.79  23
   5   5  -6 22561.4 1978.27  22
   5   5  -6 20004.8 1701.96  11
   5   5  -5 23108.6 1990.08  23
   5   5  -5 24644.8 2114.24  22
   5   5  -5 26114.1 1978.60  11
   5   5  -4 8365.47 1196.11  23
   5   5  -4 9434.00 1221.07  11
   5   5  -3 40354.0 2750.33  23
   5   5  -3 45788.6 2786.13  11
   5   5  -2 811.852 490.723  23
  -5   5   2 1195.97 464.261  12
   5   5  -2 1018.23 418.643  11
   5   5  -1 41420.4 2781.64  23
  -5   5   1 45254.6 2631.89  12
  -5   5   0 17412.9 1564.01  12
  -5   5  -1 16221.0 1487.29  12
  -5   5  -2 29955.5 2054.01  12
  -5   5  -3 4836.08 786.816  12
  -5   5  -4 30701.6 2024.46  12
  -5   5  -5 1983.00 566.905  12
  -5   5  -5 1053.65 384.395  18
  -5   5  -6 11901.4 1140.01  12
  -5   5  -6 11762.9 1078.20  18
  -5   5  -7 6444.82 770.713  12
  -5   5  -7 5511.13 687.415  18
  -5   5  -8 566.302 226.973  12
  -5   5  -8 958.308 267.634  18
   5   6  -9 5478.26 628.707  23
   5   6  -9 7014.77 711.586  11
   5   6  -8 2321.54 515.214  23
   5   6  -8 3053.29 555.499  11
   5   6  -7 14099.0 1312.81  23
   5   6  -7 12367.0 1179.36  22
   5   6  -7 16582.7 1300.34  11
   5   6  -6 7951.66 1045.55  23
   5   6  -6 6892.84 961.909  22
   5   6  -6 7877.23 962.961  11
   5   6  -5 32799.9 2182.78  23
   5   6  -5 33570.7 2244.46  22
   5   6  -5 33792.0 2103.21  11
   5   6  -4 29518.7 2078.24  23
   5   6  -4 30934.8 2183.15  22
   5   6  -4 28697.7 1937.59  11
   5   6  -3 8347.75 1111.81  23
   5   6  -3 9153.11 1064.77  11
   5   6  -2 28560.1 2085.45  23
   5   6  -1 2385.54 612.693  23
  -5   6   0 31839.1 1997.39  12
  -5   6  -1 19195.9 1492.93  12
  -5   6  -2 10089.6 1052.14  23
  -5   6  -2 9613.50 1034.70  12
  -5   6  -3 9621.41 1017.69  12
  -5   6  -4 953.910 371.667  12
  -5   6  -5 2127.24 457.320  12
  -5   6  -6 1317.55 335.158  12
   5   7  -6 4818.96 601.483  23
   5   7  -5 3563.80 555.638  23
  -5   7   5 4234.42 582.580  23
   5   7  -5 3194.54 491.259  22
   5   7  -4 3603.87 597.987  23
   5   7  -4 3694.06 561.864  22
   5   7  -3 7400.84 854.318  23
   5   7  -3 7914.11 903.395  22
   5   7  -2 534.553 291.023  23
   5   7  -2 912.639 368.730  22
   5   7  -1 8129.60 846.210  23
  -5   7   1 10897.3 983.914  23
  -5   7   0 3925.76 576.593  23
  -5   7  -1 5297.03 638.427  23
  -5   7  -2 5518.44 575.470  23
  -5   7  -2 6450.07 665.362  12
  -5   7  -3 1557.10 335.114  12
   6  -7  -4 451.307 203.498  20
   6  -7  -3 5521.26 621.975  20
  -6  -7   3 5790.73 612.775  17
   6  -7  -2 1348.94 335.446  20
  -6  -7   2 1534.86 346.908  17
  -6  -7   1 5310.80 595.518  17
   6  -7   0 5656.87 610.617  20
  -6  -7   0 5384.69 588.965  17
  -6  -7  -1 2983.28 419.911  17
   6  -6  -8 2904.47 476.006   9
   6  -6  -7 6350.93 765.614   9
   6  -6  -6 2832.45 559.647   9
   6  -6  -6 2690.30 485.953  20
   6  -6  -5 6763.87 881.857   9
  -6  -6   4 14097.1 1275.64  17
   6  -6  -4 15331.0 1315.51   9
   6  -6  -3 3910.55 684.459   9
  -6  -6   3 4043.70 693.856  17
  -6  -6   2 16286.4 1409.23  17
   6  -6  -1 4726.47 763.215  30
  -6  -6   1 5489.77 810.876  17
  -6  -6   0 8799.12 1032.62  17
   6  -6   0 10617.3 1156.12  30
  -6  -6  -1 11703.3 1131.03  17
   6  -6   1 9779.22 1126.79  30
  -6  -6  -2 11129.6 1072.90  17
   6  -6   2 13511.3 1284.06  30
  -6  -6  -3 16853.5 1254.40  17
   6  -6   3 20464.2 1511.94  30
  -6  -6  -4 9560.19 860.544  17
   6  -6   4 11590.6 1046.03  30
  -6  -6  -5 7267.26 667.787  17
   6  -6   5 7589.84 735.759  30
   6  -5 -10 2705.22 467.692   9
   6  -5 -10 2598.83 492.313  19
   6  -5  -9 5027.69 731.282   9
   6  -5  -9 5458.13 766.577  19
   6  -5  -8 17854.7 1534.67  19
   6  -5  -8 21466.9 1622.09   9
   6  -5  -7 2287.70 638.137   9
   6  -5  -7 962.353 486.330  19
   6  -5  -6 35396.3 2424.74  19
   6  -5  -6 40242.3 2468.58   9
   6  -5  -5 9237.79 1213.49  19
   6  -5  -5 11755.4 1314.93   9
   6  -5  -4 5037.93 875.847   9
  -6  -5   4 4397.51 761.194  21
   6  -5  -3 58350.8 3144.48   9
   6  -5  -2 19121.2 1680.28   9
  -6  -5   1 35836.0 2365.19  17
   6  -5  -1 33188.7 2383.63  30
  -6  -5   0 24258.8 1920.72  17
   6  -5   0 26682.1 2105.19  30
   6  -5   1 9339.13 1225.61  30
  -6  -5  -1 9987.35 1186.00  17
  -6  -5  -2 44071.4 2589.18  17
   6  -5   2 49179.7 2898.84  30
  -6  -5  -3 9912.54 1126.62  17
   6  -5   3 10992.0 1269.29  30
  -6  -5  -4 24538.9 1762.10  17
   6  -5   4 28045.6 1968.48  30
  -6  -5  -5 23328.2 1589.14  17
   6  -5   5 24203.5 1748.35  30
   6  -5   6 4053.93 639.051  30
  -6  -5  -6 4686.26 656.919  17
  -6  -5  -7 3410.36 487.099  17
   6  -4 -11 3380.84 582.303   9
   6  -4 -11 2667.62 540.975  19
   6  -4 -10 12234.7 1234.06  19
   6  -4 -10 14566.4 1280.57   9
   6  -4  -9 29132.5 2087.36  19
   6  -4  -9 31099.2 2069.12   9
   6  -4  -8 3347.25 746.546   9
   6  -4  -8 3801.07 823.387  19
   6  -4  -7 20192.6 1861.97  19
   6  -4  -7 24824.7 1978.51   9
   6  -4  -6 13662.4 1581.61  19
   6  -4  -6 19232.7 1764.38   9
   6  -4  -5 47086.5 3093.71  19
   6  -4  -5 58567.1 3212.99   9
   6  -4  -4 33335.8 2574.40  19
   6  -4  -4 40694.9 2639.20   9
   6  -4  -3 8662.01 1184.92   9
  -6  -4   2 29138.9 2018.85  21
   6  -4  -2 31297.2 2314.10   9
   6  -4  -1 1440.14 509.050  30
  -6  -4   1 2366.73 587.970  21
   6  -4   0 9326.70 1252.39  30
  -6  -4   0 11066.6 1322.20  17
  -6  -4  -1 13149.0 1472.74  17
   6  -4   1 14518.9 1588.07  30
   6  -4   2 3038.26 777.691  30
  -6  -4  -2 2659.28 658.688  17
  -6  -4  -3 45565.7 2740.07  17
   6  -4   3 41948.3 2723.23  30
   6  -4   4 1507.88 522.006  30
  -6  -4  -4 1732.45 534.452  17
  -6  -4  -5 4758.42 763.732  16
  -6  -4  -5 5695.58 866.635  17
  -6  -4  -6 10317.1 1097.71  17
  -6  -4  -6 7465.27 897.496  16
   6  -4   6 10679.8 1187.24  30
   6  -4   7 2734.07 560.508  30
  -6  -4  -7 1971.98 388.251  13
  -6  -4  -7 2339.98 458.358  16
  -6  -4  -7 2631.05 536.230  17
  -6  -4  -8 2984.63 439.369  16
  -6  -4  -8 2680.00 390.296  13
  -6  -4  -8 3649.27 535.702  17
   6  -3 -12 2034.94 450.146   9
   6  -3 -12 1500.01 441.818  19
   6  -3 -11 10680.5 1209.36  19
   6  -3 -11 9960.16 1061.09   9
   6  -3 -10 10937.5 1190.80   9
   6  -3 -10 11263.7 1308.50  19
   6  -3  -9 11573.7 1296.92   9
   6  -3  -9 11326.2 1352.78  19
   6  -3  -8 67506.3 3433.28   9
   6  -3  -8 56974.3 3297.96  19
   6  -3  -7 12985.5 1445.16   9
   6  -3  -7 11348.7 1391.17  19
   6  -3  -6 101189. 4489.39   9
   6  -3  -6 95256.4 4333.61  10
   6  -3  -5 35804.3 2473.70   9
   6  -3  -5 38566.8 2531.89  10
   6  -3  -4 12250.5 1388.68   9
   6  -3  -4 12011.3 1340.63  10
   6  -3  -3 153147. 5655.99  10
   6  -3  -3 134112. 5486.82   9
   6  -3  -2 21225.8 1772.02  10
  -6  -3   1 111977. 4389.47  21
   6  -3  -1 106275. 4543.57  10
   6  -3  -1 106665. 4692.27  30
  -6  -3   0 39554.3 2400.38  21
   6  -3   0 40821.0 2665.17  30
  -6  -3  -1 40384.6 2486.49  21
  -6  -3  -1 45254.0 2810.05  17
   6  -3   1 41179.9 2675.70  30
  -6  -3  -2 83195.0 3870.75  21
  -6  -3  -2 87071.5 4152.49  17
   6  -3   2 83816.8 4060.53  30
   6  -3   3 5771.80 1012.70  30
  -6  -3  -3 5717.06 1003.11  17
  -6  -3  -4 46403.6 2798.32  17
   6  -3   4 45148.7 2846.78  30
  -6  -3  -5 39829.5 2501.98  17
   6  -3   5 39182.4 2630.06  30
  -6  -3  -6 5590.54 807.547  13
  -6  -3  -6 7787.27 1043.82  16
   6  -3   6 6183.35 960.772  30
  -6  -3  -6 5938.26 911.114  17
  -6  -3  -7 8954.90 982.721  15
  -6  -3  -7 8654.25 916.775  13
  -6  -3  -7 8896.65 1025.24  17
  -6  -3  -7 8586.76 1030.14  16
   6  -3   7 10609.2 1200.45  30
  -6  -3  -8 655.357 351.994  16
  -6  -3  -8 236.382 273.344  13
  -6  -3  -8 247.324 198.306  17
  -6  -3  -9 3079.54 507.648  16
  -6  -3  -9 2876.74 433.782  13
  -6  -3  -9 2779.56 427.465  17
   6  -2 -13 43.4835 136.325   9
   6  -2 -12 9557.98 1007.81   9
   6  -2 -12 8787.37 1049.13  19
   6  -2 -11 3058.97 636.733   9
   6  -2 -11 2952.90 677.530  19
   6  -2 -10 31057.3 2122.06   9
   6  -2 -10 30161.8 2366.76  22
   6  -2 -10 28588.0 2227.16  19
   6  -2  -9 53508.4 2954.80   9
   6  -2  -9 51861.2 3324.54  22
   6  -2  -9 52706.7 3171.53  19
   6  -2  -8 8898.23 1197.70   9
   6  -2  -8 8529.83 1309.02  22
   6  -2  -8 7624.98 1167.60  19
   6  -2  -7 55730.6 3144.01   9
   6  -2  -6 43579.8 2723.13   9
   6  -2  -6 44113.6 2667.81  10
   6  -2  -5 19013.0 1683.73   9
  -6  -2   5 17240.7 1827.73  25
   6  -2  -5 15109.4 1855.89   2
   6  -2  -5 18443.4 1647.97  10
  -6  -2   4 93186.8 4471.58  27
  -6  -2   4 92424.4 4523.84  25
   6  -2  -4 85806.7 5122.25   1
   6  -2  -4 88468.6 4921.15   2
   6  -2  -4 92798.2 4075.25  10
  -6  -2   3 15537.4 1648.49  27
  -6  -2   3 16433.8 1726.24  25
  -6  -2   3 17157.9 1844.31  24
   6  -2  -3 18030.7 2025.25   2
  -6  -2   2 78997.3 4042.88  27
  -6  -2   2 78185.5 4013.64  25
  -6  -2   2 82460.4 4307.75  24
   6  -2  -2 79958.0 4604.06   2
  -6  -2   1 33405.3 2481.26  27
   6  -2  -1 27994.7 2618.34   4
  -6  -2   1 29800.8 2449.26  24
   6  -2  -1 32983.0 2776.08   2
  -6  -2   0 51619.2 3287.54  27
   6  -2   0 49772.2 3557.12   4
  -6  -2   0 52901.2 3358.33  24
   6  -2   0 51827.2 3604.18   2
   6  -2   1 37088.4 2446.09  30
  -6  -2  -1 41092.8 2986.18  27
   6  -2   1 34219.2 2921.98   4
  -6  -2  -1 37635.5 2783.83  24
  -6  -2  -1 39394.7 2374.98  21
   6  -2   1 37359.7 3037.91   2
   6  -2   2 25623.0 1972.69  30
  -6  -2  -2 25903.8 1928.13  21
   6  -2   2 20404.5 2278.94   2
  -6  -2  -3 70588.6 3491.22  21
   6  -2   3 66738.8 3469.63  30
   6  -2   4 3652.50 775.305  30
  -6  -2  -4 5635.55 931.584  21
  -6  -2  -5 38134.0 2296.68  13
  -6  -2  -5 38460.3 2459.49  21
  -6  -2  -5 36903.6 2411.71  17
   6  -2   5 37835.6 2577.41  30
   6  -2   6 3443.57 813.977  30
  -6  -2  -6 3496.41 683.682  13
  -6  -2  -6 4484.11 791.303  21
  -6  -2  -6 3423.74 703.242  17
   6  -2   7 4806.03 869.726  30
  -6  -2  -7 4647.18 798.125  16
  -6  -2  -7 5649.50 834.787  15
  -6  -2  -7 4760.87 722.033  13
  -6  -2  -8 5860.03 792.756  15
  -6  -2  -8 6522.21 795.726  13
  -6  -2  -8 6061.79 882.589  16
  -6  -2  -9 74.5801 243.094  16
  -6  -2  -9-121.778 188.953  13
  -6  -2 -10 558.873 210.465  16
  -6  -2 -10 449.171 198.875  13
   6  -1 -13 1729.82 404.750   9
   6  -1 -12 1467.22 469.653   9
   6  -1 -12 1047.71 485.945  22
   6  -1 -11 21155.1 1703.47   9
   6  -1 -11 20324.1 1892.49  22
   6  -1 -11 19929.8 1785.62  19
   6  -1 -10 3037.89 728.818  14
   6  -1 -10 2723.20 657.509   9
   6  -1 -10 1983.98 763.280  22
   6  -1 -10 2022.19 621.123  19
   6  -1  -9 42281.0 2671.77   9
   6  -1  -9 51590.8 3089.35  14
   6  -1  -9 47708.8 3126.89  22
   6  -1  -9 44971.0 2985.86  19
   6  -1  -8 101264. 4476.68   9
   6  -1  -8 111199. 4891.21  14
   6  -1  -8 96835.6 4836.85  22
   6  -1  -7 44682.9 2744.31   9
   6  -1  -7 42433.3 2931.55  22
   6  -1  -7 43046.7 2618.84  10
   6  -1  -6 109766. 4693.03   9
  -6  -1   6 104475. 4714.76   7
   6  -1  -6 110998. 4565.20  10
   6  -1  -5 110531. 5819.33   1
  -6  -1   5 120375. 5080.86  27
  -6  -1   5 119936. 5126.46  25
  -6  -1   5 99080.1 4460.85   7
   6  -1  -5 96369.8 5104.42   2
  -6  -1   4 26737.2 2122.37  27
  -6  -1   4 25071.0 2108.98  25
   6  -1  -4 21199.3 2398.15   1
   6  -1  -4 24790.1 2346.88   2
  -6  -1   3 249429. 8326.70  27
  -6  -1   3 259144. 8637.84  24
   6  -1  -3 238528. 8915.68   2
  -6  -1   2 13103.4 1446.77  27
  -6  -1   2 13129.6 1541.42  24
   6  -1  -2 13952.7 1719.23   2
  -6  -1   1 135328. 5463.91  27
  -6  -1   1 137536. 5536.60  24
   6  -1  -1 130210. 5828.97   2
  -6  -1   0 185690. 6862.18  27
   6  -1   0 159226. 6777.79   4
  -6  -1   0 174539. 6688.26  24
   6  -1   0 183069. 7223.43   2
  -6  -1  -1 57771.1 3427.00  24
   6  -1   1 54078.5 3550.57   4
   6  -1   1 61338.7 3818.51   2
  -6  -1  -2 83591.9 4282.81  24
   6  -1   2 82399.8 4603.59   4
   6  -1   2 90708.5 4841.62   2
   6  -1   3 11891.3 1309.35  30
  -6  -1  -3 14576.9 1432.77  21
   6  -1   3 11088.7 1580.58   2
   6  -1   4 26836.0 2094.99  30
  -6  -1  -4 27575.9 2057.97  21
   6  -1   5 54173.4 3122.50  30
  -6  -1  -5 51102.0 2762.60  13
  -6  -1  -5 53289.0 2962.56  21
  -6  -1  -6-223.299 384.493  15
  -6  -1  -6-97.1039 301.621  13
   6  -1   6 135.622 385.602  30
  -6  -1  -6 863.651 384.797  21
  -6  -1  -7 12933.7 1282.34  15
  -6  -1  -7 14150.6 1290.61  13
  -6  -1  -7 13616.3 1353.20  21
  -6  -1  -7 13348.7 1421.99  16
   6  -1   7 12405.2 1376.59  30
  -6  -1  -8 4725.58 839.224  16
  -6  -1  -8 5030.05 768.219  15
  -6  -1  -8 4685.83 702.677  13
  -6  -1  -8 4676.00 751.664  21
  -6  -1  -9 922.749 316.033  16
  -6  -1  -9 781.923 342.869  15
  -6  -1  -9 789.966 352.191  13
  -6  -1 -10 1398.85 349.661  16
  -6  -1 -10 870.685 283.441  13
   6   0 -13 148.661 259.153   9
   6   0 -13 756.221 431.212  22
   6   0 -12 7108.82 960.394   9
   6   0 -12 7476.18 1086.71  22
   6   0 -11 4822.84 779.765   9
   6   0 -11 4865.39 866.491  14
   6   0 -11 4624.49 915.520  22
   6   0 -10 93765.2 4286.63   9
   6   0 -10 103499. 4572.09  14
   6   0 -10 99276.7 4725.16  22
   6   0  -9 41214.3 2655.21   9
   6   0  -9 43592.5 2846.44  14
   6   0  -9 44406.2 2995.40  22
   6   0  -8 85273.2 4004.50   9
   6   0  -8 83094.3 4318.53  22
   6   0  -8 84149.7 3907.98  10
   6   0  -7 143287. 5659.08   9
   6   0  -7 152854. 6186.69  22
   6   0  -7 146847. 5564.18  10
  -6   0   6 3945.28 845.845  27
   6   0  -6 3464.31 715.638   9
   6   0  -6 2140.53 748.823   1
  -6   0   6 5087.76 862.555   7
   6   0  -6 3359.00 668.987  10
   6   0  -5 85197.8 4616.86   2
  -6   0   5 94784.4 4452.20  27
  -6   0   5 99022.3 4337.93   7
   6   0  -5 88665.1 5071.64   1
   6   0  -4 34250.8 2676.45   2
  -6   0   4 35083.9 2435.41  27
  -6   0   4 33722.0 2264.71   7
   6   0  -3 73392.0 4045.15   2
  -6   0   3 71332.2 3604.05  27
  -6   0   3 66459.6 3251.64   7
   6   0  -2 143068. 6120.69   2
  -6   0   2 148846. 5754.52  27
  -6   0   2 146859. 5676.52  24
   6   0  -1 33236.2 2618.86   2
  -6   0   1 33755.0 2407.92  27
  -6   0   1 37147.0 2494.13  24
   6   0   0 24284.2 2221.66   2
  -6   0   0 23126.7 2006.59  27
  -6   0   0 22910.5 1929.36  24
   6   0   0 19921.1 1911.26   4
   6   0   1 51536.9 3345.68   2
  -6   0  -1 46346.3 2916.25  24
   6   0   1 42919.9 2992.47   4
  -6   0  -2 24407.5 2095.57  24
   6   0   2 25152.6 2303.95   4
   6   0   2 25976.7 2385.16   2
  -6   0  -3 79705.8 4173.54  24
   6   0   3 80618.1 4509.26   4
  -6   0  -3 89694.7 3853.17  21
  -6   0  -3 76761.8 4408.38   6
  -6   0  -4 36450.9 2215.73  15
  -6   0  -4 33683.7 2156.97  13
  -6   0  -4 38242.9 2388.94  21
   6   0   5 9137.20 1224.09  30
  -6   0  -5 8297.29 1033.94  15
  -6   0  -5 6832.70 945.203  13
  -6   0  -5 9720.19 1195.43  21
   6   0   6 46601.6 2902.63  30
  -6   0  -6 47541.3 2643.08  15
  -6   0  -6 50311.4 2684.80  13
  -6   0  -6 51364.3 2842.51  21
  -6   0  -7 1598.64 600.178  16
  -6   0  -7 2027.69 597.566  15
  -6   0  -7 1180.66 385.039  13
  -6   0  -7 1531.25 495.365  21
  -6   0  -8 7290.73 915.048  15
  -6   0  -8 8146.12 951.828  13
  -6   0  -8 8106.67 1008.55  21
  -6   0  -8 9240.66 1105.11  16
  -6   0  -9 4231.67 653.677  15
  -6   0  -9 3748.69 603.742  13
  -6   0  -9 4145.15 671.297  21
  -6   0  -9 4002.23 680.774  16
  -6   0 -10 1654.77 369.300  16
  -6   0 -10 928.332 289.954  13
  -6   0 -11 994.692 229.411  13
   6   1 -13 1688.97 443.042   9
   6   1 -13 910.269 294.699  22
   6   1 -12 725.459 301.167   9
   6   1 -12 753.913 497.679  22
   6   1 -11 21090.8 1784.33   9
   6   1 -11 22243.9 1985.41  22
   6   1 -10 2679.73 666.034   9
   6   1 -10 2385.58 761.836  22
   6   1  -9 37983.1 2565.13   9
   6   1  -9 41457.2 2898.03  22
   6   1  -8 94607.6 4305.35   9
   6   1  -8 94406.9 4657.12  22
   6   1  -8 88903.6 4147.98  10
   6   1  -7 42186.6 2695.00   9
   6   1  -7 43247.6 2985.67  22
   6   1  -7 48609.7 2789.72  11
   6   1  -7 44738.5 2669.37  10
   6   1  -6 95474.0 4406.22   9
  -6   1   6 103350. 4829.27  27
   6   1  -6 111366. 4802.50  23
   6   1  -6 108467. 5008.78  22
  -6   1   6 107850. 4889.55   7
   6   1  -6 118063. 4684.49  11
  -6   1   5 128470. 5268.41  27
   6   1  -5 107805. 5427.20   2
   6   1  -5 110116. 5656.64   1
  -6   1   5 129225. 5217.00   7
  -6   1   4 22727.2 1956.88  27
   6   1  -4 23437.1 2191.81   2
  -6   1   4 23880.8 1907.93   7
  -6   1   3 249135. 8141.52  27
   6   1  -3 234578. 8532.91   2
  -6   1   3 224560. 7621.52   7
  -6   1   2 13368.4 1463.24  27
   6   1  -2 14406.9 1690.04   2
  -6   1   2 11363.7 1250.16   7
   6   1  -1 118003. 5438.80   2
  -6   1   1 107860. 4554.67   7
   6   1   0 182234. 7162.97   2
  -6   1   0 171424. 6437.25  24
   6   1   1 65052.7 3882.95   2
  -6   1  -1 63252.3 3456.26  24
   6   1   1 55977.2 3415.51   4
   6   1   2 89875.0 4765.63   2
  -6   1  -2 82250.5 4180.87  24
   6   1   2 80964.3 4361.28   4
  -6   1  -3 11165.4 1193.44  15
  -6   1  -3 9691.69 1116.70  13
  -6   1  -3 9390.23 1315.57  24
  -6   1  -3 9692.05 1164.25  21
   6   1   3 10957.0 1533.69   4
  -6   1  -4 29603.8 1990.50  15
  -6   1  -4 26484.4 1900.58  13
  -6   1  -4 29629.3 2089.11  21
  -6   1  -5 50597.1 2685.97  15
  -6   1  -5 48565.6 2679.52  13
  -6   1  -5 48058.1 2747.13  21
   6   1   6 424.107 397.174  30
  -6   1  -6 483.433 336.726  15
  -6   1  -6 626.543 468.438  13
  -6   1  -6 45.1824 299.166  21
  -6   1  -7 10876.9 1179.51  15
  -6   1  -7 13886.2 1290.19  13
  -6   1  -7 10691.9 1174.90  21
  -6   1  -8 4615.61 733.839  15
  -6   1  -8 4687.72 741.011  13
  -6   1  -8 4700.73 741.452  21
  -6   1  -9 820.165 353.306  15
  -6   1  -9 1172.86 365.336  13
  -6   1 -10 1305.83 295.744  15
  -6   1 -10 767.114 261.411  13
  -6   1 -10 850.661 292.325  18
   6   2 -13 805.160 338.765   9
   6   2 -13 156.019 226.570  22
   6   2 -12 8360.93 1037.28   9
   6   2 -12 8749.47 1089.63  22
   6   2 -11 3599.21 782.298   9
   6   2 -11 3456.14 783.341  22
   6   2 -10 24703.4 2000.35   9
   6   2 -10 25626.3 2185.25  22
   6   2  -9 45906.9 2881.35   9
   6   2  -9 49412.6 3203.61  22
   6   2  -9 53575.3 3031.04  11
   6   2  -9 44993.1 2806.25  10
   6   2  -8 6865.11 1094.17   9
   6   2  -8 7473.45 1202.19  23
   6   2  -8 6695.60 1158.57  22
   6   2  -8 7061.97 1052.66  11
   6   2  -7 53689.7 3289.82  23
   6   2  -7 54464.6 3426.57  22
   6   2  -7 53849.0 3044.96  11
   6   2  -6 45851.8 2906.34  23
   6   2  -6 40148.2 2912.39  22
   6   2  -6 46192.8 2731.99  11
   6   2  -5 13228.2 1473.80  23
   6   2  -5 13404.6 1625.45  22
   6   2  -5 13235.9 1769.96   2
   6   2  -5 17234.6 1585.13  11
   6   2  -4 86845.6 4199.45  23
   6   2  -4 87422.8 4800.64   2
  -6   2   4 85177.0 4163.05   7
  -6   2   3 13744.2 1457.71   7
  -6   2   2 73279.4 3643.72   7
   6   2  -1 24732.7 2346.34   2
  -6   2   1 24344.4 1960.70   7
   6   2   0 53686.7 3657.32  26
   6   2   0 52647.7 3596.92   2
  -6   2   0 50162.3 3001.51   7
   6   2   1 31904.1 2792.64  26
  -6   2  -1 30324.9 2355.84  24
   6   2   1 35618.4 2961.93   2
   6   2   1 31511.1 2499.61   4
  -6   2  -1 32583.4 2417.42   7
  -6   2  -1 39487.8 2334.78  12
  -6   2  -2 23360.0 1796.11  15
   6   2   2 19037.2 2115.97  26
  -6   2  -2 21147.5 1982.28  24
   6   2   2 19807.9 2195.88   2
   6   2   2 18504.4 1971.45   4
  -6   2  -2 22349.2 1780.25  21
  -6   2  -2 23264.4 1798.44  12
  -6   2  -3 75492.8 3470.21  15
  -6   2  -3 65506.3 3240.28  13
  -6   2  -3 67989.1 3414.18  21
  -6   2  -3 72609.4 3490.41  12
  -6   2  -4 7379.93 993.905  15
  -6   2  -4 6793.08 939.012  13
  -6   2  -4 6869.92 1016.84  21
  -6   2  -4 7965.62 1042.79  12
  -6   2  -5 37155.1 2304.88  15
  -6   2  -5 42942.5 2465.32  13
  -6   2  -5 39917.4 2457.01  21
  -6   2  -6 3365.89 694.659  15
  -6   2  -6 3277.96 664.257  13
  -6   2  -6 4226.45 775.504  21
  -6   2  -7 5548.01 809.249  15
  -6   2  -7 5635.41 821.586  13
  -6   2  -7 6123.37 902.830  21
  -6   2  -8 8455.45 945.250  15
  -6   2  -8 5964.80 804.638  14
  -6   2  -8 8870.03 938.961  13
  -6   2  -9 37.0812 224.820  15
  -6   2  -9 214.825 179.994  14
  -6   2  -9 128.260 254.167  18
  -6   2 -10 617.728 242.819  18
   6   3 -12 2076.09 485.217   9
   6   3 -12 1763.15 452.832  22
   6   3 -11 10882.4 1178.48   9
   6   3 -11 10479.9 1197.90  22
   6   3 -10 10848.0 1279.38   9
   6   3 -10 9972.80 1259.73  22
   6   3 -10 9965.66 1167.84  11
   6   3 -10 9966.92 1154.77  10
   6   3  -9 12768.3 1425.69   9
   6   3  -9 12608.9 1521.94  23
   6   3  -9 13164.7 1540.12  22
   6   3  -9 14544.2 1475.91  11
   6   3  -8 63371.5 3684.92  23
   6   3  -8 64984.5 3697.66  22
   6   3  -8 63605.9 3388.75  11
   6   3  -7 12314.2 1560.57  23
   6   3  -7 13137.9 1608.29  22
   6   3  -7 14522.4 1491.65  11
   6   3  -6 99652.3 4727.80  23
   6   3  -6 103390. 4960.88  22
   6   3  -6 102811. 4478.82  11
   6   3  -5 38716.0 2699.59  23
   6   3  -5 37037.6 2800.58  22
   6   3  -5 38294.7 2484.99  11
   6   3  -4 13723.9 1555.65  23
   6   3  -4 12248.8 1583.00  22
   6   3  -4 14608.9 1509.44  11
   6   3  -3 149349. 6093.44  23
   6   3  -3 163909. 6126.18  11
   6   3  -2 20569.2 1926.09  23
  -6   3   2 20897.2 1757.29  12
   6   3  -2 22450.1 1979.36  11
   6   3  -1 102067. 4804.08  23
  -6   3   1 114051. 4542.34  12
  -6   3   0 43138.3 2531.93  12
  -6   3  -1 37322.8 2408.21  15
  -6   3  -1 42278.0 2481.61  12
  -6   3  -2 88774.7 4023.49  15
  -6   3  -2 93613.8 4028.01  12
  -6   3  -3 5927.17 914.788  15
  -6   3  -3 5610.78 906.090  12
  -6   3  -4 44292.7 2533.79  15
  -6   3  -4 36021.0 2330.07  21
  -6   3  -4 42434.4 2504.70  12
  -6   3  -5 41676.6 2401.34  15
  -6   3  -5 37651.4 2319.11  21
  -6   3  -5 41750.4 2443.67  12
  -6   3  -6 5026.51 800.966  15
  -6   3  -6 5750.51 847.234  21
  -6   3  -6 5129.54 790.705  12
  -6   3  -7 8926.25 970.514  15
  -6   3  -8 295.832 212.687  15
  -6   3  -8 987.768 357.918  14
  -6   3  -8 598.142 332.222  18
  -6   3  -9 2989.03 477.750  14
  -6   3  -9 3108.43 494.330  18
   6   4 -11 2732.27 545.046   9
   6   4 -11 2423.62 481.401  22
   6   4 -10 10879.9 1143.75   9
   6   4 -10 12291.0 1252.30  22
   6   4 -10 12346.9 1175.50  11
   6   4  -9 28138.0 2099.45  23
   6   4  -9 27603.9 2057.84  22
   6   4  -9 26405.1 1908.90  11
   6   4  -8 3402.60 780.955  23
   6   4  -8 2753.42 692.419  22
   6   4  -8 2986.76 655.718  11
   6   4  -7 20549.9 1942.76  23
   6   4  -7 23215.9 2022.18  22
   6   4  -7 25158.1 1921.76  11
   6   4  -6 14453.3 1614.29  23
   6   4  -6 18230.1 1812.33  22
   6   4  -6 17675.7 1618.03  11
   6   4  -5 45688.2 2982.92  23
   6   4  -5 49433.6 3141.53  22
   6   4  -5 48659.9 2850.46  11
   6   4  -4 37212.0 2664.56  23
   6   4  -4 40027.7 2857.64  22
  -6   4   4 42582.8 2625.13  12
   6   4  -4 40880.7 2647.60  11
   6   4  -3 6568.22 1072.03  23
  -6   4   3 7566.69 1055.03  12
   6   4  -3 6343.06 1059.29  11
   6   4  -2 26975.4 2245.11  23
  -6   4   2 30004.5 2153.50  12
   6   4  -1 3305.50 817.150  23
  -6   4   1 2522.64 578.191  12
  -6   4   0 8651.72 1096.39  12
  -6   4  -1 13088.9 1314.66  12
  -6   4  -2 2141.63 600.839  15
  -6   4  -2 1875.70 481.957  12
  -6   4  -3 45462.5 2596.72  15
  -6   4  -3 48906.3 2648.26  12
  -6   4  -4 2251.92 630.376  15
  -6   4  -4 2509.25 611.516  12
  -6   4  -5 9094.50 1030.64  15
  -6   4  -5 9464.17 1053.93  12
  -6   4  -6 9041.48 954.253  15
  -6   4  -6 10307.7 1042.13  12
  -6   4  -6 10166.3 1040.98  18
  -6   4  -7 2411.80 462.020  12
  -6   4  -7 2287.89 470.587  18
  -6   4  -8 3202.93 517.824  14
  -6   4  -8 3115.54 482.969  18
   6   5 -10 1681.27 373.650   9
   6   5 -10 1829.71 343.554  10
   6   5  -9 4646.85 679.869   9
   6   5  -9 5215.26 770.553  23
   6   5  -9 4139.98 672.943  22
   6   5  -9 5280.74 712.184  11
   6   5  -8 16202.8 1469.53  23
   6   5  -8 16428.2 1446.28  22
   6   5  -8 18346.6 1430.69  11
   6   5  -7 588.868 416.425  23
   6   5  -7 629.805 447.502  22
   6   5  -7 1020.18 443.300  11
   6   5  -6 29675.9 2197.92  23
   6   5  -6 31982.0 2254.16  22
   6   5  -6 30546.2 2035.53  11
   6   5  -5 11654.8 1393.79  23
   6   5  -5 12042.1 1414.65  22
   6   5  -5 12393.7 1327.38  11
   6   5  -4 4359.67 883.143  23
   6   5  -4 6240.54 996.564  22
   6   5  -4 4431.41 809.677  11
   6   5  -3 48475.9 2963.67  23
  -6   5   3 47563.3 2635.49  12
   6   5  -3 51378.5 2883.99  11
   6   5  -2 19617.3 1783.46  23
  -6   5   2 20501.5 1660.18  12
   6   5  -1 31117.7 2289.66  23
  -6   5   1 33967.4 2158.98  12
  -6   5   0 24378.7 1795.97  12
  -6   5  -1 9662.38 1100.77  12
  -6   5  -2 42059.1 2353.14  12
  -6   5  -3 9007.89 990.164  12
  -6   5  -4 27087.1 1716.08  12
  -6   5  -5 24330.6 1552.00  12
  -6   5  -6 4182.82 583.045  12
  -6   5  -6 3689.41 496.264  18
  -6   5  -7 3960.88 499.602  14
  -6   5  -7 3355.93 443.569  12
   6   6  -8 2487.74 430.891  23
   6   6  -7 4540.15 667.196  23
   6   6  -7 5068.22 670.603  22
   6   6  -7 5995.70 716.001  11
   6   6  -6 2965.36 576.820  23
   6   6  -6 3394.35 629.424  22
   6   6  -6 3755.55 588.373  11
   6   6  -5 6081.36 823.423  23
   6   6  -5 5237.26 801.626  22
   6   6  -5 5217.44 716.387  11
   6   6  -4 12824.4 1272.54  23
   6   6  -4 14591.0 1380.80  22
   6   6  -3 3245.25 650.288  23
   6   6  -3 3360.24 718.420  22
   6   6  -2 11873.1 1188.57  23
  -6   6   1 5245.92 718.488  12
  -6   6   0 10114.7 998.537  12
  -6   6  -1 9400.73 941.140  12
  -6   6  -2 10446.6 971.896  12
  -6   6  -3 16335.2 1184.37  12
  -6   6  -4 9954.12 856.633  12
  -6   6  -5 7697.19 671.415  12
  -6   7   4 369.756 201.256  23
  -6   7   3 6301.83 626.524  23
   6   7  -3 5313.88 616.403  22
  -6   7   2 1382.88 286.888  23
   6   7  -2 1548.96 356.223  22
  -6   7   1 3694.52 469.327  23
   6   7  -1 4486.93 599.814  22
   6   7   0 5165.87 621.368  22
   6   7   1 2606.81 413.832  22
  -7  -6   6 339.034 178.278  17
  -7  -6   5 1283.48 330.847  17
  -7  -6   4 7771.15 819.948  17
  -7  -6   3 2191.24 440.678  17
  -7  -6   2 14027.3 1143.61  17
  -7  -6   1 3587.93 575.912  17
  -7  -6   0 9647.65 904.095  17
   7  -6   0 9213.56 889.449  30
  -7  -6  -1 5930.63 677.170  17
   7  -6   1 6536.98 753.194  30
   7  -6   2 2753.83 466.145  30
  -7  -6  -2 2289.18 416.733  17
   7  -6   3 2314.69 393.330  30
  -7  -6  -3 1971.63 330.883  17
   7  -5  -9 3157.23 481.134   9
  -7  -5   9 2988.50 417.977  21
   7  -5  -9 2841.64 458.849  19
  -7  -5   8 9178.05 822.817  21
   7  -5  -8 8778.61 909.305  19
   7  -5  -8 9850.59 943.085   9
   7  -5  -7 2017.80 517.812   9
  -7  -5   7 1969.14 432.441  21
   7  -5  -7 1512.93 433.259  19
  -7  -5   6 18009.0 1307.14  21
   7  -5  -6 17666.8 1464.20  19
   7  -5  -6 21035.6 1549.65   9
  -7  -5   5 7625.79 867.966  21
   7  -5  -5 9635.68 1065.96   9
  -7  -5   4 10107.8 1004.14  21
   7  -5  -4 9830.34 1077.76   9
  -7  -5   3 24978.2 1638.28  21
  -7  -5   3 28155.8 1915.23  17
   7  -5  -3 23695.5 1693.93   9
  -7  -5   2 6408.71 932.863  17
  -7  -5   1 37507.2 2258.43  17
   7  -5  -1 35121.4 2248.51  30
  -7  -5   0 30522.0 1978.91  17
   7  -5   0 28044.7 2016.17  30
  -7  -5  -1 10416.0 1103.32  17
   7  -5   1 11229.1 1233.21  30
  -7  -5  -2 18678.2 1445.11  17
   7  -5   2 21527.5 1698.33  30
   7  -5   3 4339.56 716.638  30
  -7  -5  -3 3109.27 558.848  17
  -7  -5  -4 6199.93 713.540  17
   7  -5   4 7728.76 869.083  30
  -7  -5  -5 7980.41 737.264  17
   7  -5   5 7915.10 817.006  30
   7  -4 -10 8720.28 953.420  19
   7  -4 -10 9578.37 911.905   9
   7  -4  -9 9498.64 1085.34  19
   7  -4  -9 8679.65 963.812   9
   7  -4  -8 2252.08 579.712   9
   7  -4  -8 865.776 463.216  19
   7  -4  -7 13455.9 1411.13  19
   7  -4  -7 13472.0 1332.53   9
   7  -4  -6 7670.76 1112.68  19
   7  -4  -6 9319.77 1160.29   9
   7  -4  -5 12701.2 1467.31  19
   7  -4  -5 15165.8 1471.90   9
  -7  -4   4 27175.9 1843.78  21
   7  -4  -4 21644.0 1971.45  19
   7  -4  -4 25976.9 1990.69   9
  -7  -4   3 6360.39 890.502  21
  -7  -4   2 59891.5 2971.82  21
  -7  -4   1 11180.1 1199.29  21
   7  -4  -1 11948.8 1376.27  30
  -7  -4   0 12801.3 1253.16  21
  -7  -4   0 12326.7 1364.53  17
   7  -4   0 12978.6 1439.85  30
  -7  -4  -1 39709.1 2471.13  17
   7  -4   1 39368.2 2572.80  30
  -7  -4  -2 8663.48 1085.23  17
   7  -4   2 10358.6 1276.38  30
  -7  -4  -3 21666.4 1668.82  17
   7  -4   3 24941.3 1922.92  30
   7  -4   4 6148.82 906.248  30
  -7  -4  -4 6291.79 837.793  17
   7  -4   5 6636.20 863.062  30
  -7  -4  -5 3887.15 601.874  16
  -7  -4  -5 5479.77 736.148  17
  -7  -4  -6 7604.55 735.010  15
  -7  -4  -6 7475.49 743.550  17
  -7  -4  -6 6493.82 696.854  16
   7  -4   6 8362.55 893.381  30
   7  -3 -12 1964.23 362.845   9
   7  -3 -11 9467.62 1021.99  19
   7  -3 -11 8921.66 903.546   9
   7  -3 -10 11898.7 1136.76   9
   7  -3 -10 11372.0 1236.95  19
   7  -3  -9 4754.83 787.986   9
   7  -3  -9 4539.56 834.297  19
   7  -3  -8 29058.5 2031.66   9
   7  -3  -8 24388.8 2006.43  19
   7  -3  -7 2769.13 640.753   9
   7  -3  -7 2259.21 695.180  19
   7  -3  -6 80451.2 3833.81   9
   7  -3  -6 77125.5 3731.39  10
   7  -3  -5 42945.1 2683.00   9
   7  -3  -5 44747.0 2739.30  10
   7  -3  -4 36195.6 2425.14  10
   7  -3  -4 34100.1 2391.30   9
  -7  -3   3 74327.0 3395.06  21
   7  -3  -3 71910.6 3626.55  10
  -7  -3   2 20757.1 1666.43  21
   7  -3  -2 24041.0 1913.04  10
  -7  -3   1 68914.6 3267.12  21
  -7  -3   1 68407.1 3497.70  17
   7  -3  -1 60939.9 3419.28  30
  -7  -3   0 81448.1 3647.50  21
  -7  -3   0 72392.3 3699.13  17
   7  -3   0 76240.4 3847.71  30
   7  -3   1 2227.76 665.618  30
  -7  -3  -1 1998.48 599.468  21
  -7  -3  -1 1908.42 606.540  17
  -7  -3  -2 39545.8 2407.53  21
  -7  -3  -2 36822.7 2410.27  17
   7  -3   2 37778.9 2540.36  30
  -7  -3  -3 10393.1 1160.97  21
  -7  -3  -3 9791.59 1153.72  17
   7  -3   3 9221.84 1178.96  30
   7  -3   4 6693.61 1006.65  30
  -7  -3  -4 7029.56 921.940  21
  -7  -3  -4 6285.58 889.538  17
  -7  -3  -5 18258.7 1431.50  17
   7  -3   5 19801.2 1651.28  30
   7  -3   6 708.481 376.329  30
  -7  -3  -6 432.484 346.215  16
  -7  -3  -6-59.2666 236.104  15
  -7  -3  -6 374.216 244.541  17
  -7  -3  -7 6964.84 730.739  15
  -7  -3  -7 7232.86 803.929  16
   7  -3   7 7689.72 858.163  30
  -7  -3  -8-18.2320 135.209  16
   7  -2 -12 15220.2 1167.07   9
   7  -2 -12 15332.6 1194.54  19
   7  -2 -11 4712.21 710.031   9
   7  -2 -11 3734.92 722.329  19
   7  -2 -10 6957.60 907.816   9
   7  -2 -10 6870.62 1012.66  22
   7  -2 -10 9024.44 1182.59  19
   7  -2  -9 8249.67 1040.54   9
   7  -2  -9 8465.03 1181.19  22
   7  -2  -9 9032.82 1245.25  19
   7  -2  -8 136.691 333.212   9
   7  -2  -8 214.837 346.580  19
   7  -2  -7 77114.1 3749.39   9
   7  -2  -7 77894.7 3700.54  10
   7  -2  -6 15546.1 1547.07   9
   7  -2  -6 16650.7 1594.60  10
   7  -2  -5 4399.81 811.351   9
   7  -2  -5 5259.53 890.077  10
   7  -2  -4 161334. 5984.34  10
  -7  -2   3 2341.28 595.963  21
   7  -2  -3 3421.95 703.855  10
   7  -2  -2 81766.8 3856.59  10
   7  -2  -2 77997.3 3848.07  30
  -7  -2   1 64969.4 3138.65  21
   7  -2  -1 63522.5 3306.93  10
   7  -2  -1 62227.9 3354.68  30
   7  -2   0 22344.4 1905.39  30
  -7  -2   0 27226.8 1932.03  21
   7  -2   0 22789.2 1905.52  10
  -7  -2  -1 114780. 4551.40  21
   7  -2   1 102659. 4629.09  10
   7  -2   1 107691. 4666.02  30
   7  -2   2 7654.42 1114.20  30
  -7  -2  -2 6468.97 983.924  21
  -7  -2  -3 19024.9 1651.80  21
   7  -2   3 16559.6 1596.15  30
  -7  -2  -4 23361.0 1800.12  21
   7  -2   4 21594.4 1858.78  30
  -7  -2  -5 15751.1 1417.70  21
   7  -2   5 12370.4 1348.13  30
   7  -2   6 5817.62 868.841  30
  -7  -2  -6 4031.45 743.232  16
  -7  -2  -6 4967.55 744.536  15
  -7  -2  -6 4093.20 698.152  21
   7  -2   7 1358.80 432.746  30
  -7  -2  -7 1350.47 447.753  16
  -7  -2  -7 1664.71 445.471  15
  -7  -2  -7 665.465 260.077  13
  -7  -2  -7 549.293 261.393  21
  -7  -2  -8 2460.75 491.189  16
  -7  -2  -8 2517.08 424.571  15
  -7  -2  -8 1721.88 340.659  13
  -7  -2  -9 501.527 202.098  16
   7  -1 -13 12043.6 945.898   9
   7  -1 -12 9330.60 1089.29  22
   7  -1 -12 9740.52 989.748   9
   7  -1 -11 10881.3 1133.24   9
   7  -1 -11 11496.2 1318.68  22
   7  -1 -11 10042.7 1161.04  19
   7  -1 -10 33929.0 2181.93   9
   7  -1 -10 36585.1 2526.15  22
   7  -1 -10 35802.4 2437.71  19
   7  -1  -9 902.968 512.741  22
   7  -1  -9 76.1840 290.173  19
   7  -1  -8 57911.5 3115.62   9
   7  -1  -8 55256.2 3350.36  22
   7  -1  -8 55175.0 2977.01  10
   7  -1  -7 11731.4 1366.94   9
   7  -1  -7 13708.4 1394.33  10
   7  -1  -6 92108.3 4259.85   9
   7  -1  -6 94779.4 4184.38  10
   7  -1  -5 229364. 7607.16  10
  -7  -1   4 24922.1 1821.88  21
   7  -1  -4 25629.0 1941.71  10
  -7  -1   3 149638. 5327.29  21
   7  -1  -3 143756. 5466.62  10
   7  -1  -2 18575.8 1654.65  30
  -7  -1   2 21009.4 1639.43  21
   7  -1  -2 18732.4 1668.79  10
   7  -1  -1 122633. 5003.94  30
  -7  -1   1 127064. 4788.79  21
   7  -1  -1 125463. 5037.53  10
   7  -1   0 129351. 5104.78  30
  -7  -1   0 121693. 4765.62  21
   7  -1   0 125586. 5074.03  10
   7  -1   1 3611.22 756.133  30
  -7  -1  -1 4216.51 888.601  21
   7  -1   1 3130.61 695.697  10
   7  -1   2 114083. 4806.41  30
  -7  -1  -2 122958. 4800.63  21
   7  -1   3 10950.6 1304.45  30
  -7  -1  -3 11174.8 1235.84  21
   7  -1   4 10278.1 1250.03  30
  -7  -1  -4 11574.7 1269.94  21
  -7  -1  -5 10105.7 1130.18  15
  -7  -1  -5 10241.3 1191.00  21
   7  -1   5 13736.9 1454.72  30
   7  -1   6 756.463 390.623  30
  -7  -1  -6 77.1695 271.380  15
  -7  -1  -6 525.761 328.612  13
  -7  -1  -6 687.343 389.559  21
  -7  -1  -7 13517.9 1171.35  15
  -7  -1  -7 11594.0 1027.06  13
  -7  -1  -7 10975.3 1087.27  21
  -7  -1  -7 12327.0 1213.80  16
   7  -1   7 11251.8 1178.61  30
  -7  -1  -8 1408.49 397.925  16
  -7  -1  -8 694.677 257.761  15
  -7  -1  -8 388.359 195.589  13
  -7  -1  -8 715.451 302.372  21
  -7  -1  -9 638.861 235.580  16
  -7  -1  -9 368.907 180.587  15
  -7  -1  -9 539.213 217.379  13
   7   0 -13 590.595 215.450   9
   7   0 -13-163.585 251.301  22
   7   0 -12 12059.8 1156.47   9
   7   0 -12 12522.6 1287.96  22
   7   0 -11 4213.50 748.371   9
   7   0 -11 4871.40 832.303  22
   7   0 -10 1967.40 524.431   9
   7   0 -10 921.873 447.594  22
   7   0  -9 6012.97 936.347   9
   7   0  -9 5253.68 996.713  22
   7   0  -9 5706.78 995.614  19
   7   0  -9 5488.73 870.265  10
   7   0  -8 15183.4 1536.38   9
   7   0  -8 19702.9 1938.44  22
   7   0  -8 18311.6 1632.07  10
   7   0  -7 44509.3 2778.31   9
   7   0  -7 47405.4 3104.04  22
   7   0  -7 46385.0 2719.97  10
   7   0  -6 116.307 395.526   9
   7   0  -6 196.991 470.904  22
  -7   0   6-0.67641 295.729  21
  -7   0   5 48111.5 2679.94  21
   7   0  -5 46157.4 2694.16  10
  -7   0   4 26065.5 1872.94  21
   7   0  -4 24252.6 1860.29  10
  -7   0   3 311.411 321.791  21
   7   0  -3 470.484 262.341  10
  -7   0   2 105551. 4277.53  21
   7   0  -2 99242.8 4361.88  10
  -7   0   1 25192.1 2229.78  24
  -7   0   1 29052.7 2008.58  21
   7   0  -1 30226.9 2159.89  10
  -7   0   0 80868.9 3621.59  21
   7   0   0 73639.6 3676.54  10
  -7   0  -1 90359.1 3951.57  21
  -7   0  -2 16451.7 1507.25  21
  -7   0  -3 59240.0 2995.54  15
  -7   0  -3 54741.0 2950.36  21
   7   0   4 33481.0 2328.81  30
  -7   0  -4 28941.8 2006.01  15
  -7   0  -4 33896.9 2197.64  21
   7   0   5 13771.0 1456.15  30
  -7   0  -5 12838.3 1254.94  15
  -7   0  -5 13313.7 1264.90  13
  -7   0  -5 13149.9 1333.92  21
   7   0   6 30401.1 2163.25  30
  -7   0  -6 35386.5 2085.63  15
  -7   0  -6 31554.4 1943.24  13
  -7   0  -6 33280.6 2102.06  21
  -7   0  -6 29365.8 2062.10  16
   7   0   7 2840.24 615.969  30
  -7   0  -7 2529.09 564.237  16
  -7   0  -7 2144.77 527.529  15
  -7   0  -7 2181.48 486.033  13
  -7   0  -7 1652.54 463.332  21
  -7   0  -8 8715.86 871.682  15
  -7   0  -8 8477.93 830.712  13
  -7   0  -8 9511.99 931.014  21
  -7   0  -8 7289.12 814.032  16
  -7   0  -9 1895.78 357.281  16
  -7   0  -9 1464.61 306.267  15
  -7   0  -9 1460.54 310.618  13
   7   1 -13 11938.0 960.722   9
   7   1 -13 14287.6 1145.58  22
   7   1 -12 8026.76 924.909   9
   7   1 -12 10168.6 1153.39  22
   7   1 -11 12329.7 1281.35   9
   7   1 -11 12913.2 1404.63  22
   7   1 -10 29920.6 2146.26   9
   7   1 -10 32691.2 2431.83  22
   7   1  -9 867.645 445.122   9
   7   1  -9 1037.94 485.063  22
   7   1  -9 1405.96 477.059  10
   7   1  -8 62545.6 3328.87   9
   7   1  -8 57043.1 3523.95  22
   7   1  -8 58302.6 3153.14  10
   7   1  -7 13460.1 1455.22   9
   7   1  -7 11936.4 1574.59  22
   7   1  -7 13171.6 1395.33  10
   7   1  -6 82662.6 4058.95   9
   7   1  -6 85535.8 4471.33  22
   7   1  -6 96099.3 4108.00  10
   7   1  -5 211586. 7887.04  22
   7   1  -5 222286. 7339.90  10
   7   1  -4 27105.4 2018.94  10
   7   1  -3 150180. 5695.63  10
  -7   1   2 23777.7 1833.74  21
   7   1  -2 22315.3 1881.42  10
  -7   1   1 124126. 4903.21  21
   7   1  -1 126308. 5152.79  10
  -7   1   0 127445. 4950.51  21
   7   1   0 116785. 4977.78  10
  -7   1  -1 2659.68 642.952  15
  -7   1  -1 2392.48 610.017  21
  -7   1  -1 2096.69 549.392  12
  -7   1  -2 116561. 4662.61  15
  -7   1  -2 109318. 4555.38  21
  -7   1  -2 112905. 4602.00  12
  -7   1  -3 11177.2 1236.92  15
  -7   1  -3 9232.30 1157.21  21
  -7   1  -4 10062.3 1133.59  15
  -7   1  -4 8549.62 1026.74  13
  -7   1  -4 7904.36 1036.04  21
   7   1   5 9899.32 1248.72  30
  -7   1  -5 6603.09 920.037  15
  -7   1  -5 6865.15 914.540  13
  -7   1  -5 7843.20 1027.12  21
   7   1   6 82.7365 339.406  30
  -7   1  -6 288.103 321.143  15
  -7   1  -6-183.424 243.301  13
  -7   1  -6 796.255 403.446  21
  -7   1  -7 10123.5 1021.37  15
  -7   1  -7 11979.0 1083.75  13
  -7   1  -7 10994.3 1084.88  21
  -7   1  -8 831.312 267.416  15
  -7   1  -8 1059.32 306.487  13
  -7   1  -8 437.648 212.269  21
  -7   1  -9 410.760 175.424  15
  -7   1  -9 383.101 180.832  18
   7   2 -12 14115.7 1186.49   9
   7   2 -12 15031.3 1296.87  22
   7   2 -11 2398.07 582.402   9
   7   2 -11 4828.84 847.943  22
   7   2 -10 7170.49 998.474   9
   7   2 -10 7203.37 1102.71  22
   7   2 -10 7185.42 959.387  10
   7   2  -9 6995.44 1024.85   9
   7   2  -9 8203.87 1225.40  22
   7   2  -9 9430.21 1164.78  10
   7   2  -8 380.234 399.543   9
   7   2  -8 634.962 448.688  22
   7   2  -8 303.942 396.627  10
   7   2  -7 68555.8 3610.69   9
   7   2  -7 77192.7 4003.84  23
   7   2  -7 79012.7 4236.74  22
   7   2  -7 77845.8 3698.99  10
   7   2  -6 11563.9 1448.19  23
   7   2  -6 10520.3 1444.05  22
   7   2  -6 11745.0 1319.83  10
   7   2  -5 5805.18 1021.81  23
   7   2  -5 7803.44 1281.89  22
   7   2  -4 144202. 5869.38  23
   7   2  -4 136513. 6051.36  22
   7   2  -3 3354.54 839.369  23
   7   2  -3 3770.20 865.504  22
   7   2  -3 3527.34 782.844  10
   7   2  -2 81751.4 4220.50  23
   7   2  -2 83674.1 4031.57  10
   7   2  -1 63375.1 3444.24  10
  -7   2   0 24713.0 1838.80  12
  -7   2  -1 101137. 4299.79  15
  -7   2  -1 94257.0 4174.91  21
  -7   2  -1 102835. 4249.86  12
  -7   2  -2 6516.49 966.788  15
  -7   2  -2 6481.28 970.824  21
  -7   2  -2 6603.13 928.508  12
  -7   2  -3 14824.8 1422.50  15
  -7   2  -3 14707.0 1412.08  21
  -7   2  -3 17544.2 1534.65  12
  -7   2  -4 21847.3 1724.47  15
  -7   2  -4 23295.8 1768.45  21
  -7   2  -4 21988.5 1686.63  12
  -7   2  -5 13639.0 1292.05  15
  -7   2  -5 11657.7 1194.77  21
   7   2   6 6766.15 969.908  30
  -7   2  -6 6131.38 850.893  15
  -7   2  -6 5542.83 800.650  21
  -7   2  -7 1099.24 384.139  15
  -7   2  -7 671.845 339.160  21
  -7   2  -8 1972.54 400.273  15
  -7   2  -9 630.236 211.632  18
   7   3 -12 1729.54 352.349   9
   7   3 -11 7085.12 839.227   9
   7   3 -11 8884.43 990.761  22
   7   3 -10 11516.9 1172.70   9
   7   3 -10 11339.4 1237.53  22
   7   3 -10 10216.8 1062.54  10
   7   3  -9 5518.54 878.192   9
   7   3  -9 5474.99 961.296  22
   7   3  -9 4401.37 752.114  10
   7   3  -8 26546.8 1996.86   9
   7   3  -8 27246.0 2175.85  23
   7   3  -8 26999.9 2192.17  22
   7   3  -8 24620.3 1905.56  10
   7   3  -7 2115.69 576.494   9
   7   3  -7 3501.91 870.298  23
   7   3  -7 3238.46 841.055  22
   7   3  -7 2867.97 734.971  11
   7   3  -6 67660.6 3741.77  23
   7   3  -6 72897.0 4039.68  22
   7   3  -6 77802.0 3710.28  11
   7   3  -5 36509.0 2628.58  23
   7   3  -5 38969.6 2852.91  22
   7   3  -4 34466.3 2567.54  23
   7   3  -4 33625.4 2694.58  22
   7   3  -3 68463.2 3809.65  23
   7   3  -3 66361.4 3971.20  22
  -7   3   3 75743.6 3564.72  12
   7   3  -2 22494.3 2056.15  23
   7   3  -2 21564.3 2137.28  22
  -7   3   2 23750.7 1853.24  12
  -7   3   1 62627.3 3102.04  12
   7   3  -1 57571.0 3299.81  10
  -7   3   0 75378.1 3486.57  12
  -7   3  -1 1486.54 541.555  12
  -7   3  -2 35115.8 2270.86  15
  -7   3  -2 41114.4 2378.46  12
  -7   3  -3 9893.93 1157.15  15
  -7   3  -3 10760.3 1152.26  12
  -7   3  -4 9153.10 1042.63  15
  -7   3  -4 8087.16 978.559  12
  -7   3  -4 5914.96 839.792  21
  -7   3  -5 18921.0 1438.81  15
  -7   3  -5 17206.7 1343.16  21
  -7   3  -5 16254.1 1320.43  12
  -7   3  -6 493.158 298.830  15
  -7   3  -7 7537.92 766.533  15
  -7   3  -7 6478.92 708.819  14
  -7   3  -7 8060.04 820.475  18
  -7   3  -8 82.8139 149.388  18
   7   4 -10 6428.06 752.982   9
   7   4 -10 8264.68 896.630  22
   7   4 -10 6937.15 734.982  10
   7   4  -9 7658.42 885.574   9
   7   4  -9 8572.81 1033.17  22
   7   4  -9 8164.04 920.221  10
   7   4  -8 1496.78 473.028   9
   7   4  -8 588.645 367.390  23
   7   4  -8 1215.39 466.740  22
   7   4  -7 11183.1 1160.07   9
   7   4  -7 10036.2 1244.16  23
   7   4  -7 10279.2 1275.81  22
   7   4  -7 10650.7 1160.88  11
   7   4  -6 5771.28 1021.63  23
   7   4  -6 6451.60 1042.10  22
   7   4  -6 7329.35 997.849  11
   7   4  -5 13713.7 1515.38  23
   7   4  -5 14070.6 1570.91  22
  -7   4   5 13324.5 1328.32  12
   7   4  -4 20044.4 1860.90  23
   7   4  -4 22871.5 2062.08  22
  -7   4   4 24053.4 1828.22  12
   7   4  -3 5258.09 957.098  23
   7   4  -3 6947.25 1190.89  22
  -7   4   3 5951.79 912.498  12
   7   4  -2 56461.1 3272.14  23
  -7   4   2 60824.1 3075.79  12
  -7   4   1 14482.6 1364.10  12
  -7   4   0 14621.7 1356.76  12
  -7   4  -1 39099.1 2258.66  12
  -7   4  -2 9252.31 1022.70  15
  -7   4  -2 10156.6 1080.07  12
  -7   4  -3 22540.4 1601.80  15
  -7   4  -3 23390.2 1617.82  12
  -7   4  -4 4762.55 709.418  15
  -7   4  -4 5734.00 750.606  12
  -7   4  -5 5120.99 671.004  12
  -7   4  -5 5491.69 687.239  18
  -7   4  -6 6588.27 673.807  12
  -7   4  -6 6903.76 703.826  18
  -7   4  -7 1526.93 300.449  14
  -7   4  -7 723.825 218.072  18
   7   5  -9 2501.01 434.220  22
   7   5  -9 2295.38 387.743  10
   7   5  -8 6530.53 675.486   9
   7   5  -8 8347.09 906.487  23
   7   5  -8 8314.34 900.987  22
   7   5  -8 8644.36 850.917  10
   7   5  -7 1908.51 500.820  23
   7   5  -7 2446.90 583.680  22
   7   5  -6 19222.2 1576.39  23
   7   5  -6 17652.0 1523.31  22
   7   5  -5 7766.97 1033.17  23
   7   5  -5 9402.39 1127.25  22
   7   5  -4 8243.08 1056.50  23
   7   5  -4 8849.41 1153.78  22
   7   5  -3 23635.6 1828.34  23
   7   5  -3 25104.5 1950.59  22
  -7   5   3 22568.8 1596.09  12
   7   5  -2 6073.47 892.554  23
   7   5  -2 6998.98 1046.09  22
  -7   5   2 5694.52 799.388  12
  -7   5   1 34202.7 2013.45  12
  -7   5   0 24803.3 1650.80  12
  -7   5  -1 9096.02 953.918  12
  -7   5  -2 14958.8 1189.46  12
  -7   5  -3 3085.90 496.565  12
  -7   5  -4 7027.19 735.416  12
  -7   5  -5 6730.14 638.120  12
   7   6  -6 588.599 259.843  23
   7   6  -6 586.438 235.344  22
   7   6  -6 800.583 265.796  10
   7   6  -5 1348.72 337.854  23
   7   6  -5 1326.56 372.753  22
   7   6  -5 1760.50 360.738  10
   7   6  -4 6701.30 761.262  23
   7   6  -4 5174.58 609.576  10
   7   6  -3 2335.53 468.487  23
   7   6  -3 2159.62 506.887  22
   7   6  -2 12595.1 1137.46  22
   7   6  -1 3145.37 591.687  22
  -7   6   1 3218.44 488.417  12
   7   6   0 8838.97 942.444  22
  -7   6   0 8748.03 790.670  12
   7   6   1 6807.03 776.199  22
  -7   6  -1 5755.31 636.449  12
   7   6   2 2797.56 467.373  22
  -7   6  -2 2169.48 393.357  12
  -7   6  -3 1950.01 328.275  12
  -8  -5   7 1421.43 332.492  17
  -8  -5   6 8814.90 741.888  21
  -8  -5   6 9145.19 841.780  17
   8  -5  -6 7607.67 708.175   9
  -8  -5   5 8880.37 793.680  21
  -8  -5   5 11498.8 984.711  17
  -8  -5   4 435.933 211.308  21
  -8  -5   4 934.089 327.584  17
  -8  -5   3 10587.5 997.982  17
  -8  -5   2 3107.54 543.620  17
  -8  -5   1 2259.79 468.431  17
  -8  -5   0 9059.95 875.903  17
   8  -5   0 9675.38 944.666  30
   8  -5   1 4892.20 680.558  30
  -8  -5  -1 4230.12 566.914  17
   8  -5   2 4598.12 632.846  30
  -8  -5  -2 4791.66 551.925  17
   8  -5   3 5677.83 626.210  30
  -8  -4   9 8433.32 759.421  21
   8  -4  -9 10348.1 939.981  19
   8  -4  -9 9707.00 827.038   9
   8  -4  -8 2686.02 499.872   9
  -8  -4   8 1739.95 389.129  21
   8  -4  -8 1815.27 476.589  19
  -8  -4   7 10296.8 956.624  21
   8  -4  -7 10811.9 1120.86  19
   8  -4  -7 11280.6 1042.33   9
  -8  -4   6 19037.5 1338.19  21
   8  -4  -6 15214.4 1397.89  19
   8  -4  -6 16181.6 1321.75   9
  -8  -4   5 6027.25 790.281  21
   8  -4  -5 4789.24 810.977  19
  -8  -4   4 23403.8 1592.75  21
   8  -4  -4 18725.4 1614.18  19
  -8  -4   3 6428.72 856.009  21
  -8  -4   3 7588.35 963.009  17
  -8  -4   2 30475.2 1873.08  21
  -8  -4   2 30644.2 1993.54  17
  -8  -4   1 13617.7 1223.22  21
  -8  -4   1 14718.5 1326.93  17
   8  -4  -1 13598.0 1328.36  30
  -8  -4   0 7211.40 875.131  21
  -8  -4   0 7795.72 927.943  17
   8  -4   0 7858.55 1004.05  30
  -8  -4  -1 18946.1 1425.56  17
   8  -4   1 20159.4 1605.11  30
   8  -4   2 2644.41 611.608  30
  -8  -4  -2 2819.96 531.137  17
  -8  -4  -3 13932.7 1061.69  17
   8  -4   3 18359.3 1415.78  30
   8  -4   4 3669.36 581.806  30
  -8  -4  -4 2848.67 453.891  16
  -8  -4  -5 3402.38 422.376  16
  -8  -4  -5 4443.00 487.529  15
   8  -4   5 5054.22 626.413  30
  -8  -3  10 6189.79 674.630  21
   8  -3 -10 5775.41 774.864  19
   8  -3 -10 5290.99 645.316   9
   8  -3  -9 1416.20 405.091   9
  -8  -3   9 579.167 270.908  21
   8  -3  -9 1023.65 413.939  19
  -8  -3   8 37399.5 2006.71  21
   8  -3  -8 32805.2 2201.68  19
   8  -3  -8 34069.5 2019.87   9
   8  -3  -7 4580.42 728.054   9
  -8  -3   7 3463.55 619.171  21
   8  -3  -7 4653.69 875.761  19
  -8  -3   6 18240.5 1418.66  21
   8  -3  -6 16164.3 1588.78  19
   8  -3  -6 19231.1 1565.47   9
  -8  -3   5 34624.1 2060.75  21
  -8  -3   4 2823.14 596.793  21
  -8  -3   3 49682.1 2608.86  21
  -8  -3   2 9116.58 1043.38  21
  -8  -3   2 8644.90 1078.81  17
  -8  -3   1 12248.5 1225.76  21
   8  -3  -1 10041.9 1216.25  30
  -8  -3   0 35745.5 2172.28  21
   8  -3   0 32000.5 2225.09  30
   8  -3   1 1447.86 510.929  30
  -8  -3  -1 1004.27 411.423  21
  -8  -3  -2 17353.7 1407.78  21
   8  -3   2 20553.9 1678.17  30
   8  -3   3 6785.14 964.063  30
  -8  -3  -3 7705.73 883.700  21
  -8  -3  -4 6151.40 721.310  21
   8  -3   4 7261.06 953.692  30
  -8  -3  -5 6886.86 745.857  15
  -8  -3  -5 7278.41 809.087  16
   8  -3   5 7636.86 883.871  30
   8  -3   6 2154.68 448.758  30
  -8  -3  -6 2425.88 404.032  16
  -8  -3  -6 2013.07 354.428  15
   8  -2 -11 1331.99 338.509   9
  -8  -2  11 785.996 245.273  21
   8  -2 -11 1213.09 318.950  19
   8  -2 -10 5835.19 757.446   9
  -8  -2  10 5256.92 668.204  21
   8  -2 -10 5542.36 816.847  19
   8  -2  -9 12693.3 1174.81   9
  -8  -2   9 11832.4 1083.36  21
   8  -2  -9 12117.7 1325.15  19
   8  -2  -8 4159.21 737.874   9
  -8  -2   8 3848.71 654.018  21
   8  -2  -8 3387.32 735.506  19
   8  -2  -8 2798.58 588.066  10
   8  -2  -7 41163.4 2424.35   9
  -8  -2   7 42762.0 2319.20  21
   8  -2  -7 41711.2 2415.04  10
   8  -2  -6 19262.4 1629.51   9
  -8  -2   6 19701.7 1531.28  21
   8  -2  -6 16822.6 1523.02  10
  -8  -2   5 20646.4 1606.52  21
   8  -2  -5 23676.7 1830.36  10
  -8  -2   4 97765.6 3984.35  21
   8  -2  -4 98193.5 4265.61  10
  -8  -2   3 8769.70 1040.02  21
   8  -2  -3 7801.72 1076.31  10
  -8  -2   2 72874.6 3267.38  21
   8  -2  -2 66321.6 3385.53  10
   8  -2  -2 60780.4 3274.00  30
  -8  -2   1 45275.1 2518.11  21
   8  -2  -1 42969.9 2671.56  10
   8  -2  -1 43416.8 2681.03  30
  -8  -2   0 25054.9 1819.53  21
   8  -2   0 22982.8 1880.48  30
  -8  -2  -1 54709.5 2825.89  21
   8  -2   1 53002.8 2985.62  30
   8  -2   2 2929.45 663.055  30
  -8  -2  -2 2535.46 566.615  21
  -8  -2  -3 21443.4 1611.64  21
   8  -2   3 20798.7 1707.06  30
  -8  -2  -4 14904.6 1246.70  15
  -8  -2  -4 13738.2 1230.97  21
   8  -2   4 15241.9 1420.49  30
   8  -2   5 2467.89 570.453  30
  -8  -2  -5 2629.21 537.876  15
  -8  -2  -5 1852.08 426.884  21
  -8  -2  -6 6983.25 749.600  15
  -8  -2  -6 6798.14 704.155  21
  -8  -2  -6 6891.08 779.120  16
   8  -2   6 8209.64 903.071  30
  -8  -2  -7 1437.98 332.587  16
  -8  -2  -7 863.860 238.109  15
   8  -1 -12 1359.03 333.019   9
   8  -1 -11 29877.0 1720.69   9
   8  -1 -11 27389.4 1663.56  19
   8  -1 -10 27716.1 1766.22   9
   8  -1 -10 26345.4 1854.49  22
   8  -1 -10 25190.3 1854.89  19
   8  -1  -9 14405.7 1322.00   9
  -8  -1   9 13593.5 1177.71  21
   8  -1  -9 14724.8 1508.15  19
   8  -1  -8 55237.7 2869.57   9
  -8  -1   8 57594.7 2748.36  21
   8  -1  -8 56032.7 2843.58  10
   8  -1  -7 1606.69 463.702   9
  -8  -1   7 2004.36 500.850  21
   8  -1  -7 2991.20 648.668  10
  -8  -1   6 31952.3 2052.22  21
   8  -1  -6 30176.9 2092.61  10
  -8  -1   5 76198.3 3459.84  21
   8  -1  -5 74704.7 3565.30  10
  -8  -1   4 7045.04 962.867  21
   8  -1  -4 5635.71 889.394  10
  -8  -1   3 117630. 4512.10  21
   8  -1  -3 104881. 4562.56  10
   8  -1  -2 24512.6 1925.43  30
  -8  -1   2 23749.8 1782.42  21
   8  -1  -2 26352.4 2000.94  10
   8  -1  -1 14995.0 1503.42  30
  -8  -1   1 15450.1 1409.55  21
   8  -1  -1 17845.6 1656.68  10
   8  -1   0 20212.9 1755.72  30
  -8  -1   0 18342.4 1561.63  21
   8  -1   0 20178.0 1774.70  10
   8  -1   1 3031.26 706.754  30
  -8  -1  -1 2813.14 620.806  21
   8  -1   1 2415.82 638.174  10
   8  -1   2 34205.5 2328.09  30
  -8  -1  -2 38023.2 2288.85  21
   8  -1   3 12641.2 1341.83  30
  -8  -1  -3 12594.2 1234.95  15
  -8  -1  -3 11848.1 1235.00  21
  -8  -1  -4 8357.49 968.831  15
  -8  -1  -4 7451.31 964.999  21
   8  -1   4 8854.19 1091.84  30
   8  -1   5 6003.42 893.922  30
  -8  -1  -5 5481.36 758.838  15
  -8  -1  -5 5701.95 768.215  21
   8  -1   6 2999.61 608.565  30
  -8  -1  -6 2487.37 508.533  16
  -8  -1  -6 3021.86 542.624  15
  -8  -1  -6 3017.50 519.195  21
   8  -1   7 3032.72 501.489  30
  -8  -1  -7 3187.06 506.447  16
  -8  -1  -7 2081.68 412.294  15
  -8  -1  -7 2204.68 415.252  21
   8   0 -12 10987.1 909.543   9
   8   0 -12 10716.5 984.570  22
   8   0 -11 3298.73 581.497   9
   8   0 -11 4392.96 722.054  22
   8   0 -10 15166.9 1323.70   9
   8   0 -10 14648.9 1449.73  22
   8   0  -9 41773.8 2383.75   9
   8   0  -9 41774.5 2619.66  22
   8   0  -9 41428.7 2548.01  19
   8   0  -9 39865.9 2295.26  10
   8   0  -8 915.892 368.517   9
   8   0  -8 1393.24 589.988  22
   8   0  -8 942.722 415.182  10
   8   0  -7 17121.9 1559.01   9
   8   0  -7 16620.5 1511.73  10
  -8   0   6 27087.6 1912.54  21
   8   0  -6 29424.5 2078.06  10
  -8   0   5 59896.6 3038.10  21
   8   0  -5 56623.5 3046.18  10
  -8   0   4 5920.64 929.519  21
   8   0  -4 5997.74 952.556  10
  -8   0   3 43285.6 2530.89  21
   8   0  -3 39291.1 2516.18  10
  -8   0   2 14738.3 1436.34  21
   8   0  -2 13895.6 1455.27  10
  -8   0   1 24632.2 1864.51  21
   8   0  -1 23593.7 1968.70  10
  -8   0   0 710.779 432.112  15
  -8   0   0 972.843 409.166  21
   8   0   0 1005.61 503.976  10
   8   0   1 12369.4 1355.21  30
  -8   0  -1 12099.6 1279.71  15
  -8   0  -1 11994.8 1280.64  21
   8   0   2 386.028 306.046  30
  -8   0  -2 1321.39 503.788  15
  -8   0  -2 1151.74 440.052  21
   8   0   3 9106.48 1132.14  30
  -8   0  -3 7393.75 974.708  15
  -8   0  -3 8143.63 1013.63  21
   8   0   4 24687.4 1893.64  30
  -8   0  -4 20253.6 1549.80  15
  -8   0  -4 21457.1 1594.83  21
   8   0   5 281.802 391.062  30
  -8   0  -5 245.710 299.649  15
  -8   0  -5-19.7136 321.465  21
  -8   0  -6 19101.2 1346.38  15
  -8   0  -6 18918.7 1354.83  21
  -8   0  -6 16374.7 1270.46  16
   8   0   6 21587.6 1573.02  30
  -8   0  -7 152.849 162.559  16
  -8   0  -7 157.322 218.910  15
  -8   0  -7 278.881 228.445  21
  -8   0  -8 3156.86 398.439  15
   8   1 -12 1272.58 307.648   9
   8   1 -12 1077.58 310.269  22
   8   1 -11 28078.3 1702.61   9
   8   1 -11 29398.9 1928.20  22
   8   1 -10 24646.1 1703.58   9
   8   1 -10 27686.5 2007.74  22
   8   1 -10 22085.4 1548.14  10
   8   1  -9 13767.1 1307.88   9
   8   1  -9 14566.9 1523.30  22
   8   1  -9 13390.7 1289.66  10
   8   1  -8 49187.2 2732.57   9
   8   1  -8 51668.2 3122.42  22
   8   1  -8 56568.9 2892.44  10
   8   1  -7 2665.77 695.966  22
   8   1  -7 3401.00 724.685  10
   8   1  -6 28566.5 2275.59  22
   8   1  -6 28075.5 2013.77  10
   8   1  -5 72217.9 3495.41  10
   8   1  -4 4726.81 905.796  10
   8   1  -3 123228. 5031.53  10
  -8   1   2 26107.7 1944.29  21
   8   1  -2 26057.1 2054.96  10
  -8   1   1 21701.9 1762.45  21
   8   1  -1 22438.4 1918.13  10
  -8   1   0 22217.5 1773.46  21
  -8   1   0 23616.5 1780.62  12
  -8   1  -1 4654.51 835.968  15
  -8   1  -1 3296.24 673.847  21
  -8   1  -1 3023.12 664.755  12
  -8   1  -2 36306.2 2281.06  15
  -8   1  -2 35684.6 2240.86  21
  -8   1  -2 40133.3 2307.70  12
  -8   1  -3 11817.7 1204.29  15
  -8   1  -3 9980.62 1093.65  21
   8   1   4 9103.15 1127.36  30
  -8   1  -4 7638.41 917.356  15
  -8   1  -4 7450.18 930.074  21
   8   1   5 7418.82 990.254  30
  -8   1  -5 6333.35 826.135  15
  -8   1  -5 5950.02 787.195  21
   8   1   6 2865.43 582.133  30
  -8   1  -6 2917.61 529.995  15
  -8   1  -6 3047.81 508.425  21
  -8   1  -7 1878.41 374.719  15
  -8   1  -7 1556.15 344.223  21
  -8   1  -8 2055.86 315.835  15
  -8   1  -8 2203.39 330.834  18
   8   2 -11 987.894 296.054   9
   8   2 -11 1002.05 366.618  22
   8   2 -10 4300.95 658.391   9
   8   2 -10 4849.72 781.226  22
   8   2 -10 5174.86 690.548  10
   8   2  -9 9208.40 1024.91   9
   8   2  -9 11729.9 1339.95  22
   8   2  -9 10853.7 1127.78  10
   8   2  -8 2905.83 601.657   9
   8   2  -8 3875.72 845.759  22
   8   2  -8 3671.70 705.702  10
   8   2  -7 37784.4 2680.96  22
   8   2  -7 41157.6 2462.46  10
   8   2  -6 22293.6 2033.90  22
   8   2  -6 19746.4 1683.12  10
   8   2  -5 21508.5 1998.66  22
   8   2  -5 20477.6 1723.79  10
   8   2  -4 82261.6 4257.97  22
   8   2  -4 94452.7 4135.19  10
   8   2  -3 9751.33 1228.90  10
   8   2  -2 73096.5 3671.04  10
  -8   2   1 49970.1 2678.63  12
   8   2  -1 46080.8 2828.33  10
  -8   2   0 22449.7 1722.14  12
  -8   2  -1 51627.6 2709.30  15
  -8   2  -1 49394.8 2661.48  21
  -8   2  -1 53865.9 2744.79  12
  -8   2  -2 2582.11 606.267  15
  -8   2  -2 1883.81 520.049  21
  -8   2  -2 1458.34 478.155  12
  -8   2  -3 18142.6 1460.07  15
  -8   2  -3 18177.3 1451.53  21
  -8   2  -3 17767.3 1401.46  12
  -8   2  -4 14376.1 1232.82  15
  -8   2  -4 14821.2 1247.97  21
   8   2   5 2290.52 541.581  30
  -8   2  -5 2399.12 480.616  15
  -8   2  -5 2264.89 477.788  21
   8   2   6 8038.55 872.108  30
  -8   2  -6 8220.38 797.319  15
  -8   2  -6 7738.50 775.072  21
  -8   2  -7 1089.40 268.189  15
   8   3 -10 4459.67 582.774   9
   8   3 -10 5828.59 770.458  22
   8   3 -10 5919.16 651.768  10
   8   3  -9 1141.91 345.809   9
   8   3  -9 1033.96 444.601  22
   8   3  -9 1650.27 459.429  10
   8   3  -8 34710.4 2303.92  22
   8   3  -8 30781.2 1972.06  10
   8   3  -7 3964.68 819.654  22
  -8   3   7 4039.01 652.409  12
   8   3  -7 5028.18 836.650  10
   8   3  -6 13076.2 1477.85  22
  -8   3   6 16296.1 1411.20  12
   8   3  -6 14365.7 1360.24  10
   8   3  -5 32576.7 2457.97  22
  -8   3   5 37988.3 2284.30  12
   8   3  -5 34746.4 2250.20  10
   8   3  -4 2956.45 744.291  22
  -8   3   4 2980.74 678.721  12
   8   3  -4 1854.54 566.290  10
   8   3  -3 38801.7 2717.23  22
  -8   3   3 47534.7 2583.39  12
   8   3  -3 43477.3 2607.13  10
   8   3  -2 8686.48 1244.67  22
  -8   3   2 11025.8 1197.75  12
   8   3  -2 9174.40 1152.56  10
  -8   3   1 11366.3 1182.34  12
  -8   3   0 32085.2 2011.08  12
  -8   3  -1 1073.40 364.874  12
  -8   3  -2 16520.6 1331.24  15
  -8   3  -2 17481.4 1360.22  12
  -8   3  -3 7434.56 865.584  15
  -8   3  -3 6359.99 782.243  12
  -8   3  -4 7765.26 819.949  15
  -8   3  -4 6587.46 724.906  21
  -8   3  -4 7709.00 807.562  12
   8   3   5 6673.09 825.928  30
  -8   3  -5 6133.90 694.097  15
  -8   3  -6 1943.78 355.932  15
  -8   3  -6 1758.46 345.697  18
   8   4  -9 8922.99 866.891  22
   8   4  -9 8639.28 779.591  10
   8   4  -8 2321.65 509.403  22
   8   4  -8 1198.79 371.213  10
   8   4  -7 10464.7 1158.17  22
   8   4  -7 11081.6 1063.93  10
   8   4  -6 17234.6 1549.63  22
   8   4  -6 14530.5 1270.76  10
   8   4  -5 6596.21 974.111  23
   8   4  -5 6545.63 986.182  22
  -8   4   5 5850.97 770.149  12
   8   4  -5 5552.57 793.404  10
   8   4  -4 23052.9 1813.79  23
   8   4  -4 24099.2 1935.93  22
  -8   4   4 25853.7 1711.27  12
   8   4  -4 22965.1 1686.25  10
   8   4  -3 6487.97 950.779  23
   8   4  -3 7427.13 1066.70  22
  -8   4   3 7374.00 910.849  12
   8   4  -3 6578.27 912.571  10
   8   4  -2 26815.6 2028.33  22
  -8   4   2 27994.2 1784.20  12
   8   4  -2 24629.7 1737.59  10
   8   4  -1 12356.4 1320.67  22
  -8   4   1 14058.5 1233.28  12
   8   4   0 6833.54 952.620  22
  -8   4   0 7270.38 872.641  12
  -8   4  -1 19254.0 1376.36  12
  -8   4  -2 2996.00 556.425  12
  -8   4  -3 17909.9 1228.05  12
  -8   4  -4 3309.66 461.469  12
   8   5  -7 1610.21 365.331  22
   8   5  -7 1772.96 354.435  10
   8   5  -6 9382.17 928.830  22
   8   5  -6 8404.01 785.181  10
   8   5  -5 9918.27 1013.27  22
   8   5  -5 8863.45 844.867  10
   8   5  -4-21.3349 232.588  22
   8   5  -4 428.372 293.033  10
  -8   5   3 8042.95 780.488  12
   8   5  -3 7437.20 757.252  10
   8   5  -2 3642.37 643.601  22
  -8   5   2 3134.06 504.940  12
   8   5  -1 1697.24 446.476  22
  -8   5   1 1893.10 408.057  12
   8   5   0 7556.04 858.291  22
  -8   5   0 9397.95 846.628  12
   8   5   1 3536.53 543.790  22
  -8   5  -1 3826.80 527.665  12
  -8   5  -2 3942.88 498.343  12
  -8   5  -3 5202.79 522.492  12
  -9  -4   7 4059.58 476.834  21
  -9  -4   6 9032.96 778.947  21
   9  -4  -6 8233.60 792.133  19
  -9  -4   5 2453.18 427.599  21
   9  -4  -5 2293.65 459.847  19
  -9  -4   4 12869.6 1007.68  21
  -9  -4   3 2078.34 430.463  21
  -9  -4   2 11677.9 948.932  21
  -9  -4   1 11458.3 911.785  21
   9  -4   0 4461.60 600.615  30
  -9  -4   0 3565.12 474.190  21
   9  -4   1 12108.9 982.691  30
   9  -4   2 3274.04 491.758  30
  -9  -3   9 688.785 223.438  21
   9  -3  -9 991.926 322.198  19
  -9  -3   8 17006.4 1124.91  21
   9  -3  -8 16049.0 1271.16  19
  -9  -3   7 13573.5 1064.25  21
   9  -3  -7 13739.9 1235.31  19
  -9  -3   6 8771.56 867.841  21
   9  -3  -6 9187.25 1061.58  19
  -9  -3   5 17072.8 1261.69  21
   9  -3  -5 14994.5 1359.20  19
  -9  -3   4 714.324 331.427  21
  -9  -3   3 16161.3 1271.75  21
  -9  -3   2 2843.50 557.239  21
   9  -3  -1 6210.63 830.285  30
  -9  -3   1 8611.01 923.014  21
  -9  -3   0 16536.6 1259.71  21
   9  -3   0 14754.7 1284.15  30
   9  -3   1 1827.21 455.276  30
  -9  -3  -1 1118.21 326.260  21
  -9  -3  -2 5776.84 664.483  21
   9  -3   2 8020.55 899.115  30
   9  -3   3 4446.43 634.484  30
  -9  -3  -3 3163.28 468.686  15
  -9  -3  -3 3104.72 426.211  21
   9  -3   4 1012.30 319.744  30
  -9  -3  -4 1073.00 269.178  16
  -9  -3  -4 1469.14 297.016  15
  -9  -2   9 16932.0 1113.26  21
   9  -2  -9 16941.8 1349.40  19
   9  -2  -9 14078.6 1019.00   9
  -9  -2   8 3734.59 572.639  21
   9  -2  -8 2937.14 582.543  19
  -9  -2   7 25379.8 1582.64  21
   9  -2  -7 22818.5 1802.35  19
   9  -2  -7 24213.3 1606.23  10
  -9  -2   6 31735.5 1853.70  21
   9  -2  -6 31284.6 1928.02  10
  -9  -2   5 10110.1 1023.43  21
   9  -2  -5 10044.8 1119.87  10
  -9  -2   4 37868.8 2112.70  21
   9  -2  -4 39245.4 2283.51  10
  -9  -2   3 7430.63 941.217  21
   9  -2  -3 5457.42 836.979  10
  -9  -2   2 49935.0 2506.49  21
   9  -2  -2 48743.7 2669.60  10
  -9  -2   1 25540.9 1698.51  21
   9  -2  -1 23458.5 1733.73  30
  -9  -2   0 9529.14 1019.36  21
   9  -2   0 11495.4 1200.18  30
  -9  -2  -1 30034.9 1824.77  21
   9  -2   1 28741.0 1902.72  30
   9  -2   2 1008.78 393.115  30
  -9  -2  -2 1242.08 330.984  15
  -9  -2  -2 877.742 348.002  21
  -9  -2  -3 6666.74 763.482  15
  -9  -2  -3 6680.77 759.389  21
   9  -2   4 2795.48 534.988  30
  -9  -2  -4 2871.56 464.018  15
  -9  -2  -4 1681.60 363.620  21
   9  -2   5 699.077 277.263  30
  -9  -2  -5 480.979 234.614  16
  -9  -2  -5 318.545 182.564  15
  -9  -2  -5-63.3422 158.981  21
   9  -1 -10 4659.63 552.188   9
   9  -1 -10 4488.53 610.818  19
   9  -1  -9 2236.44 442.886   9
   9  -1  -9 2509.75 555.182  19
   9  -1  -9 1196.75 320.386  10
  -9  -1   8 24210.3 1501.84  21
   9  -1  -8 24630.2 1852.21  19
   9  -1  -8 22176.2 1539.45  10
  -9  -1   7 9802.02 982.365  21
   9  -1  -7 9106.84 1003.34  10
  -9  -1   6 10299.7 1047.63  21
   9  -1  -6 8862.68 1013.64  10
  -9  -1   5 23619.2 1642.56  21
   9  -1  -5 22191.2 1652.35  10
  -9  -1   4 4388.90 714.861  21
   9  -1  -4 4017.39 735.658  10
  -9  -1   3 76076.5 3341.40  21
   9  -1  -3 75238.7 3482.14  10
  -9  -1   2 26266.0 1789.69  21
   9  -1  -2 26806.7 1938.29  10
   9  -1  -2 22261.9 1745.13  30
  -9  -1   1 31334.7 1973.38  21
   9  -1  -1 30733.0 2090.99  10
   9  -1  -1 29741.3 2013.09  30
  -9  -1   0 52486.3 2596.64  15
  -9  -1   0 55006.1 2675.46  21
   9  -1   0 52640.9 2824.37  10
   9  -1   0 51777.7 2757.93  30
   9  -1   1 6212.38 892.613  30
  -9  -1  -1 6978.93 858.241  15
  -9  -1  -1 5585.13 754.057  21
  -9  -1  -2 17308.1 1334.35  15
  -9  -1  -2 15255.3 1252.80  21
   9  -1   2 16344.6 1405.82  30
  -9  -1  -3 8085.61 873.598  15
  -9  -1  -3 8326.17 896.651  21
   9  -1   3 9088.51 1034.47  30
   9  -1   4 5698.35 779.145  30
  -9  -1  -4 5691.37 684.127  15
  -9  -1  -4 5860.25 697.159  21
   9  -1   5 4804.46 659.691  30
  -9  -1  -5 4470.42 556.025  16
  -9  -1  -5 5686.52 612.539  15
  -9  -1  -5 4619.34 565.396  21
  -9  -1  -6 883.182 218.085  15
   9   0 -10 10415.9 850.138   9
   9   0  -9 23023.3 1423.69   9
   9   0  -9 23702.2 1607.81  19
   9   0  -9 24144.2 1513.90  10
   9   0  -8 2399.10 571.006  10
   9   0  -7 37888.8 2174.28  10
  -9   0   6 59391.6 2751.64  21
   9   0  -6 58552.1 2880.85  10
  -9   0   5 10285.9 1075.43  21
   9   0  -5 8867.29 1069.22  10
  -9   0   4 50190.8 2620.08  21
   9   0  -4 52941.4 2802.01  10
  -9   0   3 1033.53 442.520  21
   9   0  -3-101.010 293.368  10
   9   0  -2 33345.3 2167.26  30
  -9   0   2 37428.7 2213.42  21
   9   0  -2 36251.2 2338.44  10
   9   0  -1 80454.3 3652.73  30
  -9   0   1 82525.6 3564.54  21
   9   0  -1 85394.1 3827.70  10
   9   0   0 331.541 311.672  30
  -9   0   0 453.276 317.191  15
  -9   0   0 457.640 367.011  21
  -9   0   0 866.166 395.392  12
   9   0   0 791.060 413.061  10
   9   0   1 58574.0 2906.22  30
  -9   0  -1 50410.6 2560.68  15
  -9   0  -1 52713.2 2615.54  21
   9   0   2 7244.64 957.462  30
  -9   0  -2 6338.84 822.603  15
  -9   0  -2 7053.84 854.289  21
   9   0   3 6385.52 887.645  30
  -9   0  -3 6883.87 812.167  15
  -9   0  -3 6322.50 796.159  21
  -9   0  -4 6919.70 767.846  15
  -9   0  -4 7106.22 767.438  21
  -9   0  -4 6576.93 730.106  16
   9   0   4 8925.25 981.913  30
   9   0   5-12.4422 235.131  30
  -9   0  -5-68.9796 170.564  16
  -9   0  -5 166.701 181.164  15
  -9   0  -5 193.529 202.214  21
  -9   0  -6 4647.97 499.563  15
  -9   0  -6 4751.28 499.590  21
   9   1 -10 4662.70 634.503  22
   9   1  -9 1623.77 436.501  22
   9   1  -9 2031.65 468.997  10
   9   1  -8 19463.7 1544.10  22
   9   1  -8 19657.9 1464.06  10
   9   1  -7 9482.82 1033.39  10
   9   1  -6 11722.0 1210.48  10
   9   1  -5 20599.3 1632.33  10
   9   1  -4 3770.74 718.460  10
   9   1  -3 75867.2 3547.12  10
  -9   1   2 20769.9 1580.81  21
   9   1  -2 22882.1 1795.57  10
  -9   1   1 28705.4 1890.03  21
  -9   1   1 31327.7 1965.63  12
   9   1  -1 32454.9 2141.88  10
  -9   1   0 52441.8 2608.41  21
  -9   1   0 50301.6 2528.87  12
   9   1   1 6253.02 882.752  30
  -9   1  -1 5995.59 779.097  15
  -9   1  -1 6840.15 820.305  12
  -9   1  -1 6218.34 812.350  21
   9   1   2 15895.0 1431.15  30
  -9   1  -2 17033.5 1306.22  15
  -9   1  -2 13760.8 1214.59  21
   9   1   3 7703.86 945.488  30
  -9   1  -3 7281.88 820.232  15
  -9   1  -3 7854.26 845.478  21
   9   1   4 6590.98 843.994  30
  -9   1  -4 5453.45 658.518  15
  -9   1  -4 4963.46 634.995  21
   9   1   5 4250.06 607.697  30
  -9   1  -5 4150.11 518.172  15
  -9   1  -5 4358.56 536.725  21
  -9   1  -6 177.360 119.580  15
  -9   1  -6 289.507 137.044  21
   9   2  -9 13620.5 1186.45  22
   9   2  -9 15608.4 1145.69  10
   9   2  -8 3420.66 657.438  22
  -9   2   8 3243.11 524.847  12
   9   2  -8 2795.54 559.891  10
   9   2  -7 20048.9 1637.04  22
   9   2  -7 23572.2 1626.01  10
   9   2  -6 23677.5 1810.58  22
   9   2  -6 28509.5 1836.17  10
   9   2  -5 11176.8 1175.18  10
  -9   2   4 42284.2 2296.61  12
   9   2  -4 38126.1 2294.76  10
  -9   2   3 5232.96 798.772  12
   9   2  -3 5407.21 839.482  10
  -9   2   2 44572.3 2369.69  12
   9   2  -2 43320.7 2468.61  10
  -9   2   1 24546.1 1663.28  12
  -9   2   0 8890.62 961.271  12
  -9   2  -1 22497.9 1481.54  21
  -9   2  -1 24864.6 1575.17  12
  -9   2  -2 223.579 176.264  15
  -9   2  -2 821.140 320.293  21
  -9   2  -2 527.851 272.153  12
   9   2   3 6829.08 842.674  30
  -9   2  -3 6015.02 682.939  15
  -9   2  -3 5316.43 638.168  21
   9   2   4 2661.92 508.136  30
  -9   2  -4 2276.31 394.643  15
  -9   2  -4 1902.65 363.691  21
   9   2   5 215.195 177.971  30
  -9   2  -5 555.679 215.513  15
   9   3  -8 13577.4 1151.02  22
   9   3  -8 14745.1 1095.40  10
   9   3  -7 10568.5 1061.93  22
  -9   3   7 9715.22 839.876  12
   9   3  -7 10869.5 1008.31  10
   9   3  -6 8571.99 1013.92  22
  -9   3   6 8629.33 869.036  12
   9   3  -6 8935.75 947.056  10
   9   3  -5 14237.8 1340.68  22
  -9   3   5 17338.0 1308.44  12
   9   3  -5 15735.9 1310.84  10
   9   3  -4 458.485 317.535  22
  -9   3   4 303.628 230.007  12
   9   3  -4 666.882 302.627  10
  -9   3   3 14711.6 1222.88  12
   9   3  -3 12631.4 1184.76  10
  -9   3   2 4216.44 658.260  12
   9   3  -2 4039.40 665.112  10
  -9   3   1 7068.07 830.231  12
  -9   3   0 15934.6 1217.32  12
  -9   3  -1 1098.90 329.950  12
  -9   3  -2 7260.38 723.263  12
   9   3   3 4954.73 656.769  30
  -9   3  -3 2823.00 403.786  12
   9   3   4 1374.29 317.746  30
   9   4  -7 4599.76 580.832  22
   9   4  -7 4439.67 521.632  10
   9   4  -6 7486.39 798.656  22
   9   4  -6 8480.63 780.817  10
   9   4  -5 2602.38 513.109  22
  -9   4   5 1666.13 351.443  12
   9   4  -5 1855.49 408.429  10
   9   4  -4 12537.8 1086.71  22
  -9   4   4 13632.1 1017.15  12
   9   4  -4 10840.0 932.098  10
   9   4  -3 1791.85 471.049  22
  -9   4   3 2019.75 399.775  12
   9   4  -3 1380.23 340.600  10
  -9   4   2 12773.4 1016.50  12
  -9   4   1 12451.9 975.293  12
  -9   4   0 4563.07 577.032  12
  -9   4  -1 11660.3 878.902  12
  -9   4  -2 3304.19 422.450  12
 -10  -3   6 5109.18 522.491  21
 -10  -3   5 22811.4 1227.05  21
 -10  -3   4 3555.90 479.439  21
  10  -3  -4 1824.59 354.126  19
 -10  -3   3 10954.7 849.226  21
 -10  -3   2 17285.8 1081.35  21
 -10  -3   1 1895.21 344.113  21
 -10  -3   0 7119.22 607.071  21
 -10  -2   7 12851.7 879.950  21
  10  -2  -7 12910.2 1061.18  19
 -10  -2   6 13331.4 963.545  21
  10  -2  -6 13442.1 1136.42  19
 -10  -2   5 2447.89 463.720  21
 -10  -2   4 30533.5 1643.22  21
 -10  -2   3 7881.08 805.695  21
 -10  -2   2 6295.69 709.793  21
  10  -2  -1 4989.13 626.020  30
 -10  -2   1 5166.95 624.792  21
  10  -2   0 480.472 258.768  30
 -10  -2   0 446.635 193.332  15
 -10  -2   0 532.030 281.945  21
 -10  -2  -1 6277.15 613.309  15
 -10  -2  -1 7264.93 687.487  21
  10  -2   1 7205.47 741.803  30
  10  -2   2 1524.10 334.705  30
 -10  -2  -2 1140.67 239.679  15
 -10  -2  -2 1742.97 307.024  21
  10  -1  -8 7910.36 807.012  19
 -10  -1   7 2293.98 388.519  21
  10  -1  -7 4026.30 649.353  19
  10  -1  -7 3274.29 509.647  10
 -10  -1   6 4951.54 606.526  21
  10  -1  -6 5185.79 672.616  10
 -10  -1   5 21271.6 1351.68  21
  10  -1  -5 22696.8 1488.48  10
 -10  -1   4 3752.53 563.285  21
  10  -1  -4 4118.19 667.159  10
 -10  -1   3 9053.43 902.124  21
  10  -1  -3 9155.10 962.550  10
 -10  -1   2 23255.1 1468.33  21
  10  -1  -1 2605.29 506.373  30
 -10  -1   1 2590.98 487.111  21
 -10  -1   0 9704.33 889.622  21
  10  -1   0 10543.0 985.693  30
  10  -1   1 2348.84 484.355  30
 -10  -1  -1 1564.25 339.420  15
 -10  -1  -1 1671.33 389.520  21
  10  -1   2 3716.37 559.821  30
 -10  -1  -2 2796.01 411.774  15
 -10  -1  -2 2803.43 439.598  21
 -10  -1  -3 5312.98 510.922  15
 -10  -1  -3 4284.25 481.770  21
 -10  -1  -3 4517.05 481.129  16
  10  -1   3 5331.17 612.449  30
  10   0  -8 245.598 129.747  19
  10   0  -8 501.591 204.749  10
  10   0  -7 22255.6 1394.48  10
  10   0  -6 10509.8 982.882  10
 -10   0   5 961.123 294.896  21
  10   0  -5 1221.97 416.615  10
 -10   0   4 46264.2 2186.93  21
  10   0  -4 52795.4 2489.88  10
 -10   0   3 319.619 306.747  21
 -10   0   3 906.176 332.093  12
  10   0  -3 598.456 298.282  10
  10   0  -2 1131.35 360.159  30
 -10   0   2 432.036 221.728  21
 -10   0   2 1005.01 361.733  12
  10   0  -2 536.475 299.651  10
 -10   0   1 14147.7 1107.42  21
 -10   0   1 11644.0 959.507  12
  10   0  -1 14085.9 1163.93  10
  10   0  -1 11815.3 1093.78  30
  10   0   0 119.620 230.148  30
 -10   0   0 530.717 238.781  21
 -10   0  -1 11696.1 945.424  21
  10   0   1 12179.3 1073.27  30
 -10   0  -2 6872.64 640.718  15
 -10   0  -2 7703.79 725.595  21
  10   0   2 8010.44 833.785  30
  10   0   3 1645.70 382.967  30
 -10   0  -3 1546.39 283.611  15
 -10   0  -3 1728.02 334.298  21
 -10   1   8 7773.13 675.054  12
  10   1  -8 7654.75 713.667  10
 -10   1   7 3596.11 510.038  12
  10   1  -7 3932.41 570.888  10
  10   1  -6 6093.57 735.926  10
 -10   1   5 24833.5 1494.40  12
  10   1  -5 22130.6 1485.66  10
 -10   1   4 4348.32 642.646  12
  10   1  -4 4616.04 677.601  10
 -10   1   3 10499.6 974.681  12
  10   1  -3 12045.3 1099.59  10
  10   1  -2 21590.6 1451.88  30
 -10   1   2 23910.8 1455.15  12
  10   1  -2 21665.9 1486.70  10
  10   1  -1 1952.42 436.556  30
 -10   1   1 2587.93 455.045  21
 -10   1   1 2453.51 442.625  12
  10   1   0 10749.7 1002.02  30
 -10   1   0 9328.57 829.682  21
 -10   1   0 8451.90 768.841  12
  10   1   1 1817.85 429.397  30
 -10   1  -1 1283.27 304.222  21
  10   1   2 3443.65 541.149  30
 -10   1  -2 2229.17 363.385  21
 -10   1  -3 4032.96 442.070  21
  10   1   3 4775.37 578.687  30
 -10   2   7 12542.5 867.256  12
  10   2  -7 13195.4 952.768  10
 -10   2   6 13507.7 995.672  12
  10   2  -6 15563.9 1109.15  10
 -10   2   5 2502.82 460.299  12
  10   2  -5 2486.01 478.371  10
 -10   2   4 35822.0 1776.59  12
  10   2  -4 31265.9 1742.22  10
 -10   2   3 8757.09 836.505  12
  10   2  -3 7881.95 816.447  10
  10   2  -2 4781.11 644.455  30
 -10   2   2 5998.87 681.408  12
  10   2  -1 5913.37 717.646  30
 -10   2   1 7002.30 715.436  12
  10   2   0 687.588 259.617  30
 -10   2   0 225.172 149.154  12
  10   2   1 7968.33 790.173  30
 -10   2  -1 5262.58 517.721  12
  10   2   2 1600.19 321.719  30
 -10   3   5 21343.6 1134.33  12
  10   3  -5 19835.9 1147.11  10
 -10   3   4 3796.27 482.610  12
  10   3  -4 3218.08 443.895  10
 -10   3   3 11799.6 874.880  12
  10   3  -2 13661.2 957.275  30
 -10   3   2 18351.3 1085.32  12
  10   3  -1 2901.83 441.534  30
 -10   3   1 2617.64 391.561  12
  10   3   0 7859.25 707.278  30
 -10   3   0 6889.35 586.633  12
   0   0   0    0.00    0.00   0
TITL fxm-zpf-stan in P2(1)
REM P2(1) (#4 in standard setting)
CELL 1.54184   8.897282   6.947660  12.282195  90.0000 100.5600  90.0000
ZERR    3.00   0.000331   0.000266   0.000546   0.0000   0.0038   0.0000
LATT -1
SYMM -x, y+1/2,-z
SFAC C H N O
UNIT 33.00 30.00 3.00 3.00
TREF
HKLF 4
END
;
_shelx_hkl_checksum              3402
_shelx_shelxl_version_number     2014/7
_olex2_date_sample_data_collection 2015-12-24
_olex2_submission_special_instructions 'No special instructions were received'
loop_
_space_group_symop_operation_xyz
'x, y, z'
'-x, y+1/2, -z'
loop_
_atom_site_label
_atom_site_type_symbol
_atom_site_fract_x
_atom_site_fract_y
_atom_site_fract_z
_atom_site_U_iso_or_equiv
_atom_site_adp_type
_atom_site_occupancy
_atom_site_site_symmetry_order
_atom_site_calc_flag
_atom_site_refinement_flags_posn
Br1 Br 0.47662(9) 0.37409(9) 0.19617(8) 0.0709(4) Uani 1 1 d .
O1 O 0.7190(8) -0.1265(11) 0.2337(5) 0.0704(17) Uani 1 1 d .
C0AA C 0.2436(10) -0.144(2) 0.3651(7) 0.069(2) Uani 1 1 d .
H0AA H 0.2171 -0.2338 0.3085 0.082 Uiso 1 1 calc R
C1AA C 0.3577(9) -0.0032(11) 0.3575(6) 0.0460(15) Uani 1 1 d .
C9 C 0.6665(10) 0.0447(11) 0.1766(6) 0.0496(17) Uani 1 1 d .
H9 H 0.6044 0.0114 0.1046 0.060 Uiso 1 1 calc R
C12 C 0.4287(9) -0.0040(14) 0.2581(6) 0.0554(19) Uani 1 1 d .
C13 C 0.5638(8) 0.1275(12) 0.2509(6) 0.0444(14) Uani 1 1 d .
H13 H 0.6240 0.1455 0.3254 0.053 Uiso 1 1 calc R
C16 C 0.3953(11) 0.1267(15) 0.4434(7) 0.0589(19) Uani 1 1 d .
H16 H 0.4706 0.2190 0.4418 0.071 Uiso 1 1 calc R
C17 C 0.7956(9) 0.1714(10) 0.1589(5) 0.0418(14) Uani 1 1 d .
C19 C 0.1744(12) -0.149(2) 0.4532(10) 0.087(3) Uani 1 1 d .
H19 H 0.1013 -0.2424 0.4583 0.104 Uiso 1 1 calc R
C25 C 0.2121(13) -0.013(2) 0.5370(9) 0.084(3) Uani 1 1 d .
H25 H 0.1618 -0.0144 0.5971 0.101 Uiso 1 1 calc R
C28 C 0.3185(13) 0.1169(19) 0.5321(8) 0.072(3) Uani 1 1 d .
H28 H 0.3429 0.2049 0.5897 0.087 Uiso 1 1 calc R
O0AA O 0.3814(10) -0.1096(18) 0.1805(6) 0.105(3) Uani 1 1 d .
C2 C 0.9120(10) 0.3721(17) 0.0384(7) 0.0623(19) Uani 1 1 d .
H2 H 0.9088 0.4304 -0.0301 0.075 Uiso 1 1 calc R
C5 C 1.0384(9) 0.3968(17) 0.1222(9) 0.069(2) Uani 1 1 d .
H5 H 1.1199 0.4724 0.1099 0.083 Uiso 1 1 calc R
C6 C 0.7921(9) 0.2612(12) 0.0574(6) 0.0484(16) Uani 1 1 d .
H6 H 0.7071 0.2459 0.0015 0.058 Uiso 1 1 calc R
C7 C 0.9235(10) 0.1960(13) 0.2413(7) 0.0555(19) Uani 1 1 d .
H7 H 0.9282 0.1350 0.3092 0.067 Uiso 1 1 calc R
C8 C 1.0430(9) 0.3094(14) 0.2237(9) 0.066(2) Uani 1 1 d .
H8 H 1.1271 0.3274 0.2801 0.079 Uiso 1 1 calc R
C3 C 0.782(2) -0.2582(15) 0.1630(13) 0.098(5) Uani 1 1 d .
H3A H 0.7164 -0.2628 0.0916 0.147 Uiso 1 1 calc GR
H3B H 0.7893 -0.3843 0.1954 0.147 Uiso 1 1 calc GR
H3C H 0.8818 -0.2152 0.1548 0.147 Uiso 1 1 calc GR
loop_
_atom_site_aniso_label
_atom_site_aniso_U_11
_atom_site_aniso_U_22
_atom_site_aniso_U_33
_atom_site_aniso_U_23
_atom_site_aniso_U_13
_atom_site_aniso_U_12
Br1 0.0544(5) 0.0715(6) 0.0923(7) 0.0235(5) 0.0285(4) 0.0196(5)
O1 0.107(4) 0.041(2) 0.081(3) 0.013(4) 0.063(3) 0.019(4)
C0AA 0.062(5) 0.074(6) 0.070(4) 0.004(5) 0.014(3) -0.023(6)
C1AA 0.048(4) 0.049(4) 0.042(3) 0.007(3) 0.010(3) -0.005(3)
C9 0.072(5) 0.044(4) 0.040(3) 0.000(3) 0.026(3) 0.000(4)
C12 0.051(4) 0.074(5) 0.044(3) -0.010(4) 0.014(3) -0.014(4)
C13 0.042(3) 0.051(4) 0.043(3) 0.002(3) 0.015(3) -0.002(3)
C16 0.060(5) 0.064(5) 0.059(4) -0.007(4) 0.026(4) -0.007(4)
C17 0.050(4) 0.037(3) 0.043(3) 0.001(2) 0.022(3) 0.012(3)
C19 0.067(5) 0.102(9) 0.095(7) 0.031(8) 0.028(5) -0.016(7)
C25 0.076(6) 0.118(10) 0.067(5) 0.032(6) 0.035(5) 0.007(6)
C28 0.078(6) 0.090(7) 0.056(4) 0.000(5) 0.032(4) 0.006(5)
O0AA 0.117(6) 0.139(8) 0.065(3) -0.053(5) 0.030(4) -0.074(7)
C2 0.072(4) 0.058(4) 0.068(4) 0.021(5) 0.043(4) 0.010(5)
C5 0.049(4) 0.067(6) 0.100(6) 0.012(5) 0.036(4) 0.005(5)
C6 0.058(4) 0.045(4) 0.047(4) 0.007(3) 0.021(3) 0.012(3)
C7 0.060(4) 0.058(5) 0.051(4) 0.017(3) 0.016(3) 0.023(4)
C8 0.039(4) 0.073(6) 0.085(6) 0.009(4) 0.010(4) 0.013(4)
C3 0.150(12) 0.043(5) 0.131(10) 0.005(5) 0.104(10) 0.013(6)
loop_
_atom_type_symbol
_atom_type_description
_atom_type_scat_dispersion_real
_atom_type_scat_dispersion_imag
_atom_type_scat_source
C C 0.0181 0.0091 'International Tables Vol C Tables 4.2.6.8 and 6.1.1.4'
H H 0.0000 0.0000 'International Tables Vol C Tables 4.2.6.8 and 6.1.1.4'
Br Br -0.6763 1.2805 'International Tables Vol C Tables 4.2.6.8 and 6.1.1.4'
O O 0.0492 0.0322 'International Tables Vol C Tables 4.2.6.8 and 6.1.1.4'
loop_
_geom_angle_atom_site_label_1
_geom_angle_atom_site_label_2
_geom_angle_atom_site_label_3
_geom_angle
C9 O1 C3 111.3(7)
C1AA C0AA H0AA 119.8
C19 C0AA H0AA 119.8
C19 C0AA C1AA 120.4(11)
C0AA C1AA C12 118.0(7)
C16 C1AA C0AA 118.4(8)
C16 C1AA C12 123.6(7)
O1 C9 H9 109.2
O1 C9 C13 101.5(5)
O1 C9 C17 112.0(7)
C13 C9 H9 109.2
C17 C9 H9 109.2
C17 C9 C13 115.3(6)
C1AA C12 C13 120.5(6)
O0AA C12 C1AA 120.8(8)
O0AA C12 C13 118.7(7)
Br1 C13 H13 108.9
C9 C13 Br1 111.8(5)
C9 C13 C12 112.0(7)
C9 C13 H13 108.9
C12 C13 Br1 106.2(5)
C12 C13 H13 108.9
C1AA C16 H16 120.6
C1AA C16 C28 118.7(9)
C28 C16 H16 120.6
C6 C17 C9 120.2(7)
C7 C17 C9 121.1(7)
C7 C17 C6 118.6(8)
C0AA C19 H19 120.1
C0AA C19 C25 119.9(11)
C25 C19 H19 120.1
C19 C25 H25 119.7
C28 C25 C19 120.6(9)
C28 C25 H25 119.7
C16 C28 H28 119.0
C25 C28 C16 122.0(11)
C25 C28 H28 119.0
C5 C2 H2 120.2
C6 C2 H2 120.2
C6 C2 C5 119.6(7)
C2 C5 H5 120.0
C8 C5 C2 120.1(8)
C8 C5 H5 120.0
C17 C6 H6 119.5
C2 C6 C17 121.0(8)
C2 C6 H6 119.5
C17 C7 H7 119.6
C8 C7 C17 120.8(7)
C8 C7 H7 119.6
C5 C8 H8 120.0
C7 C8 C5 119.9(8)
C7 C8 H8 120.0
O1 C3 H3A 109.5
O1 C3 H3B 109.5
O1 C3 H3C 109.5
H3A C3 H3B 109.5
H3A C3 H3C 109.5
H3B C3 H3C 109.5
loop_
_geom_bond_atom_site_label_1
_geom_bond_atom_site_label_2
_geom_bond_distance
Br1 C13 1.949(8)
O1 C9 1.416(10)
O1 C3 1.444(11)
C0AA H0AA 0.9300
C0AA C1AA 1.426(12)
C0AA C19 1.340(14)
C1AA C12 1.475(10)
C1AA C16 1.382(12)
C9 H9 0.9800
C9 C13 1.518(10)
C9 C17 1.494(11)
C12 C13 1.525(11)
C12 O0AA 1.214(11)
C13 H13 0.9800
C16 H16 0.9300
C16 C28 1.391(12)
C17 C6 1.389(10)
C17 C7 1.388(12)
C19 H19 0.9300
C19 C25 1.39(2)
C25 H25 0.9300
C25 C28 1.319(18)
C28 H28 0.9300
C2 H2 0.9300
C2 C5 1.388(14)
C2 C6 1.370(13)
C5 H5 0.9300
C5 C8 1.380(14)
C6 H6 0.9300
C7 H7 0.9300
C7 C8 1.372(14)
C8 H8 0.9300
C3 H3A 0.9600
C3 H3B 0.9600
C3 H3C 0.9600
loop_
_geom_torsion_atom_site_label_1
_geom_torsion_atom_site_label_2
_geom_torsion_atom_site_label_3
_geom_torsion_atom_site_label_4
_geom_torsion
O1 C9 C13 Br1 178.2(5)
O1 C9 C13 C12 -62.8(8)
O1 C9 C17 C6 136.9(7)
O1 C9 C17 C7 -40.6(9)
C0AA C1AA C12 C13 -172.9(8)
C0AA C1AA C12 O0AA 6.8(15)
C0AA C1AA C16 C28 -1.3(14)
C0AA C19 C25 C28 -1.8(19)
C1AA C0AA C19 C25 1.0(19)
C1AA C12 C13 Br1 -85.7(8)
C1AA C12 C13 C9 152.1(7)
C1AA C16 C28 C25 0.6(17)
C9 C17 C6 C2 -177.6(8)
C9 C17 C7 C8 178.6(8)
C12 C1AA C16 C28 178.5(9)
C13 C9 C17 C6 -107.7(8)
C13 C9 C17 C7 74.8(9)
C16 C1AA C12 C13 7.3(13)
C16 C1AA C12 O0AA -173.0(11)
C17 C9 C13 Br1 56.9(8)
C17 C9 C13 C12 175.9(6)
C17 C7 C8 C5 -1.5(14)
C19 C0AA C1AA C12 -179.3(10)
C19 C0AA C1AA C16 0.5(16)
C19 C25 C28 C16 1.0(19)
O0AA C12 C13 Br1 94.6(11)
O0AA C12 C13 C9 -27.6(13)
C2 C5 C8 C7 0.8(15)
C5 C2 C6 C17 -0.7(14)
C6 C17 C7 C8 1.1(12)
C6 C2 C5 C8 0.3(16)
C7 C17 C6 C2 0.0(12)
C3 O1 C9 C13 162.8(10)
C3 O1 C9 C17 -73.7(11)
