#------------------------------------------------------------------------------
#$Date: 2016-07-22 00:56:06 +0300 (Fri, 22 Jul 2016) $
#$Revision: 184585 $
#$URL: file:///home/coder/svn-repositories/cod/cif/4/51/39/4513914.cif $
#------------------------------------------------------------------------------
#
# This file is available in the Crystallography Open Database (COD),
# http://www.crystallography.net/
#
# All data on this site have been placed in the public domain by the
# contributors.
#
data_4513914
loop_
_publ_author_name
'Myers, Stephanie M.'
'Bawn, Ruth H.'
'Bisset, Louise C.'
'Blackburn, Timothy J.'
'Cottyn, Betty'
'Molyneux, Lauren'
'Wong, Ai-Ching'
'Cano, Celine'
'Clegg, William'
'Harrington, Ross W.'
'Leung, Hing'
'Rigoreau, Laurent'
'Vidot, Sandrine'
'Golding, Bernard T.'
'Griffin, Roger J.'
'Hammonds, Tim'
'Newell, David R.'
'Hardcastle, Ian R.'
_publ_section_title
;
 High-Throughput Screening and Hit Validation of Extracellular-Related
 Kinase 5 (ERK5) Inhibitors.
;
_journal_name_full               'ACS combinatorial science'
_journal_paper_doi               10.1021/acscombsci.5b00155
_journal_year                    2016
_chemical_formula_moiety         'C11 H13 N3 O2 S2'
_chemical_formula_sum            'C11 H13 N3 O2 S2'
_chemical_formula_weight         283.36
_chemical_name_systematic
;
 ?
;
_space_group_crystal_system      triclinic
_space_group_IT_number           2
_space_group_name_Hall           '-P 1'
_space_group_name_H-M_alt        'P -1'
_symmetry_space_group_name_Hall  '-P 1'
_symmetry_space_group_name_H-M   'P -1'
_atom_sites_solution_hydrogens   mixed
_atom_sites_solution_primary     direct
_atom_sites_solution_secondary   difmap
_audit_creation_method           SHELXL-2014/7
_cell_angle_alpha                92.623(2)
_cell_angle_beta                 106.331(2)
_cell_angle_gamma                105.543(2)
_cell_formula_units_Z            2
_cell_length_a                   6.3088(11)
_cell_length_b                   9.4321(16)
_cell_length_c                   11.166(2)
_cell_measurement_reflns_used    956
_cell_measurement_temperature    120(2)
_cell_measurement_theta_max      29.7
_cell_measurement_theta_min      3.2
_cell_volume                     609.02(18)
_computing_cell_refinement       'Bruker SAINT'
_computing_data_collection       'Bruker APEX2'
_computing_data_reduction        'Bruker SAINT'
_computing_molecular_graphics    'Bruker SHELXTL'
_computing_publication_material  'SHELXL-2014/7 and local programs'
_computing_structure_refinement  SHELXL-2014/7
_computing_structure_solution    'Bruker SHELXTL'
_diffrn_ambient_temperature      120(2)
_diffrn_measured_fraction_theta_full 0.951
_diffrn_measured_fraction_theta_max 0.882
_diffrn_measurement_device_type  'Bruker APEX2 CCD diffractometer'
_diffrn_measurement_method       'thin-slice \w scans'
_diffrn_radiation_type           synchrotron
_diffrn_radiation_wavelength     0.6946
_diffrn_reflns_av_R_equivalents  0.0154
_diffrn_reflns_av_unetI/netI     0.0241
_diffrn_reflns_Laue_measured_fraction_full 0.951
_diffrn_reflns_Laue_measured_fraction_max 0.882
_diffrn_reflns_limit_h_max       8
_diffrn_reflns_limit_h_min       -8
_diffrn_reflns_limit_k_max       13
_diffrn_reflns_limit_k_min       -13
_diffrn_reflns_limit_l_max       15
_diffrn_reflns_limit_l_min       -15
_diffrn_reflns_number            5928
_diffrn_reflns_point_group_measured_fraction_full 0.951
_diffrn_reflns_point_group_measured_fraction_max 0.882
_diffrn_reflns_theta_full        24.630
_diffrn_reflns_theta_max         29.732
_diffrn_reflns_theta_min         3.079
_diffrn_source                   'Daresbury SRS station 9.8'
_exptl_absorpt_coefficient_mu    0.356
_exptl_absorpt_correction_T_max  0.985
_exptl_absorpt_correction_T_min  0.905
_exptl_absorpt_correction_type   multi-scan
_exptl_absorpt_process_details   SADABS
_exptl_crystal_colour            colourless
_exptl_crystal_density_diffrn    1.545
_exptl_crystal_density_method    'not measured'
_exptl_crystal_description       block
_exptl_crystal_F_000             296
_exptl_crystal_size_max          0.100
_exptl_crystal_size_mid          0.060
_exptl_crystal_size_min          0.040
_refine_diff_density_max         0.474
_refine_diff_density_min         -0.373
_refine_diff_density_rms         0.061
_refine_ls_extinction_method     none
_refine_ls_goodness_of_fit_ref   1.061
_refine_ls_hydrogen_treatment    mixed
_refine_ls_matrix_type           full
_refine_ls_number_parameters     171
_refine_ls_number_reflns         3259
_refine_ls_number_restraints     0
_refine_ls_restrained_S_all      1.061
_refine_ls_R_factor_all          0.0374
_refine_ls_R_factor_gt           0.0350
_refine_ls_shift/su_max          0.001
_refine_ls_shift/su_mean         0.000
_refine_ls_structure_factor_coef Fsqd
_refine_ls_weighting_details
'w=1/[\s^2^(Fo^2^)+(0.0614P)^2^+0.2169P] where P=(Fo^2^+2Fc^2^)/3'
_refine_ls_weighting_scheme      calc
_refine_ls_wR_factor_gt          0.0964
_refine_ls_wR_factor_ref         0.0989
_reflns_Friedel_coverage         0.000
_reflns_number_gt                2992
_reflns_number_total             3259
_reflns_threshold_expression     'I > 2\s(I)'
_cod_data_source_file            co5b00155_si_002.cif
_cod_data_source_block           irh33_3a
_cod_database_code               4513914
_shelx_shelxl_version_number     2014/7
_shelx_space_group_comment
;
The symmetry employed for this shelxl refinement is uniquely defined
by the following loop, which should always be used as a source of
symmetry information in preference to the above space-group names.
They are only intended as comments.
;
_shelx_estimated_absorpt_t_min   0.965
_shelx_estimated_absorpt_t_max   0.986
_shelx_res_file
;

    irh33.res created by SHELXL-2014/7


TITL IRH33 (ssh0800) in P-1
CELL 0.6946    6.3088   9.4321  11.166  92.623 106.331 105.543
ZERR    2.00   0.0011   0.0016   0.002   0.002   0.002   0.002
LATT  1
SFAC C H N O S
DISP    C    0.00292   0.00153        5.99
DISP    N    0.00577   0.00313       12.27
DISP    O    0.01030   0.00577       22.58
DISP    S    0.12041   0.11835      463.30
UNIT 22 26 6 4 4

REM colourless block
SIZE 0.10 0.06 0.04
TEMP -153
OMIT 0 1 0

L.S. 8
ACTA
BOND $H
CONF
FMAP 2
PLAN 10

EQIV $1 x+1, y+1, z
HTAB N2 O1_$1
EQIV $2 -x+2, -y+2, -z+2
HTAB N2 N1_$2

rem EXTI    0.000000
WGHT    0.061400    0.216900
FVAR       0.73199
S1    5    1.260796    0.760066    0.827259    11.00000    0.01638    0.01554 =
         0.02077   -0.00111    0.00896    0.00200
S2    5    0.715982    0.173790    0.721806    11.00000    0.01746    0.01347 =
         0.01568    0.00091    0.00729    0.00341
O1    4    0.586834    0.080272    0.791140    11.00000    0.02828    0.01638 =
         0.02182    0.00400    0.01362    0.00312
O2    4    0.922560    0.148779    0.707402    11.00000    0.02040    0.02032 =
         0.02485    0.00105    0.00907    0.00816
N1    3    0.955289    0.804310    0.931737    11.00000    0.01825    0.01425 =
         0.01832    0.00107    0.00820    0.00400
N2    3    1.248418    1.018926    0.931900    11.00000    0.01957    0.01470 =
         0.02241    0.00143    0.01022    0.00370
H2A   2    1.360646    1.054868    0.907665    11.00000    0.02867
H2B   2    1.184931    1.073336    0.964405    11.00000    0.03663
N3    3    0.541620    0.158193    0.580988    11.00000    0.01675    0.02127 =
         0.01556   -0.00006    0.00582    0.00206
C1    1    1.143003    0.873827    0.904405    11.00000    0.01615    0.01671 =
         0.01399    0.00058    0.00480    0.00553
C2    1    1.033391    0.607949    0.828719    11.00000    0.01505    0.01526 =
         0.01532    0.00098    0.00558    0.00220
C3    1    0.986477    0.460978    0.779866    11.00000    0.01622    0.01695 =
         0.01649   -0.00043    0.00586    0.00455
AFIX  43
H3    2    1.085083    0.431073    0.740036    11.00000   -1.20000
AFIX   0
C4    1    0.789503    0.358551    0.791221    11.00000    0.01751    0.01434 =
         0.01431    0.00077    0.00579    0.00367
C5    1    0.644121    0.402325    0.850893    11.00000    0.01895    0.01569 =
         0.01765    0.00165    0.00855    0.00302
AFIX  43
H5    2    0.511019    0.330846    0.857685    11.00000   -1.20000
AFIX   0
C6    1    0.694433    0.549711    0.899944    11.00000    0.01948    0.01717 =
         0.01808    0.00147    0.00985    0.00502
AFIX  43
H6    2    0.596484    0.579105    0.940574    11.00000   -1.20000
AFIX   0
C7    1    0.889819    0.654489    0.889217    11.00000    0.01656    0.01527 =
         0.01338    0.00154    0.00514    0.00460
C8    1    0.300737    0.160569    0.562954    11.00000    0.01613    0.03539 =
         0.02688    0.00143    0.00626    0.00363
AFIX  23
H8A   2    0.276865    0.184924    0.644455    11.00000   -1.20000
H8B   2    0.189281    0.063632    0.521151    11.00000   -1.20000
AFIX   0
C9    1    0.274987    0.281685    0.479552    11.00000    0.03001    0.04318 =
         0.03433    0.00617    0.00858    0.01789
AFIX  23
H9A   2    0.333573    0.380945    0.530050    11.00000   -1.20000
H9B   2    0.111751    0.264913    0.429283    11.00000   -1.20000
AFIX   0
C10   1    0.422845    0.266256    0.395521    11.00000    0.03294    0.03319 =
         0.02123    0.00473    0.00486    0.01030
AFIX  23
H10A  2    0.468831    0.358810    0.358649    11.00000   -1.20000
H10B  2    0.339165    0.183061    0.326665    11.00000   -1.20000
AFIX   0
C11   1    0.632905    0.235417    0.485231    11.00000    0.02451    0.02767 =
         0.01724    0.00341    0.00932    0.00483
AFIX  23
H11A  2    0.695737    0.171561    0.440578    11.00000   -1.20000
H11B  2    0.755948    0.329032    0.524445    11.00000   -1.20000

AFIX   0
HKLF 4

REM  IRH33 (ssh0800) in P-1
REM R1 =  0.0350 for    2992 Fo > 4sig(Fo)  and  0.0374 for all    3259 data
REM    171 parameters refined using      0 restraints

END

WGHT      0.0607      0.2171

REM Highest difference peak  0.474,  deepest hole -0.373,  1-sigma level  0.061
Q1    1   0.6811  0.4776  0.8773  11.00000  0.05    0.47
Q2    1   0.7404  0.2668  0.7557  11.00000  0.05    0.46
Q3    1   0.8075  0.5983  0.8993  11.00000  0.05    0.45
Q4    1   0.2146  0.1981  0.4370  11.00000  0.05    0.43
Q5    1   0.6864  0.1362  0.7827  11.00000  0.05    0.41
Q6    1   0.8401  0.1701  0.7251  11.00000  0.05    0.40
Q7    1   1.0077  0.5357  0.8006  11.00000  0.05    0.39
Q8    1   1.1940  0.8290  0.8606  11.00000  0.05    0.34
Q9    1   0.6240  0.1781  0.6515  11.00000  0.05    0.32
Q10   1   0.9776  0.6226  0.8701  11.00000  0.05    0.32
;
_shelx_res_checksum              98727
_shelx_hkl_file
;
   2   0  -2    7.44    0.44
  -2   0   2    8.24    0.48
   3   0  -3   81.62    2.06
  -3   0   3   80.43    2.09
   6   0  -6   45.79    1.81
  -6   0   6   48.21    1.84
   7   0  -7   64.25    2.27
  -7   0   7   58.54    2.20
   8   0  -8    0.72    0.45
  -8   0   8    1.24    0.54
  -7  -1   7   59.74    2.24
   7   1  -7   64.29    2.26
  -6  -1   6    5.84    0.71
   6   1  -6    5.66    0.70
  -5  -1   5  163.10    4.01
   5   1  -5  163.96    3.96
  -4  -1   4    2.74    0.46
   4   1  -4    3.36    0.48
  -3  -1   3  437.56    8.74
   3   1  -3  454.23    8.52
  -2  -1   2   68.71    1.41
  -2  -1   2   66.95    1.73
   2   1  -2   69.69    1.70
   0  -1   0    0.04    0.07
   2  -1  -2  211.95    4.16
   3  -1  -3   20.00    0.84
  -3   1   3   20.54    0.84
   4  -1  -4  198.75    4.34
  -4   1   4  196.72    4.40
   5  -1  -5  383.12    7.82
  -5   1   5  386.64    8.03
   6  -1  -6    2.93    0.54
  -6   1   6    2.77    0.55
   7  -1  -7    1.60    0.51
  -7   1   7    1.33    0.47
   8  -1  -8    0.41    0.37
  -8   1   8    0.12    0.32
  -7  -2   7  190.24    4.93
   7   2  -7  192.27    4.77
  -6  -2   6    5.81    0.73
   6   2  -6    5.95    0.71
  -5  -2   5    8.85    0.81
   5   2  -5    7.80    0.74
  -4  -2   4    3.47    0.48
   4   2  -4    2.79    0.48
  -3  -2   3   37.58    1.01
  -3  -2   3   38.71    1.36
   3   2  -3   38.03    1.33
  -1  -2   1  137.28    2.86
  -1  -2   1  134.17    2.71
  -1  -2   1  137.54    2.73
   4  -2  -4  283.74    5.88
  -4   2   4  290.92    5.99
   5  -2  -5  410.44    8.34
  -5   2   5  420.71    8.54
   6  -2  -6    1.36    0.42
  -6   2   6    0.91    0.41
   7  -2  -7  284.62    6.41
  -7   2   7  291.17    6.64
   8  -2  -8   51.43    2.07
  -8   2   8   51.94    2.09
  -7  -3   7   15.56    1.16
   7   3  -7   17.90    1.19
  -6  -3   6   31.75    1.56
   6   3  -6   31.14    1.49
  -5  -3   5  323.41    7.03
   5   3  -5  310.68    6.77
  -4  -3   4   67.80    2.13
   4   3  -4   67.88    2.12
  -3  -3   3  260.22    5.18
  -3  -3   3  268.24    5.72
   3   3  -3  271.74    5.55
  -2  -3   2  147.68    3.15
  -2  -3   2  144.11    3.34
  -2  -3   2  147.31    3.07
  -1  -3   1  295.69    5.83
   3  -3  -3  127.23    2.82
   3  -3  -3  127.87    2.53
  -3   3   3  115.80    2.83
   4  -3  -4  492.77    9.43
   5  -3  -5   35.39    1.41
  -5   3   5   35.70    1.41
   6  -3  -6   26.99    1.28
  -6   3   6   23.25    1.22
   7  -3  -7    0.77    0.41
  -7   3   7    1.15    0.43
   8  -3  -8    9.66    0.95
  -8   3   8   10.21    0.94
  -7  -4   7    9.28    1.04
   7   4  -7    7.80    0.88
  -6  -4   6   11.51    1.06
   6   4  -6   10.44    0.95
  -5  -4   5  146.70    3.91
   5   4  -5  143.82    3.69
  -4  -4   4  440.80    9.29
   4   4  -4  461.01    9.02
  -3  -4   3  235.34    5.20
  -3  -4   3  234.71    4.80
  -2  -4   2  182.11    3.81
  -2  -4   2  179.12    3.81
  -2  -4   2  180.28    3.97
  -1  -4   1  349.31    6.73
   0  -4   0   56.83    1.59
   0  -4   0   59.62    1.42
   0   4   0   61.66    1.61
   2  -4  -2    6.40    0.45
   2  -4  -2    5.44    0.40
  -2   4   2    5.06    0.42
   3  -4  -3   64.88    1.78
   3  -4  -3   62.96    1.62
  -3   4   3   66.66    1.82
   4  -4  -4   16.52    0.88
  -4   4   4   17.13    0.87
   5  -4  -5    0.22    0.27
  -5   4   5    0.28    0.26
   6  -4  -6   53.79    1.96
  -6   4   6   57.18    2.01
   7  -4  -7  103.37    3.06
  -7   4   7  101.68    3.11
   8  -4  -8    8.37    0.92
  -8   4   8    8.50    0.89
   7   5  -7   17.44    1.25
  -6  -5   6   -0.30    0.34
   6   5  -6    0.54    0.32
  -5  -5   5   57.33    2.15
   5   5  -5   57.75    2.07
  -4  -5   4   49.98    1.88
   4   5  -4   45.10    1.76
  -3  -5   3  283.12    5.72
  -3  -5   3  272.94    6.04
  -3  -5   3  276.83    5.80
  -2  -5   2    8.93    0.65
  -2  -5   2    8.82    0.63
  -2  -5   2    9.24    0.61
  -1  -5   1   14.45    0.76
  -1  -5   1   15.16    0.69
   1   5  -1   15.57    0.81
   0   5   0  504.42    9.80
   1  -5  -1  195.36    3.91
   1  -5  -1  196.63    4.20
  -1   5   1  205.70    4.24
   3  -5  -3   53.44    1.58
   3  -5  -3   53.39    1.54
  -3   5   3   54.49    1.65
   4  -5  -4  508.74    9.83
  -4   5   4  514.53   10.17
   5  -5  -5    6.92    0.66
  -5   5   5    5.65    0.63
   6  -5  -6  172.30    4.27
  -6   5   6  178.27    4.40
   7  -5  -7  107.84    3.13
  -7   5   7  101.72    3.13
   8  -5  -8    8.92    0.95
  -8   5   8   13.46    1.01
  -5  -6   5   29.73    1.53
   5   6  -5   29.72    1.46
  -4  -6   4   24.60    1.34
   4   6  -4   26.46    1.31
  -3  -6   3  562.27   10.82
  -3  -6   3  568.51   11.35
  -3  -6   3  565.68   10.91
  -2  -6   2  157.77    3.77
  -2  -6   2  157.02    3.66
  -2  -6   2  153.45    3.53
   0  -6   0   20.96    0.98
   0  -6   0   20.76    0.82
   0   6   0   19.74    0.94
   1  -6  -1  329.45    6.21
   1  -6  -1  316.03    6.51
  -1   6   1  328.33    6.60
   2  -6  -2   74.81    2.06
   2  -6  -2   74.62    1.87
  -2   6   2   69.68    2.00
   4  -6  -4  633.70   11.99
  -4   6   4  635.53   12.42
   5  -6  -5   12.66    0.86
  -5   6   5   13.55    0.87
   6  -6  -6   39.50    1.62
  -6   6   6   36.70    1.59
   7  -6  -7    0.60    0.44
  -7   6   7    0.65    0.41
   8  -6  -8  189.41    4.82
  -8   6   8  184.29    4.88
  -5  -7   5   28.19    1.59
  -4  -7   4  265.22    6.14
  -3  -7   3   11.59    0.82
  -3  -7   3   11.42    0.85
  -3  -7   3   12.50    0.84
  -2  -7   2   23.74    1.13
  -2  -7   2   21.71    1.04
   2   7  -2   21.35    1.20
  -1  -7   1  123.00    3.18
  -1  -7   1  124.30    2.95
   1   7  -1  126.13    3.27
   0  -7   0    7.41    0.54
   0  -7   0    6.40    0.62
   0   7   0    6.96    0.64
   1  -7  -1  302.74    5.84
   1  -7  -1  297.16    6.14
  -1   7   1  281.27    6.19
   2  -7  -2  322.90    6.42
   2  -7  -2  326.63    6.71
  -2   7   2  336.60    6.84
   3  -7  -3   17.22    0.93
   3  -7  -3   19.85    0.90
  -3   7   3   18.15    0.94
   4  -7  -4  236.25    5.07
   4  -7  -4  232.46    5.10
  -4   7   4  231.97    5.25
   5  -7  -5   11.17    0.83
  -5   7   5   11.95    0.84
   6  -7  -6    1.32    0.43
  -6   7   6    1.31    0.47
   7  -7  -7   57.58    2.20
  -7   7   7   60.52    2.26
   8  -7  -8   80.12    2.76
  -3  -8   3  133.82    3.55
  -2  -8   2   25.95    1.26
   2   8  -2   23.48    1.32
  -1  -8   1  116.66    3.11
   1   8  -1  112.75    3.17
   0  -8   0    9.87    0.78
   0   8   0    8.18    0.74
   1  -8  -1  240.38    5.34
  -1   8   1  246.04    5.42
   2  -8  -2  127.19    3.28
  -2   8   2  133.01    3.28
   3  -8  -3    8.96    0.72
   3  -8  -3    9.78    0.65
  -3   8   3   10.32    0.76
   4  -8  -4   37.30    1.48
   4  -8  -4   41.77    1.57
  -4   8   4   38.64    1.55
   5  -8  -5    7.73    0.79
  -5   8   5    7.41    0.77
   6  -8  -6  201.47    4.90
  -6   8   6  207.57    4.94
   7  -8  -7    2.84    0.65
  -7   8   7    1.61    0.50
  -3  -9   3    3.11    0.60
  -2  -9   2  118.27    3.26
  -1  -9   1  313.32    6.77
   0  -9   0   32.02    1.45
   1  -9  -1   48.36    1.81
  -1   9   1   49.39    1.82
   2  -9  -2   30.45    1.36
  -2   9   2   27.80    1.28
   3  -9  -3  261.36    5.67
  -3   9   3  246.91    5.75
   4  -9  -4   47.98    1.80
  -4   9   4   48.46    1.83
  -5   9   5  110.34    3.12
  -6   9   6    7.97    0.87
  -7   9   7   27.22    1.51
  -3 -10   3    4.59    0.72
  -2 -10   2   86.00    2.79
  -1 -10   1    3.38    0.60
   0 -10   0  126.00    3.44
   1 -10  -1   12.71    0.93
   2 -10  -2    1.18    0.44
   3 -10  -3   11.54    0.91
   4 -10  -4    1.08    0.46
  -2 -11   2  103.36    3.17
  -1 -11   1  115.06    3.31
   0 -11   0   23.99    1.32
   1 -11  -1  181.78    4.54
   2 -11  -2   -0.18    0.32
   3 -11  -3  268.41    6.11
   4 -11  -4   84.93    2.76
  -1 -12   1    6.11    0.78
   0 -12   0   71.56    2.55
   1 -12  -1   35.45    1.65
   2 -12  -2   31.57    1.57
   3 -12  -3   44.29    1.89
   4 -12  -4    0.15    0.38
   3 -12  -4   19.82    1.27
   2 -12  -3  117.74    3.43
   1 -12  -2    2.44    0.61
   0 -12  -1    2.68    0.62
   3 -11  -4    4.01    0.67
   2 -11  -3   19.41    1.20
   1 -11  -2    5.13    0.73
   0 -11  -1   13.32    0.99
  -1 -11   0   77.41    2.62
  -2 -11   1   20.08    1.26
  -6  10   7    4.62    0.72
  -5  10   6  127.07    3.67
  -4  10   5  131.93    3.74
   4 -10  -5  129.83    3.57
  -3  10   4    1.56    0.51
   3 -10  -4    2.05    0.52
  -2  10   3  188.98    4.69
   2 -10  -3  192.31    4.66
   1 -10  -2    0.21    0.35
   0 -10  -1  151.82    4.01
  -1 -10   0    5.36    0.75
  -2 -10   1   27.97    1.45
  -3 -10   2   10.07    0.99
  -7   9   8    6.77    0.84
  -6   9   7   29.36    1.50
  -5   9   6   42.32    1.79
  -4   9   5  109.73    3.13
   4  -9  -5  111.21    3.10
  -3   9   4    2.71    0.55
   3  -9  -4    2.17    0.50
  -2   9   3    0.78    0.38
   2  -9  -3    1.39    0.44
  -1   9   2   17.44    1.07
   1  -9  -2   16.08    1.03
   0   9   1    8.35    0.83
   0  -9  -1    7.93    0.80
   1   9   0   51.57    2.00
  -1  -9   0   49.55    1.90
  -2  -9   1   28.47    1.41
  -3  -9   2  132.44    3.63
  -7   8   8   63.02    2.35
  -6   8   7   18.60    1.16
  -5   8   6    0.11    0.30
  -4   8   5  316.35    6.93
  -3   8   4   66.03    2.19
   3  -8  -4   69.10    2.16
  -2   8   3  106.79    2.86
   2  -8  -3   94.55    2.77
  -1   8   2   55.10    1.89
   1  -8  -2   55.69    1.89
   0   8   1  189.79    4.64
   0  -8  -1  198.34    4.55
   1   8   0    1.76    0.45
  -1  -8   0    1.68    0.43
   2   8  -1   40.00    1.72
  -2  -8   1   40.57    1.67
   3   8  -2   31.01    1.59
  -3  -8   2   29.66    1.40
   4   8  -3   16.90    1.29
  -7   7   8   81.27    2.70
   7  -7  -8   82.60    2.73
  -6   7   7    2.29    0.52
   6  -7  -7    3.47    0.64
  -5   7   6  139.21    3.69
   5  -7  -6  137.54    3.57
  -4   7   5    2.46    0.47
   4  -7  -5    1.84    0.43
  -3   7   4  120.05    3.09
   3  -7  -4  120.42    2.85
   3  -7  -4  115.05    2.98
  -2   7   3    1.56    0.39
   2  -7  -3    1.30    0.31
   2  -7  -3    1.12    0.38
  -1   7   2    5.69    0.58
   1  -7  -2    5.63    0.60
   0   7   1  173.11    4.15
   0  -7  -1  172.45    4.04
   1   7   0   92.33    2.67
  -1  -7   0   89.88    2.56
   2   7  -1   38.64    1.69
  -2  -7   1   42.40    1.59
   3   7  -2   24.06    1.34
  -3  -7   2   23.45    1.20
  -4  -7   3   28.79    1.42
  -5  -7   4    3.84    0.67
  -6  -7   5    2.00    0.64
  -7   6   8    1.21    0.46
   7  -6  -8    0.89    0.47
  -6   6   7    2.82    0.57
   6  -6  -7    2.48    0.55
  -5   6   6    0.29    0.30
   5  -6  -6    0.25    0.28
  -4   6   5   10.09    0.74
   4  -6  -5   11.47    0.75
  -3   6   4  577.08   11.17
   3  -6  -4  563.57   10.79
   3  -6  -4  565.32   10.65
  -2   6   3  127.68    3.17
   2  -6  -3  125.44    3.08
   2  -6  -3  139.34    2.90
  -1   6   2    2.22    0.38
   1  -6  -2    1.48    0.36
   1  -6  -2    2.20    0.29
   0   6   1   78.62    2.20
   0  -6  -1   75.99    1.82
   0  -6  -1   76.09    2.16
   1   6   0  255.04    5.65
  -1  -6   0  263.88    5.13
  -1  -6   0  253.64    5.45
   2   6  -1  216.90    5.04
  -2  -6   1  212.90    4.72
  -2  -6   1  212.64    4.50
  -3  -6   2    0.06    0.29
  -3  -6   2    0.81    0.36
  -4  -6   3    9.16    0.87
  -5  -6   4   73.73    2.57
  -8   5   9   78.28    2.68
   8  -5  -9   72.26    2.61
  -7   5   8  177.83    4.60
   7  -5  -8  180.66    4.53
  -6   5   7   41.66    1.68
   6  -5  -7   43.16    1.75
  -5   5   6  183.56    4.40
   5  -5  -6  180.64    4.27
  -4   5   5   21.81    1.07
   4  -5  -5   25.41    1.08
  -3   5   4  372.36    7.65
   3  -5  -4  371.50    7.30
   3  -5  -4  387.34    7.32
  -2   5   3  230.35    4.95
   2  -5  -3  229.17    4.80
   2  -5  -3  239.96    4.61
  -1   5   2   19.11    0.86
   1  -5  -2   18.08    0.85
   1  -5  -2   19.40    0.67
   0   5   1  241.24    5.00
   0  -5  -1  233.04    4.47
   0  -5  -1  224.94    4.84
   1   5   0    8.12    0.65
  -1  -5   0    8.87    0.50
  -1  -5   0    8.79    0.61
  -2  -5   1  364.66    7.53
  -2  -5   1  370.63    7.12
  -2  -5   1  370.06    7.29
   3   5  -2   42.07    1.47
  -3  -5   2   42.98    1.63
  -3  -5   2   42.45    1.44
   4   5  -3   96.09    2.71
  -4  -5   3   97.96    2.88
   5   5  -4   11.85    0.92
  -5  -5   4   12.46    1.05
   6   5  -5    5.08    0.73
  -6  -5   5    5.49    0.80
  -8   4   9  181.34    4.73
   8  -4  -9  173.19    4.60
  -7   4   8    7.13    0.78
   7  -4  -8    4.03    0.64
  -6   4   7   39.82    1.66
   6  -4  -7   41.93    1.66
  -5   4   6  291.99    6.34
   5  -4  -6  287.98    6.14
  -4   4   5   66.67    1.98
   4  -4  -5   62.43    1.88
  -3   4   4  325.34    6.52
   3  -4  -4  312.06    6.12
   3  -4  -4  319.97    6.28
  -2   4   3   13.00    0.68
   2  -4  -3   14.14    0.67
   2  -4  -3   14.04    0.62
   0   4   1   90.25    2.26
   0  -4  -1   92.92    2.26
   0  -4  -1   91.19    1.90
   1   4   0  585.46   11.31
  -2  -4   1  150.78    3.50
  -2  -4   1  150.17    3.24
  -2  -4   1  153.07    3.37
   3   4  -2    7.11    0.61
  -3  -4   2    7.06    0.54
  -3  -4   2    7.02    0.65
   4   4  -3  174.43    4.10
  -4  -4   3  176.46    4.32
   5   4  -4    0.99    0.42
  -5  -4   4    2.64    0.61
   6   4  -5  108.76    3.17
  -6  -4   5  111.72    3.38
   7   4  -6    0.98    0.45
  -7  -4   6    1.11    0.53
  -8   3   9   14.09    1.07
   8  -3  -9   16.07    1.13
  -7   3   8   54.49    2.08
   7  -3  -8   49.99    1.98
  -6   3   7   17.02    1.05
   6  -3  -7   15.98    0.99
  -5   3   6   85.09    2.45
   5  -3  -6   81.66    2.40
  -4   3   5    9.54    0.67
   4  -3  -5    8.47    0.64
  -3   3   4  203.12    4.48
   3  -3  -4  212.65    4.07
   3  -3  -4  210.28    4.34
  -2   3   3   15.71    0.70
   2  -3  -3   16.35    0.65
   2  -3  -3   15.94    0.65
  -1   3   2   49.38    1.31
   1  -3  -2   48.18    1.11
   1  -3  -2   47.52    1.27
  -1  -3   0  102.88    2.38
  -1  -3   0  102.29    2.30
  -1  -3   0  101.86    2.13
  -2  -3   1   59.66    1.73
  -2  -3   1   59.05    1.55
   3   3  -2   26.98    1.07
  -3  -3   2   29.27    1.20
  -3  -3   2   27.29    0.97
   4   3  -3  126.93    3.09
  -4  -3   3  122.49    3.26
   5   3  -4    6.48    0.69
  -5  -3   4    6.57    0.73
   6   3  -5    6.51    0.78
  -6  -3   5    7.81    0.86
   7   3  -6   27.92    1.51
  -7  -3   6   29.77    1.61
  -8   2   9   10.85    1.00
   8  -2  -9    9.48    0.95
  -7   2   8    3.86    0.66
   7  -2  -8    4.33    0.67
  -6   2   7   48.85    1.89
   6  -2  -7   48.76    1.86
  -5   2   6  283.48    6.27
   5  -2  -6  292.45    6.12
  -4   2   5   16.46    0.88
   4  -2  -5   17.96    0.92
  -3   2   4   99.23    2.42
   3  -2  -4   95.63    2.40
   3  -2  -4  100.73    2.00
   2   2  -1  140.28    2.99
  -2  -2   1  142.59    3.17
  -2  -2   1  140.77    2.87
   3   2  -2   66.83    1.82
  -3  -2   2   65.64    1.91
  -3  -2   2   67.72    1.59
   4   2  -3  462.97    9.09
  -4  -2   3  474.40    9.49
   5   2  -4    5.01    0.63
  -5  -2   4    4.36    0.62
   6   2  -5  183.46    4.49
  -6  -2   5  183.86    4.58
   7   2  -6   12.16    0.97
  -7  -2   6   11.69    1.04
  -8   1   9   45.38    1.98
   8  -1  -9   50.08    2.03
  -7   1   8    1.56    0.49
   7  -1  -8    1.06    0.45
  -6   1   7  231.26    5.43
   6  -1  -7  225.16    5.27
  -5   1   6    4.95    0.60
   5  -1  -6    4.87    0.61
  -4   1   5  204.10    4.54
   4  -1  -5  198.93    4.41
  -3   1   4   23.61    0.94
   3  -1  -4   23.38    0.96
  -2   1   3   23.79    0.84
   2  -1  -3   24.55    0.84
   2  -1  -3   24.94    0.61
   0   1   1    1.96    0.22
   0  -1  -1    2.06    0.19
   2   1  -1  126.55    2.65
  -2  -1   1  125.87    2.81
  -2  -1   1  126.68    2.46
   4   1  -3    4.64    0.53
  -4  -1   3    5.76    0.59
   5   1  -4    4.22    0.57
  -5  -1   4    4.11    0.59
   6   1  -5   44.34    1.79
  -6  -1   5   41.80    1.74
   7   1  -6    1.45    0.47
  -7  -1   6    0.83    0.45
   8   1  -7   51.60    2.11
  -8  -1   7   53.56    2.14
  -7   0   8    1.37    0.47
   7   0  -8    1.69    0.49
  -6   0   7   18.95    1.13
   6   0  -7   20.31    1.14
  -5   0   6    0.09    0.27
   5   0  -6   -0.08    0.24
  -4   0   5  225.11    5.04
   4   0  -5  234.16    4.97
  -3   0   4    7.75    0.55
   3   0  -4    8.34    0.57
  -2   0   3  236.22    4.75
   2   0  -3  238.54    4.70
   1   0   0   11.80    0.39
  -1   0   0   11.12    0.42
   3   0  -2   14.48    0.71
  -3   0   2   14.56    0.74
   4   0  -3  126.09    3.05
  -4   0   3  124.38    3.11
   5   0  -4  116.73    3.09
  -5   0   4  115.87    3.11
   6   0  -5   41.68    1.67
  -6   0   5   44.34    1.73
   7   0  -6    1.38    0.44
  -7   0   6    1.89    0.52
   8   0  -7   47.97    1.95
  -8   0   7   46.40    2.03
  -7  -1   8   28.88    1.50
   7   1  -8   27.29    1.44
  -6  -1   7  104.64    3.07
   6   1  -7  101.51    2.98
  -5  -1   6   72.87    2.31
   5   1  -6   73.96    2.27
   4   1  -5  527.13   10.17
  -3  -1   4    1.12    0.28
   3   1  -4    0.32    0.25
   3   1  -4    0.29    0.12
  -2  -1   3  138.92    3.05
  -2  -1   3  139.03    3.01
   2   1  -3  142.40    2.68
   2  -1  -1   15.68    0.61
  -2   1   1   14.70    0.61
   3  -1  -2  295.59    5.70
  -3   1   2  285.31    5.87
   4  -1  -3   50.54    1.62
  -4   1   3   54.09    1.71
   5  -1  -4  235.10    5.19
  -5   1   4  233.52    5.30
   6  -1  -5  196.24    4.66
  -6   1   5  198.13    4.81
   7  -1  -6    1.08    0.42
  -7   1   6    1.12    0.45
   8  -1  -7  119.70    3.50
  -8   1   7  128.96    3.72
  -7  -2   8   39.44    1.83
   7   2  -8   42.74    1.82
  -6  -2   7   19.22    1.16
   6   2  -7   18.61    1.13
  -5  -2   6   16.14    1.01
   5   2  -6   16.49    1.01
   4   2  -5  628.15   11.95
  -3  -2   4    3.63    0.43
   3   2  -4    3.19    0.31
   3   2  -4    2.73    0.41
  -1  -2   2    2.68    0.27
  -1  -2   2    2.56    0.26
  -1  -2   2    2.52    0.29
   0  -2   1    0.34    0.17
   0  -2   1    0.51    0.16
   0   2  -1    0.39    0.16
   3  -2  -2  109.05    2.58
  -3   2   2  116.66    2.15
  -3   2   2  107.14    2.61
   4  -2  -3  185.20    4.16
  -4   2   3  197.61    4.34
   5  -2  -4  242.08    5.18
  -5   2   4  236.56    5.29
   6  -2  -5    4.19    0.62
  -6   2   5    3.34    0.54
   7  -2  -6   17.64    1.08
  -7   2   6   14.21    1.01
   8  -2  -7   -0.54    0.25
  -8   2   7    0.07    0.36
  -7  -3   8   24.73    1.44
   7   3  -8   20.34    1.31
  -6  -3   7  116.83    3.38
   6   3  -7  117.17    3.28
  -5  -3   6   67.51    2.27
   5   3  -6   65.93    2.22
  -4  -3   5   33.43    1.41
   4   3  -5   34.07    1.43
  -3  -3   4    0.67    0.27
  -3  -3   4    0.12    0.22
   3   3  -4    0.37    0.22
  -2  -3   3   20.17    0.84
  -2  -3   3   20.63    0.85
  -2  -3   3   20.49    0.76
  -1  -3   2  230.53    4.48
  -1  -3   2  234.24    4.46
  -1  -3   2  222.31    4.56
   1  -3   0   40.07    1.07
   1  -3   0   37.61    1.00
  -1   3   0   38.27    0.97
   2  -3  -1   91.00    2.04
   2  -3  -1   90.47    1.95
  -2   3   1   89.82    2.07
   4  -3  -3  174.55    3.94
  -4   3   3  179.12    4.06
   5  -3  -4   84.96    2.50
  -5   3   4   92.79    2.56
   6  -3  -5    7.92    0.80
  -6   3   5    7.82    0.75
   7  -3  -6   25.17    1.34
  -7   3   6   24.97    1.31
   8  -3  -7  236.97    5.66
  -8   3   7  239.46    5.84
  -7  -4   8    3.57    0.77
   7   4  -8    2.57    0.62
  -6  -4   7   51.91    2.13
   6   4  -7   58.09    2.16
  -5  -4   6   -0.16    0.30
   5   4  -6    0.35    0.35
  -4  -4   5  221.39    5.14
   4   4  -5  223.19    5.05
  -3  -4   4   11.66    0.74
  -3  -4   4   10.93    0.76
  -1  -4   2    4.62    0.42
  -1  -4   2    4.38    0.41
  -1  -4   2    4.72    0.42
   0  -4   1  108.28    2.49
   0  -4   1  109.17    2.39
   0   4  -1  113.33    2.46
   1  -4   0  105.81    2.35
   1  -4   0  107.98    2.46
  -1   4   0  114.38    2.39
   2  -4  -1   10.14    0.53
   2  -4  -1    8.26    0.50
  -2   4   1    9.36    0.50
   4  -4  -3    4.46    0.49
  -4   4   3    4.69    0.37
  -4   4   3    3.75    0.46
   5  -4  -4   64.70    2.04
  -5   4   4   67.17    2.09
   6  -4  -5    6.10    0.70
  -6   4   5    7.76    0.77
   7  -4  -6  139.70    3.70
  -7   4   6  133.52    3.67
   8  -4  -7   20.06    1.24
  -8   4   7   18.71    1.24
  -6  -5   7    0.46    0.43
   6   5  -7   -0.41    0.33
  -5  -5   6  162.49    4.35
   5   5  -6  161.64    4.20
  -4  -5   5   87.89    2.69
   4   5  -5   89.55    2.65
  -3  -5   4  241.61    5.44
  -3  -5   4  241.43    5.24
  -2  -5   3  412.10    8.00
  -2  -5   3  408.86    8.02
  -2  -5   3  413.55    8.32
  -1  -5   2   10.91    0.62
  -1  -5   2   11.38    0.66
   1  -5   0  151.63    3.35
   1  -5   0  154.61    3.21
  -1   5   0  153.45    3.29
   2  -5  -1  370.60    7.12
   3  -5  -2    1.47    0.31
   3  -5  -2    0.78    0.26
  -3   5   2    1.32    0.29
   4  -5  -3   36.53    1.15
   4  -5  -3   35.83    1.36
  -4   5   3   34.43    1.30
   5  -5  -4   77.40    2.29
  -5   5   4   78.56    2.33
   6  -5  -5   16.01    1.01
  -6   5   5   17.07    1.04
   7  -5  -6   97.50    2.88
  -7   5   6   94.58    2.94
  -8   5   7   99.53    3.16
  -6  -6   7   -0.13    0.39
   6   6  -7   -0.30    0.35
  -5  -6   6   14.66    1.09
   5   6  -6   14.55    1.07
  -4  -6   5  123.36    3.44
   4   6  -5  123.12    3.41
  -3  -6   4  122.76    3.23
  -3  -6   4  121.18    3.00
  -3  -6   4  120.35    3.13
  -2  -6   3   26.18    1.15
  -2  -6   3   28.03    1.17
  -2  -6   3   26.88    1.14
  -1  -6   2    1.62    0.33
  -1  -6   2    1.55    0.36
   1   6  -2    1.69    0.39
   0  -6   1   17.24    0.82
   0  -6   1   17.08    0.86
   0   6  -1   17.43    0.83
   1  -6   0    0.11    0.19
   1  -6   0    0.26    0.24
  -1   6   0    0.06    0.18
   2  -6  -1   11.66    0.62
   2  -6  -1   10.65    0.67
  -2   6   1   10.74    0.63
   3  -6  -2  360.29    6.99
   3  -6  -2  355.03    6.96
  -3   6   2  351.64    7.19
   4  -6  -3    0.26    0.26
   4  -6  -3    0.09    0.24
  -4   6   3    0.28    0.28
   5  -6  -4  140.37    3.53
  -5   6   4  146.92    3.61
   6  -6  -5   20.81    1.17
  -6   6   5   23.78    1.27
   7  -6  -6   19.49    1.21
  -7   6   6   24.00    1.31
   8  -6  -7   46.03    1.96
  -8   6   7   43.15    1.86
  -4  -7   5   38.46    1.73
   4   7  -5   37.04    1.69
  -3  -7   4    3.10    0.50
  -3  -7   4    3.29    0.55
  -3  -7   4    2.76    0.54
  -2  -7   3  450.87    9.03
  -2  -7   3  459.85    9.03
   2   7  -3  460.94    9.52
  -1  -7   2  485.20    9.36
  -1  -7   2  471.45    9.46
   1   7  -2  504.04    9.85
   0  -7   1  880.65   16.30
   1  -7   0   82.52    2.31
   1  -7   0   81.49    2.14
  -1   7   0   84.55    2.23
   2  -7  -1  276.76    5.93
   2  -7  -1  281.11    5.73
  -2   7   1  299.72    5.97
   3  -7  -2  391.94    7.72
   3  -7  -2  387.51    7.63
  -3   7   2  389.89    7.88
   4  -7  -3  482.43    9.52
   4  -7  -3  494.21    9.69
  -4   7   3  509.27    9.96
   5  -7  -4  239.44    5.31
  -5   7   4  241.03    5.43
   6  -7  -5    4.39    0.65
  -6   7   5    2.57    0.54
   7  -7  -6  113.78    3.26
  -7   7   6  106.97    3.25
  -8   7   7   21.19    1.34
  -3  -8   4   86.23    2.66
  -2  -8   3    5.34    0.62
  -2  -8   3    6.05    0.67
  -1  -8   2  334.61    6.83
  -1  -8   2  328.51    6.93
   0  -8   1   64.96    1.91
   0  -8   1   61.42    2.02
   1  -8   0   16.40    0.83
   1  -8   0   15.40    0.92
  -1   8   0   14.76    0.85
   2  -8  -1  192.16    4.27
   2  -8  -1  189.75    4.44
  -2   8   1  202.88    4.47
   3  -8  -2    0.14    0.25
   3  -8  -2    0.40    0.31
  -3   8   2    0.04    0.29
   4  -8  -3  102.07    2.71
   4  -8  -3   95.73    2.63
  -4   8   3   97.06    2.75
   5  -8  -4   11.16    0.87
  -5   8   4   11.30    0.84
   6  -8  -5   47.53    1.93
  -6   8   5   47.85    1.86
   7  -8  -6   -0.01    0.33
  -7   8   6   -0.17    0.34
   8  -8  -7    0.30    0.41
  -8   8   7   -0.36    0.34
  -2  -9   3   55.53    1.94
  -1  -9   2   15.23    1.03
   0  -9   1  294.05    6.35
   1  -9   0    2.07    0.49
   2  -9  -1   38.12    1.54
   3  -9  -2   25.20    1.20
   3  -9  -2   27.97    1.31
   4  -9  -3  161.70    3.94
   4  -9  -3  156.84    3.97
  -4   9   3  161.72    4.03
   5  -9  -4  154.39    3.99
  -5   9   4  159.47    4.00
   6  -9  -5    0.19    0.35
  -6   9   5   -0.23    0.29
   7  -9  -6  119.79    3.48
  -7   9   6  119.38    3.52
  -2 -10   3   11.81    0.94
  -1 -10   2  223.48    5.23
   0 -10   1  227.66    5.28
   1 -10   0   15.08    1.03
   2 -10  -1   73.27    2.40
   3 -10  -2   19.62    1.17
   4 -10  -3  523.08   10.48
  -1 -11   2  139.52    3.72
   0 -11   1    1.19    0.44
   1 -11   0   68.48    2.40
   2 -11  -1   15.41    1.09
   3 -11  -2    5.49    0.71
   4 -11  -3   32.56    1.51
  -1 -12   2   16.45    1.12
   0 -12   1   35.60    1.61
   1 -12   0    0.61    0.45
   2 -12  -1  112.63    3.29
   3 -12  -2    1.99    0.52
   4 -12  -3  107.04    3.23
   3 -13  -2   47.67    2.00
   3 -12  -5  121.63    3.58
   2 -12  -4    4.65    0.73
   1 -12  -3   44.52    1.90
   0 -12  -2   13.08    1.04
  -5  11   7    2.02    0.60
  -4  11   6   22.16    1.36
   3 -11  -5   29.72    1.55
   2 -11  -4    5.77    0.78
   1 -11  -3   65.67    2.33
   0 -11  -2    8.06    0.87
  -1 -11  -1  116.47    3.40
  -2 -11   0    3.48    0.69
  -6  10   8    1.41    0.56
  -5  10   7   25.61    1.44
  -4  10   6    5.18    0.74
  -3  10   5  173.49    4.52
   3 -10  -5  172.71    4.38
  -2  10   4    2.86    0.60
   2 -10  -4    2.25    0.55
  -1  10   3   35.26    1.67
   1 -10  -3   31.41    1.50
   0  10   2    9.19    0.89
   0 -10  -2    9.81    0.90
  -1 -10  -1    0.07    0.35
  -2 -10   0   70.16    2.46
  -3 -10   1    0.19    0.39
  -6   9   8  104.27    3.18
  -5   9   7   -0.20    0.34
  -4   9   6  119.46    3.45
  -3   9   5  336.93    7.55
   3  -9  -5  352.68    7.40
  -2   9   4   12.72    0.92
   2  -9  -4   15.24    1.00
  -1   9   3  122.49    3.43
   1  -9  -3  124.71    3.38
   0   9   2    0.08    0.36
   0  -9  -2    0.17    0.33
   1   9   1  305.70    6.84
  -1  -9  -1  292.74    6.56
   2   9   0   21.18    1.27
  -2  -9   0   23.04    1.24
   3   9  -1   26.68    1.54
  -3  -9   1   27.98    1.47
  -7   8   9   17.89    1.21
  -6   8   8   53.88    2.07
  -5   8   7   27.80    1.41
  -4   8   6  191.98    4.72
  -3   8   5    9.04    0.83
   3  -8  -5    8.44    0.79
  -2   8   4   24.17    1.19
   2  -8  -4   23.98    1.20
  -1   8   3   69.40    2.23
   1  -8  -3   68.93    2.23
   0   8   2   12.21    0.89
   0  -8  -2   12.03    0.89
   1   8   1  187.26    4.71
  -1  -8  -1  188.60    4.49
   2   8   0   -0.02    0.32
  -2  -8   0    0.15    0.30
   3   8  -1   34.79    1.73
  -3  -8   1   33.33    1.53
   4   8  -2   65.93    2.53
   5   8  -3   25.18    1.59
  -7   7   9    1.57    0.53
  -6   7   8  103.46    3.11
  -5   7   7   34.23    1.48
  -4   7   6   15.16    0.97
  -3   7   5   40.99    1.63
   3  -7  -5   44.92    1.58
  -2   7   4   45.76    1.65
   2  -7  -4   47.32    1.67
   1  -7  -3  662.32   12.50
   0   7   2    6.96    0.68
   0  -7  -2    7.41    0.71
   1   7   1  126.83    3.48
  -1  -7  -1  139.53    3.42
   2   7   0    1.91    0.51
  -2  -7   0    3.05    0.53
   3   7  -1   48.62    2.00
  -3  -7   1   46.78    1.78
  -5  -7   3    0.33    0.39
  -6  -7   4   38.71    1.91
  -7   6   9   53.26    2.12
   7  -6  -9   46.97    1.95
  -6   6   8  160.50    4.11
   6  -6  -8  156.45    4.02
  -5   6   7    5.88    0.68
   5  -6  -7    6.43    0.71
  -4   6   6  434.00    8.94
   4  -6  -6  436.23    8.61
  -3   6   5   32.33    1.34
   3  -6  -5   32.91    1.30
   3  -6  -5   32.99    1.18
   2  -6  -4  534.00    9.71
   2  -6  -4  519.82   10.08
  -1   6   3   54.28    1.73
   1  -6  -3   52.88    1.71
   0   6   2    0.98    0.35
   0  -6  -2    0.90    0.31
   1   6   1  528.02   10.58
  -1  -6  -1  527.51   10.17
   2   6   0  148.24    3.83
  -2  -6   0  145.47    3.54
  -3  -6   1  171.46    4.28
  -3  -6   1  178.79    4.12
  -4  -6   2   66.79    2.28
  -5  -6   3   96.35    3.05
  -6  -6   4   26.15    1.50
  -7   5   9   99.43    3.09
   7  -5  -9   95.92    3.02
  -6   5   8    4.44    0.65
   6  -5  -8    4.46    0.65
  -5   5   7    4.15    0.58
   5  -5  -7    4.62    0.60
  -4   5   6    5.72    0.62
   4  -5  -6    6.03    0.59
  -3   5   5   14.52    0.85
   3  -5  -5   17.27    0.85
   3  -5  -5   15.79    0.76
  -2   5   4  117.57    3.01
   2  -5  -4  126.24    2.64
   2  -5  -4  125.18    2.94
   0   5   2   49.49    1.60
   0  -5  -2   47.05    1.54
   0  -5  -2   50.84    1.15
   1   5   1   71.05    2.17
  -1  -5  -1   75.00    2.08
  -1  -5  -1   74.02    1.69
   2   5   0  160.60    3.41
   2   5   0  157.75    3.97
  -2  -5   0  160.48    3.66
   3   5  -1   29.94    1.19
  -3  -5   1   29.36    1.28
  -3  -5   1   27.49    1.22
   4   5  -2   78.82    2.31
  -4  -5   2   74.09    2.43
  -5  -5   3   46.19    1.90
  -6  -5   4   37.45    1.79
  -7   4   9   12.46    0.98
   7  -4  -9   13.60    1.01
  -6   4   8  281.01    6.41
   6  -4  -8  290.81    6.30
  -5   4   7   84.40    2.51
   5  -4  -7   82.38    2.45
  -4   4   6  347.98    7.21
   4  -4  -6  344.52    6.96
  -3   4   5   72.04    2.04
   3  -4  -5   72.06    1.88
   3  -4  -5   70.60    1.90
  -2   4   4   89.58    2.29
   2  -4  -4   88.85    2.16
   2  -4  -4   87.74    2.03
  -1  -4  -1  427.39    8.16
   2   4   0  165.89    3.48
  -2  -4   0  165.37    3.66
  -2  -4   0  166.89    3.81
   3   4  -1  459.83    8.76
  -3  -4   1  446.57    9.31
  -3  -4   1  461.24    8.76
   4   4  -2    8.70    0.69
  -4  -4   2    9.92    0.87
   5   4  -3  104.77    2.97
  -5  -4   3  114.72    3.33
   6   4  -4   13.41    1.00
  -6  -4   4   16.86    1.15
   7   4  -5   10.09    0.97
  -7  -4   5   11.99    1.13
  -7   3   9   83.53    2.75
   7  -3  -9   83.68    2.69
  -6   3   8   96.62    2.85
   6  -3  -8   96.19    2.89
  -5   3   7  205.86    4.87
   5  -3  -7  209.06    4.74
  -4   3   6   80.94    2.28
   4  -3  -6   80.89    2.24
  -3   3   5   23.16    0.98
   3  -3  -5   22.59    0.82
   3  -3  -5   21.38    0.93
   2  -3  -4  281.94    5.42
  -1   3   3   55.03    1.53
   1  -3  -3   56.65    1.49
   1  -3  -3   56.55    1.23
   1   3   1  216.27    4.55
  -1  -3  -1  209.36    4.28
   2   3   0    9.75    0.53
  -2  -3   0   10.05    0.57
  -2  -3   0    9.65    0.63
   3   3  -1   60.38    1.71
  -3  -3   1   58.78    1.64
  -3  -3   1   63.91    1.97
   4   3  -2    0.26    0.28
  -4  -3   2    0.49    0.33
   5   3  -3   44.37    1.70
  -5  -3   3   47.91    1.84
   6   3  -4   18.95    1.12
  -6  -3   4   18.97    1.19
   7   3  -5   49.76    2.00
  -7  -3   5   49.94    2.15
  -7   2   9   93.09    2.89
   7  -2  -9   84.46    2.79
  -6   2   8    0.74    0.37
   6  -2  -8    1.02    0.39
  -5   2   7   25.66    1.25
   5  -2  -7   25.74    1.23
  -4   2   6  247.42    5.33
   4  -2  -6  238.18    5.14
   3  -2  -5  476.27    9.01
  -2   2   4  123.06    2.78
   2  -2  -4  119.18    2.61
   2  -2  -4  121.37    2.51
   2   2   0  173.54    3.55
  -2  -2   0  179.02    3.59
  -2  -2   0  178.76    3.87
   3   2  -1  137.95    3.10
  -3  -2   1  134.92    3.29
  -3  -2   1  139.44    2.91
   4   2  -2   16.27    0.86
  -4  -2   2   18.29    0.96
   5   2  -3   86.34    2.55
  -5  -2   3   90.91    2.72
   6   2  -4    6.56    0.72
  -6  -2   4    6.79    0.80
   7   2  -5    1.89    0.52
  -7  -2   5    2.31    0.56
   8   2  -6   42.11    1.89
  -7   1   9   54.10    2.11
   7  -1  -9   51.59    2.04
  -6   1   8    3.41    0.58
   6  -1  -8    3.19    0.59
  -5   1   7  293.58    6.43
   5  -1  -7  289.40    6.23
  -4   1   6  289.63    6.80
   4  -1  -6  364.01    6.50
  -3   1   5  118.94    2.87
   3  -1  -5  116.06    2.81
   3  -1  -5  125.90    2.40
   2  -1  -4  282.95    5.48
   1  -1  -3  293.01    5.39
   1   1   1  153.68    2.88
  -1  -1  -1  152.92    3.01
  -1  -1  -1  155.75    3.19
   3   1  -1  199.76    4.13
  -3  -1   1  200.72    4.34
  -3  -1   1  201.25    3.85
   4   1  -2    0.21    0.23
  -4  -1   2    0.01    0.23
   5   1  -3  127.91    3.26
  -5  -1   3  128.75    3.43
   6   1  -4   51.99    1.91
  -6  -1   4   52.33    1.99
   7   1  -5   96.52    3.00
  -7  -1   5   96.84    2.98
   8   1  -6    3.26    0.66
  -8  -1   6    3.86    0.74
  -7   0   9   48.44    1.99
   7   0  -9   48.47    1.98
  -6   0   8    1.32    0.44
   6   0  -8    2.48    0.55
   5   0  -7  715.63   13.44
  -4   0   6  215.95    4.84
   4   0  -6  214.81    4.74
  -3   0   5  241.94    5.05
   3   0  -5  229.59    4.93
   3   0  -5  238.82    4.37
  -2   0   4    5.79    0.43
   2   0  -4    5.72    0.31
   1   0   1   64.95    1.37
  -1   0  -1   66.33    1.40
  -1   0  -1   67.17    1.51
   3   0  -1  360.12    6.89
   4   0  -2   35.04    1.28
  -4   0   2   35.59    1.33
   5   0  -3   37.56    1.48
  -5   0   3   36.52    1.48
   6   0  -4   48.64    1.83
  -6   0   4   50.51    1.93
   7   0  -5    0.53    0.37
  -7   0   5    0.10    0.37
   8   0  -6   32.63    1.58
  -8   0   6   34.75    1.70
  -7  -1   9    4.32    0.71
   7   1  -9    4.41    0.70
  -6  -1   8    1.44    0.46
   6   1  -8    1.71    0.49
  -5  -1   7    1.02    0.38
   5   1  -7    0.22    0.30
  -4  -1   6   72.96    2.18
   4   1  -6   68.45    2.14
  -3  -1   5    9.66    0.63
   3   1  -5   10.22    0.44
   3   1  -5    9.21    0.66
  -2  -1   4  297.96    5.84
  -2  -1   4  301.61    5.95
   1  -1   1   39.64    0.96
  -1   1  -1   38.65    0.91
  -1   1  -1   39.03    0.90
   2  -1   0    6.90    0.42
  -2   1   0    6.26    0.29
  -2   1   0    6.30    0.40
  -3   1   1  516.47    9.94
   4  -1  -2   45.43    1.48
  -4   1   2   45.82    1.54
   5  -1  -3   43.44    1.58
  -5   1   3   46.48    1.65
   6  -1  -4  117.78    3.22
  -6   1   4  117.27    3.28
   7  -1  -5   98.82    2.93
  -7   1   5  101.08    3.01
   8  -1  -6    0.56    0.39
  -8   1   6    0.57    0.40
   7   2  -9   88.28    2.88
  -6  -2   8   -0.31    0.30
   6   2  -8    0.28    0.34
  -5  -2   7  282.09    6.34
   5   2  -7  283.38    6.20
  -4  -2   6    9.31    0.70
   4   2  -6    9.09    0.80
  -2  -2   4  514.32    9.62
  -1  -2   3  107.98    2.27
  -1  -2   3  104.44    2.33
   1   2  -3  106.30    2.25
   3  -2  -1  173.64    3.72
  -3   2   1  179.63    3.35
  -3   2   1  179.16    3.83
   4  -2  -2  362.76    6.99
  -4   2   2  347.15    7.21
   5  -2  -3  108.37    2.87
  -5   2   3  111.72    2.95
   6  -2  -4   22.38    1.15
  -6   2   4   21.12    1.15
   7  -2  -5   81.48    2.61
  -7   2   5   85.33    2.70
   8  -2  -6    0.32    0.34
  -8   2   6    0.23    0.37
  -7  -3   9    8.56    0.91
   7   3  -9    8.99    0.92
  -6  -3   8   15.05    1.12
   6   3  -8   18.54    1.20
  -5  -3   7  151.39    4.00
   5   3  -7  153.06    3.94
  -4  -3   6   36.81    1.51
   4   3  -6   39.89    1.54
  -3  -3   5  432.91    8.71
  -3  -3   5  424.80    8.46
   3   3  -5  433.86    8.09
  -2  -3   4  124.61    2.92
  -2  -3   4  126.92    2.95
   2   3  -4  127.39    2.77
  -1  -3   3  266.89    5.25
   1   3  -3  272.89    5.25
   0  -3   2   80.82    1.89
   0   3  -2   82.13    1.94
   0   3  -2   83.03    1.74
   2  -3   0   28.43    0.97
  -2   3   0   29.14    0.86
  -2   3   0   30.20    0.91
   3  -3  -1  128.24    2.95
  -3   3   1  130.94    2.66
  -3   3   1  132.14    2.98
   4  -3  -2   87.94    2.33
  -4   3   2   90.56    1.87
  -4   3   2   84.77    2.32
   5  -3  -3   16.91    0.97
  -5   3   3   16.58    0.94
   6  -3  -4  215.73    4.99
  -6   3   4  223.09    5.13
   7  -3  -5    8.08    0.82
  -7   3   5    9.21    0.86
   8  -3  -6    0.36    0.38
  -8   3   6    0.86    0.47
  -7  -4   9   22.85    1.44
  -6  -4   8   69.57    2.58
   6   4  -8   72.73    2.50
  -5  -4   7   29.67    1.45
   5   4  -7   28.79    1.40
  -4  -4   6    6.52    0.69
   4   4  -6    7.65    0.73
  -3  -4   5   32.60    1.32
  -3  -4   5   32.95    1.31
   3   4  -5   36.06    1.21
  -2  -4   4    8.42    0.61
  -2  -4   4    8.00    0.55
   2   4  -4    7.79    0.56
  -1  -4   3   16.62    0.66
  -1  -4   3   15.58    0.75
   0  -4   2  189.56    3.91
   0  -4   2  189.62    3.94
   0   4  -2  200.19    3.88
   2  -4   0  305.14    5.86
  -2   4   0  302.30    5.88
   3  -4  -1    0.25    0.22
  -3   4   1    0.24    0.20
  -3   4   1    0.21    0.21
   4  -4  -2  115.38    2.84
  -4   4   2  111.21    2.45
  -4   4   2  112.56    2.83
   5  -4  -3    9.56    0.71
  -5   4   3    8.41    0.72
   6  -4  -4   51.67    1.88
  -6   4   4   54.56    1.94
   7  -4  -5   -0.03    0.30
  -7   4   5   -0.15    0.28
   8  -4  -6   13.68    1.02
  -8   4   6   12.31    1.06
  -6  -5   8   14.93    1.17
   6   5  -8   17.44    1.16
  -5  -5   7  124.82    3.61
   5   5  -7  125.78    3.53
  -4  -5   6   60.44    2.11
  -3  -5   5  278.43    5.96
  -3  -5   5  273.01    6.08
   3   5  -5  285.82    5.80
  -2  -5   4    3.51    0.45
  -2  -5   4    3.28    0.46
   2   5  -4    2.38    0.40
   0  -5   2  321.37    6.41
   0  -5   2  325.86    6.35
   0   5  -2  331.75    6.40
   1  -5   1   34.70    1.16
   1  -5   1   34.58    1.10
  -1   5  -1   34.15    0.99
   2  -5   0   53.95    1.54
   2  -5   0   55.56    1.55
  -2   5   0   58.10    1.47
   3  -5  -1   69.37    1.91
  -3   5   1   74.06    1.92
  -4   5   2  617.19   11.92
   5  -5  -3   11.99    0.82
  -5   5   3   11.99    0.82
   6  -5  -4  142.68    3.61
  -6   5   4  139.50    3.69
   7  -5  -5   14.27    0.99
  -7   5   5   13.29    0.95
   8  -5  -6   47.79    1.96
  -8   5   6   48.74    2.02
   6   6  -8  140.62    3.95
   5   6  -7    1.17    0.45
  -4  -6   6   53.65    2.04
  -3  -6   5   25.39    1.24
  -3  -6   5   26.04    1.23
   3   6  -5   25.98    1.22
  -2  -6   4   25.13    1.12
  -2  -6   4   26.28    1.12
  -1  -6   3  793.55   14.64
   0  -6   2    0.82    0.29
   0  -6   2    0.94    0.32
   0   6  -2    0.82    0.28
   1  -6   1    5.76    0.53
   1  -6   1    6.47    0.51
  -1   6  -1    5.37    0.41
   2  -6   0  173.93    3.84
   2  -6   0  179.11    3.81
  -2   6   0  174.89    3.73
   3  -6  -1  361.53    7.12
   3  -6  -1  368.93    7.13
  -3   6   1  360.14    7.24
   4  -6  -2   22.62    1.04
  -4   6   2   20.88    0.96
  -4   6   2   20.65    0.96
   5  -6  -3   18.23    1.02
  -5   6   3   19.67    1.02
   6  -6  -4    1.09    0.40
  -6   6   4    0.65    0.36
   7  -6  -5   16.05    1.10
  -7   6   5   16.48    1.09
   8  -6  -6  152.40    4.05
  -8   6   6  142.65    4.08
   5   7  -7   38.94    1.78
  -3  -7   5  106.30    3.02
  -2  -7   4    2.23    0.47
  -1  -7   3  385.98    7.68
  -1  -7   3  384.48    7.73
   0  -7   2   51.95    1.61
   0  -7   2   51.13    1.70
   1  -7   1   52.94    1.72
   1  -7   1   51.29    1.60
  -1   7  -1   51.69    1.56
   2  -7   0    0.83    0.28
   2  -7   0    0.42    0.26
  -2   7   0    0.59    0.26
   3  -7  -1    4.69    0.52
   3  -7  -1    4.29    0.50
  -3   7   1    3.92    0.46
   4  -7  -2  632.52   12.35
  -4   7   2  675.40   12.69
   5  -7  -3    0.88    0.34
  -5   7   3   -0.23    0.22
   6  -7  -4   39.64    1.63
  -6   7   4   38.52    1.64
   7  -7  -5    4.74    0.73
  -7   7   5    5.94    0.77
   8  -7  -6   25.01    1.42
  -8   7   6   25.38    1.41
  -3  -8   5    7.33    0.78
  -2  -8   4    3.53    0.57
  -1  -8   3   91.09    2.52
  -1  -8   3   91.63    2.60
   0  -8   2    0.80    0.33
   0  -8   2    0.75    0.36
   1  -8   1  263.45    5.64
   1  -8   1  260.06    5.48
   2  -8   0   84.28    2.39
   2  -8   0   82.60    2.30
   3  -8  -1   41.32    1.52
   3  -8  -1   43.31    1.52
   4  -8  -2    7.02    0.68
  -4   8   2    8.32    0.65
   5  -8  -3    9.53    0.81
  -5   8   3    9.58    0.83
   6  -8  -4   30.20    1.44
  -6   8   4   27.13    1.34
   7  -8  -5    0.28    0.37
  -7   8   5    0.09    0.36
   8  -8  -6   35.42    1.68
  -8   8   6   36.27    1.78
  -2  -9   4   69.63    2.35
   2   9  -4   71.98    2.43
  -1  -9   3   17.38    1.03
  -1  -9   3   15.53    0.99
   0  -9   2  141.81    3.56
   0  -9   2  141.04    3.50
   1  -9   1    4.06    0.54
   1  -9   1    3.61    0.56
   2  -9   0   70.50    2.19
   2  -9   0   64.50    2.01
   3  -9  -1   45.69    1.65
   3  -9  -1   49.47    1.74
   4  -9  -2   11.67    0.83
   5  -9  -3   97.39    2.92
   6  -9  -4   77.43    2.52
   7  -9  -5    5.78    0.83
   2  10  -4    6.96    0.87
   0 -10   2   46.64    1.82
   1 -10   1   21.34    1.13
   2 -10   0   15.71    0.97
   3 -10  -1   43.68    1.73
   2  11  -4   66.53    2.46
   0 -11   2  109.58    3.11
   1 -11   1   76.66    2.51
   2 -11   0   31.00    1.48
   3 -11  -1  145.67    3.79
   1  12  -3    6.31    0.88
   1 -12   1    2.34    0.54
   2 -12   0   47.03    1.87
  -4  12   2    0.67    0.46
  -3  13   1   65.54    2.50
  -4  13   2   30.13    1.65
   3 -12  -6    2.10    0.62
   2 -12  -5   66.53    2.45
  -5  11   8   -0.09    0.39
  -4  11   7   15.14    1.14
  -3  11   6    6.40    0.87
   3 -11  -6    7.86    0.88
  -2  11   5  101.32    3.22
   2 -11  -5  103.62    3.15
  -1  11   4    0.97    0.48
   1 -11  -4    1.12    0.46
   0 -11  -3   73.59    2.55
  -1 -11  -2    1.16    0.45
  -2 -11  -1    1.73    0.55
  -5  10   8   35.90    1.73
  -4  10   7   13.34    1.05
  -3  10   6  190.96    4.96
   3 -10  -6  198.81    4.86
  -2  10   5   50.15    2.01
   2 -10  -5   45.57    1.89
  -1  10   4   15.16    1.06
   1 -10  -4   12.96    1.01
   0  10   3  164.57    4.40
   0 -10  -3  162.67    4.22
   1  10   2   55.33    2.23
  -1 -10  -2   58.54    2.17
   2  10   1  328.53    7.70
  -2 -10  -1  340.69    7.42
  -6   9   9    3.03    0.65
  -5   9   8    1.55    0.50
  -4   9   7   59.03    2.16
  -3   9   6   84.86    2.70
   3  -9  -6   78.40    2.55
  -2   9   5  121.16    3.38
   2  -9  -5  116.68    3.32
  -1   9   4    1.86    0.52
   1  -9  -4    2.83    0.57
   0   9   3   23.79    1.32
   0  -9  -3   24.50    1.29
   1   9   2    0.06    0.32
  -1  -9  -2   -0.05    0.30
   2   9   1    0.88    0.45
  -2  -9  -1    0.54    0.41
   3   9   0   32.15    1.68
  -3  -9   0   32.11    1.55
   4   9  -1    4.40    0.79
  -6   8   9   53.67    2.08
  -5   8   8   42.11    1.83
  -4   8   7    4.25    0.67
  -3   8   6   27.73    1.37
   3  -8  -6   27.68    1.36
  -2   8   5   42.59    1.67
   2  -8  -5   41.28    1.61
  -1   8   4   24.33    1.23
   1  -8  -4   25.97    1.29
   0   8   3   45.12    1.83
   0  -8  -3   47.59    1.76
   1   8   2    2.74    0.59
  -1  -8  -2    3.55    0.58
   2   8   1  397.44    8.80
  -2  -8  -1  415.30    8.44
   3   8   0    0.75    0.44
  -3  -8   0    0.79    0.40
   4   8  -1    0.54    0.49
   5   8  -2   14.98    1.36
  -7   7  10    0.35    0.40
  -6   7   9    6.86    0.83
  -5   7   8  144.17    3.86
  -4   7   7   14.17    0.94
  -3   7   6   50.39    1.84
   3  -7  -6   52.96    1.84
  -2   7   5   12.73    0.86
   2  -7  -5   12.44    0.85
  -1   7   4  146.51    3.69
   1  -7  -4  146.15    3.67
   0   7   3    6.37    0.68
   0  -7  -3    6.62    0.68
   1   7   2   13.66    0.98
  -1  -7  -2   15.38    0.96
   2   7   1  105.74    3.17
  -2  -7  -1  107.82    2.99
   3   7   0    3.70    0.69
  -3  -7   0    4.70    0.65
   4   7  -1  171.35    4.77
  -5  -7   2    2.34    0.62
  -6   6   9   19.51    1.19
   6  -6  -9   23.02    1.29
  -5   6   8  182.90    4.54
   5  -6  -8  182.32    4.37
  -4   6   7   33.14    1.44
  -3   6   6  356.31    7.51
   3  -6  -6  354.83    7.21
  -2   6   5  159.92    3.90
   2  -6  -5  164.27    3.82
  -1   6   4   20.08    1.01
   1  -6  -4   18.80    0.98
   0   6   3  729.61   13.90
   0  -6  -3  698.37   13.41
   1   6   2  173.98    4.26
  -1  -6  -2  177.40    4.09
   2   6   1  121.58    3.33
  -2  -6  -1  119.08    3.11
   3   6   0  105.71    3.23
  -3  -6   0  107.54    2.92
  -4  -6   1   61.61    2.23
  -5  -6   2   28.15    1.48
  -6  -6   3   34.38    1.76
  -7   5  10   37.83    1.77
   7  -5 -10   41.04    1.81
  -6   5   9   27.95    1.41
   6  -5  -9   29.65    1.48
  -5   5   8  146.81    3.79
   5  -5  -8  143.42    3.70
  -4   5   7    1.71    0.43
   4  -5  -7    3.20    0.49
  -3   5   6  565.26   11.08
   3  -5  -6  556.68   10.61
  -2   5   5   13.17    0.80
   2  -5  -5   13.76    0.62
   2  -5  -5   12.67    0.75
  -1   5   4  150.86    3.57
   1  -5  -4  150.24    3.45
   0   5   3   24.67    1.12
   0  -5  -3   24.45    1.06
   1   5   2   34.89    1.39
  -1  -5  -2   33.63    1.27
   2   5   1  411.90    8.64
  -2  -5  -1  405.87    8.10
  -3  -5   0   85.82    2.43
  -3  -5   0   87.30    2.59
  -4  -5   1  363.10    7.47
  -4  -5   1  364.74    7.91
  -5  -5   2    7.71    0.86
  -7   4  10    9.51    0.93
   7  -4 -10   10.23    0.96
  -6   4   9  229.47    5.47
   6  -4  -9  228.75    5.39
  -5   4   8   11.29    0.83
   5  -4  -8   11.74    0.84
  -4   4   7   46.18    1.69
   4  -4  -7   49.94    1.66
  -3   4   6  174.82    4.04
   3  -4  -6  175.18    3.80
   3  -4  -6  172.74    3.74
  -2   4   5   20.04    0.96
   2  -4  -5   23.31    0.81
   2  -4  -5   21.67    0.92
  -1   4   4  367.49    7.40
   1  -4  -4  365.45    7.14
   0   4   3    8.61    0.62
   0  -4  -3    8.89    0.59
   1   4   2  365.72    6.49
   1   4   2  354.84    7.39
  -1  -4  -2  355.89    7.05
   2   4   1  103.55    2.30
  -2  -4  -1  100.21    2.56
   3   4   0  157.35    3.45
  -3  -4   0  150.99    3.78
  -3  -4   0  154.46    3.57
   4   4  -1  134.49    3.28
  -4  -4   1  133.52    3.23
  -4  -4   1  131.37    3.61
   5   4  -2   16.70    1.03
  -5  -4   2   16.53    1.09
  -6  -4   3   55.73    2.21
  -7  -4   4   16.64    1.23
  -7   3  10    0.50    0.39
   7  -3 -10    0.51    0.41
  -6   3   9    7.14    0.79
   6  -3  -9    6.22    0.74
  -5   3   8  414.09    8.54
   5  -3  -8  405.94    8.35
  -4   3   7   14.25    0.83
   4  -3  -7   12.89    0.81
  -3   3   6   34.73    1.30
   3  -3  -6   37.20    1.18
   3  -3  -6   37.72    1.30
  -2   3   5  395.32    7.90
  -1   3   4  336.47    6.71
   1  -3  -4  333.08    6.42
   1   3   2   15.65    0.84
   1   3   2   15.69    0.45
  -1  -3  -2   16.28    0.76
   2   3   1  131.37    2.69
  -2  -3  -1  127.51    2.92
  -2  -3  -1  122.93    3.05
   3   3   0   97.24    2.36
  -3  -3   0   90.84    2.32
  -3  -3   0   93.22    2.62
   4   3  -1  241.87    5.13
  -4  -3   1  243.75    4.96
  -4  -3   1  231.90    5.45
   5   3  -2   15.60    0.98
  -5  -3   2   15.37    1.04
   6   3  -3   83.06    2.63
  -6  -3   3   85.12    2.79
   7   3  -4    6.99    0.86
  -7  -3   4    6.64    0.87
  -7   2  10   25.23    1.39
   7  -2 -10   26.82    1.43
  -6   2   9   29.76    1.44
   6  -2  -9   29.56    1.45
  -5   2   8   41.67    1.61
   5  -2  -8   39.43    1.57
  -4   2   7  310.43    6.80
   4  -2  -7  336.75    6.65
  -3   2   6   56.43    1.73
   3  -2  -6   52.92    1.57
   3  -2  -6   60.00    1.48
  -2   2   5  163.59    3.69
   2  -2  -5  170.50    3.49
   2  -2  -5  166.57    3.42
   0   2   3   25.99    0.93
   0  -2  -3   24.81    0.86
   2   2   1   54.80    1.34
  -2  -2  -1   51.35    1.59
  -2  -2  -1   53.02    1.46
   3   2   0    6.50    0.49
  -3  -2   0    7.32    0.49
  -3  -2   0    7.42    0.61
   4   2  -1   50.33    1.61
  -4  -2   1   48.20    1.78
  -4  -2   1   49.20    1.44
   5   2  -2  121.19    3.14
  -5  -2   2  119.29    3.31
   6   2  -3  136.93    3.63
  -6  -2   3  137.95    3.87
   7   2  -4   85.11    2.73
  -7  -2   4   87.89    2.90
   8   2  -5   34.75    1.68
  -7   1  10   52.84    2.08
   7  -1 -10   51.27    2.07
  -6   1   9   76.17    2.53
   6  -1  -9   77.40    2.49
  -5   1   8   13.49    0.90
   5  -1  -8   13.33    0.92
  -4   1   7  396.40    8.02
   4  -1  -7  381.20    7.82
  -3   1   6    0.30    0.23
   3  -1  -6    1.46    0.33
   3  -1  -6    1.28    0.24
  -1   1   4  276.27    5.13
  -1   1   4  264.02    5.40
   1  -1  -4  281.15    5.19
   0  -1  -3  288.73    5.43
   2   1   1   39.31    1.07
  -2  -1  -1   38.75    1.27
  -2  -1  -1   39.87    1.10
   3   1   0  351.31    6.79
  -3  -1   0  357.21    7.21
  -3  -1   0  352.90    6.64
   4   1  -1   14.46    0.79
  -4  -1   1   13.64    0.86
  -4  -1   1   15.18    0.60
   5   1  -2  367.43    7.43
  -5  -1   2  358.98    7.71
   6   1  -3    6.46    0.72
  -6  -1   3    5.09    0.68
   7   1  -4   13.70    1.02
  -7  -1   4   14.94    1.12
   8   1  -5   39.65    1.80
  -8  -1   5   38.95    1.84
  -7   0  10    3.80    0.66
   7   0 -10    2.56    0.60
  -6   0   9   82.92    2.72
   6   0  -9   86.26    2.72
  -5   0   8   36.22    1.54
   5   0  -8   36.11    1.54
  -4   0   7   16.82    0.93
   4   0  -7   17.12    0.96
  -3   0   6  415.98    8.33
   3   0  -6  417.93    8.15
  -2   0   5  379.82    7.24
   1   0   2   10.04    0.40
  -1   0  -2    9.40    0.45
  -1   0  -2    9.50    0.46
   2   0   1   56.03    1.39
  -2   0  -1   56.31    1.51
  -2   0  -1   57.20    1.34
   4   0  -1   62.47    1.85
  -4   0   1   59.16    1.88
  -4   0   1   63.09    1.46
   5   0  -2  147.58    3.50
  -5   0   2  141.94    3.64
   6   0  -3   26.70    1.29
  -6   0   3   27.27    1.39
   7   0  -4   -0.24    0.27
  -7   0   4    0.40    0.38
   8   0  -5  101.47    3.15
  -8   0   5   96.78    3.14
  -7  -1  10    0.34    0.38
   7   1 -10    0.11    0.38
  -6  -1   9   74.39    2.47
   6   1  -9   67.24    2.22
  -5  -1   8  113.44    3.15
   5   1  -8  113.94    3.14
  -3  -1   6  276.22    5.88
   3   1  -6  284.93    5.30
  -2  -1   5  239.15    4.84
  -2  -1   5  235.61    4.81
  -1  -1   4    0.05    0.18
  -1  -1   4    0.03    0.15
   1   1  -4    0.09    0.16
   2  -1   1   20.71    0.73
  -2   1  -1   20.27    0.75
  -2   1  -1   20.63    0.66
   3  -1   0   28.17    0.99
  -3   1   0   26.04    1.00
  -3   1   0   29.03    0.81
   4  -1  -1   11.12    0.67
  -4   1   1   11.76    0.45
  -4   1   1   10.41    0.68
   6  -1  -3  377.05    7.77
  -6   1   3  377.84    8.05
   7  -1  -4   46.27    1.83
  -7   1   4   48.60    1.90
   8  -1  -5    0.48    0.40
  -8   1   5    0.55    0.47
  -7  -2  10   79.87    2.77
   7   2 -10   75.30    2.63
  -6  -2   9    1.65    0.47
   6   2  -9    2.45    0.59
  -5  -2   8    7.51    0.76
   5   2  -8    9.10    0.86
  -4  -2   7    9.23    0.73
   4   2  -7    9.48    0.75
  -3  -2   6   40.34    1.41
  -3  -2   6   40.62    1.45
   3   2  -6   42.99    1.19
  -2  -2   5   69.48    1.91
  -2  -2   5   68.88    1.79
   2   2  -5   69.85    1.68
   0   2  -3  255.53    4.89
   1  -2   2  122.51    2.59
  -1   2  -2  127.53    2.58
   2  -2   1  113.80    2.48
  -2   2  -1  114.65    2.41
  -2   2  -1  110.94    2.34
   3  -2   0  224.00    4.54
  -3   2   0  223.46    4.22
  -3   2   0  223.36    4.64
   4  -2  -1   -0.07    0.19
  -4   2   1   -0.02    0.20
  -4   2   1    0.25    0.14
   5  -2  -2   65.00    2.02
  -5   2   2   65.54    2.06
   6  -2  -3  152.13    3.80
  -6   2   3  152.09    3.89
   7  -2  -4   34.38    1.54
  -7   2   4   34.14    1.56
   8  -2  -5    5.22    0.75
  -8   2   5    4.76    0.77
  -7  -3  10   20.83    1.36
  -6  -3   9  211.39    5.32
   6   3  -9  208.32    5.11
  -5  -3   8    3.70    0.60
   5   3  -8    4.70    0.68
  -4  -3   7   91.46    2.65
   4   3  -7   90.92    2.62
  -3  -3   6   13.01    0.82
  -3  -3   6   12.87    0.77
   3   3  -6   14.01    0.68
   0  -3   3  182.88    3.72
   0   3  -3  183.11    3.73
   1  -3   2   33.79    1.04
  -1   3  -2   35.11    1.05
   2  -3   1   19.93    0.77
  -2   3  -1   19.88    0.74
  -2   3  -1   20.58    0.66
   4  -3  -1   67.32    1.93
  -4   3   1   67.76    1.56
  -4   3   1   63.32    1.89
   5  -3  -2  255.19    5.41
  -5   3   2  249.66    5.52
   6  -3  -3   14.30    0.94
  -6   3   3   15.48    0.98
   7  -3  -4   19.73    1.16
  -7   3   4   18.94    1.16
   8  -3  -5  102.33    3.09
  -8   3   5  104.34    3.20
  -6  -4   9    3.75    0.73
   6   4  -9    3.71    0.67
  -5  -4   8   18.78    1.18
   5   4  -8   16.27    1.09
  -4  -4   7   57.15    1.99
  -3  -4   6    3.38    0.52
  -3  -4   6    2.92    0.46
   3   4  -6    2.52    0.41
  -2  -4   5  169.42    3.89
  -2  -4   5  171.91    3.77
   2   4  -5  169.68    3.68
  -1  -4   4    0.29    0.17
  -1  -4   4    0.29    0.22
   1   4  -4    0.10    0.22
   1  -4   2  212.20    4.22
  -1   4  -2  207.15    3.97
  -1   4  -2  211.42    4.31
   2  -4   1  105.64    2.46
  -2   4  -1  111.31    2.29
  -2   4  -1  104.91    2.43
   3  -4   0   -0.08    0.18
  -3   4   0    0.21    0.21
  -3   4   0    0.19    0.18
   4  -4  -1   74.71    2.09
  -4   4   1   73.38    2.09
  -4   4   1   79.07    1.86
   5  -4  -2  225.95    4.97
  -5   4   2  220.35    5.02
   6  -4  -3    0.76    0.35
  -6   4   3    0.92    0.37
   7  -4  -4   31.52    1.49
  -7   4   4   29.87    1.47
   8  -4  -5    8.67    0.88
  -8   4   5   13.41    1.06
   6   5  -9    1.81    0.55
  -5  -5   8   68.98    2.43
   5   5  -8   67.22    2.42
  -4  -5   7    9.86    0.85
  -4  -5   7   10.62    0.83
  -3  -5   6  257.30    5.70
  -3  -5   6  257.91    5.58
  -2  -5   5   23.72    1.08
  -2  -5   5   23.90    1.00
   2   5  -5   22.97    1.02
  -1  -5   4   56.87    1.70
  -1  -5   4   57.22    1.52
   1   5  -4   55.40    1.68
   0  -5   3   14.31    0.74
   0   5  -3   13.00    0.74
   0   5  -3   14.91    0.59
   1  -5   2   18.35    0.79
  -1   5  -2   18.77    0.59
  -1   5  -2   18.20    0.86
   3  -5   0  268.69    5.37
  -3   5   0  261.73    5.29
  -3   5   0  258.52    5.32
   4  -5  -1    0.16    0.21
  -4   5   1    0.26    0.21
  -4   5   1    0.16    0.23
   5  -5  -2   10.01    0.74
  -5   5   2   10.62    0.76
   6  -5  -3   27.98    1.34
  -6   5   3   29.59    1.35
   7  -5  -4   -0.08    0.31
  -7   5   4   -0.07    0.31
   8  -5  -5    6.65    0.80
  -8   5   5    6.84    0.84
   6   6  -9    7.06    0.88
   5   6  -8   58.58    2.25
  -4  -6   7   27.32    1.38
  -3  -6   6    9.30    0.83
  -2  -6   5  431.41    8.54
  -2  -6   5  412.24    8.44
   2   6  -5  429.60    8.41
  -1  -6   4   19.77    0.96
   1   6  -4   21.27    1.04
   0  -6   3  403.53    7.90
   0   6  -3  404.71    8.04
   1  -6   2   32.17    1.15
  -1   6  -2   33.48    1.28
  -1   6  -2   32.24    0.95
   2  -6   1  143.69    3.29
  -2   6  -1  146.54    3.44
  -2   6  -1  148.05    3.10
   3  -6   0   99.17    2.54
  -3   6   0  103.82    2.62
  -3   6   0  104.17    2.47
   4  -6  -1   10.75    0.76
  -4   6   1   12.16    0.73
  -4   6   1   10.63    0.68
   5  -6  -2  132.40    3.30
  -5   6   2  127.59    3.24
   6  -6  -3    0.23    0.31
  -6   6   3    0.55    0.34
   7  -6  -4  235.84    5.52
  -7   6   4  244.14    5.68
   8  -6  -5    0.72    0.44
  -8   6   5    0.46    0.40
  -4  -7   7    5.40    0.74
  -3  -7   6   42.81    1.70
  -2  -7   5  191.07    4.51
   2   7  -5  196.66    4.50
  -1  -7   4  401.46    8.00
   1   7  -4  404.89    8.14
   0  -7   3  331.50    6.62
   0   7  -3  322.24    6.79
   1  -7   2   13.56    0.78
   2  -7   1  126.85    3.07
  -2   7  -1  130.97    3.26
   3  -7   0    2.02    0.41
  -3   7   0    2.22    0.44
   4  -7  -1  582.92   11.28
  -4   7   1  575.50   11.23
  -4   7   1  603.12   11.49
   5  -7  -2   10.17    0.79
  -5   7   2   10.26    0.75
   6  -7  -3    3.09    0.58
  -6   7   3    2.24    0.51
   7  -7  -4    9.11    0.90
  -7   7   4    9.02    0.91
   8  -7  -5   11.02    1.01
  -8   7   5    9.97    0.99
   5   8  -8    4.85    0.82
  -4  -8   7    4.48    0.69
  -3  -8   6   92.86    2.75
  -2  -8   5   68.10    2.22
   2   8  -5   64.08    2.17
  -1  -8   4   50.07    1.75
   1   8  -4   49.55    1.86
   0  -8   3  295.31    6.18
   0   8  -3  298.61    6.42
   1  -8   2   82.08    2.28
   2  -8   1    0.81    0.32
   3  -8   0  209.66    4.62
  -3   8   0  203.36    4.73
   4  -8  -1   25.15    1.17
  -4   8   1   22.93    1.16
   5  -8  -2   96.76    2.79
   6  -8  -3   25.87    1.38
   7  -8  -4   78.73    2.65
   8  -8  -5   14.01    1.16
  -3  -9   6  148.37    4.03
  -2  -9   5   22.80    1.25
   2   9  -5   22.35    1.25
  -1  -9   4    5.18    0.68
   1   9  -4    7.48    0.79
   0  -9   3   88.15    2.53
   0   9  -3   83.56    2.64
   1  -9   2   -0.31    0.23
   2  -9   1  431.31    8.55
   3  -9   0   11.03    0.79
  -3   9   0   10.97    0.85
   4  -9  -1   -0.34    0.25
  -4   9   1    0.29    0.34
   5  -9  -2   38.98    1.60
   6  -9  -3   57.05    2.11
   7  -9  -4  127.03    3.59
   2  10  -5   18.30    1.21
   1  10  -4  198.30    4.88
   0 -10   3   19.34    1.10
   0  10  -3   21.88    1.25
   1 -10   2   25.03    1.29
  -1  10  -2   24.00    1.32
   2 -10   1    1.18    0.42
  -2  10  -1    0.78    0.42
   3 -10   0    0.87    0.39
  -3  10   0    0.67    0.44
   4 -10  -1   61.20    2.09
  -4  10   1   61.88    2.20
   5 -10  -2    1.02    0.45
   6 -10  -3   43.97    1.83
   7 -10  -4   50.46    2.07
   2  11  -5    0.39    0.41
   1  11  -4    7.60    0.89
   0  11  -3    4.45    0.72
  -1  11  -2   25.67    1.40
  -2  11  -1   65.45    2.34
  -3  11   0   16.23    1.13
  -4  11   1    7.04    0.84
   1  12  -4  206.26    5.25
   0  12  -3   18.89    1.27
  -1  12  -2   74.75    2.64
  -2  12  -1   93.54    3.03
  -3  12   0   39.45    1.80
  -4  12   1  154.78    4.19
  -3  13   0   76.33    2.70
  -4  13   1   -0.40    0.36
  -4  11   8   15.95    1.18
  -3  11   7   25.80    1.51
   3 -11  -7   28.28    1.55
  -2  11   6    4.85    0.79
   2 -11  -6    6.02    0.81
  -1  11   5   34.32    1.72
   1 -11  -5   30.14    1.57
   0  11   4    8.18    0.94
   0 -11  -4    9.57    0.94
   1  11   3    3.27    0.73
  -1 -11  -3    3.17    0.65
  -5  10   9    3.33    0.66
  -4  10   8    1.54    0.55
  -3  10   7   28.44    1.53
   3 -10  -7   32.35    1.62
  -2  10   6   39.69    1.77
   2 -10  -6   40.88    1.79
  -1  10   5   38.48    1.75
   1 -10  -5   39.85    1.76
   0  10   4   15.19    1.13
   0 -10  -4   15.07    1.10
   1  10   3   67.85    2.53
  -1 -10  -3   67.28    2.42
   2  10   2    6.62    0.89
  -2 -10  -2    6.88    0.84
   3  10   1    3.17    0.72
  -3 -10  -1    3.00    0.63
  -5   9   9    1.53    0.55
  -4   9   8  251.98    5.98
  -3   9   7   34.79    1.64
   3  -9  -7   31.98    1.56
  -2   9   6   38.88    1.71
   2  -9  -6   39.58    1.71
  -1   9   5   15.46    1.08
   1  -9  -5   17.15    1.06
   0   9   4    0.15    0.33
   0  -9  -4    0.06    0.31
  -1  -9  -3  239.02    5.52
   2   9   2    9.75    1.02
  -2  -9  -2   12.53    1.03
   3   9   1   95.18    3.18
  -3  -9  -1   97.97    3.08
   4   9   0    1.92    0.63
  -6   8  10   49.82    2.05
  -5   8   9   32.82    1.58
  -4   8   8   31.62    1.51
  -3   8   7   10.02    0.92
   3  -8  -7   11.40    0.90
  -2   8   6   97.61    2.89
   2  -8  -6   96.91    2.84
  -1   8   5   59.61    2.14
   1  -8  -5   63.45    2.13
   0   8   4    2.03    0.55
   0  -8  -4    1.26    0.45
   1   8   3   24.64    1.31
  -1  -8  -3   24.39    1.28
   2   8   2   12.16    0.98
  -2  -8  -2   10.89    0.94
   3   8   1   11.29    1.06
  -3  -8  -1    9.52    0.91
   4   8   0   39.13    1.90
   5   8  -1    6.67    0.96
  -6   7  10   91.37    2.88
  -5   7   9   44.35    1.84
  -4   7   8   67.42    2.34
  -3   7   7   46.96    1.82
   3  -7  -7   47.49    1.78
  -2   7   6   30.30    1.39
   2  -7  -6   34.62    1.44
  -1   7   5    2.58    0.52
   1  -7  -5    2.93    0.53
   0   7   4   40.24    1.66
   0  -7  -4   37.95    1.54
   1   7   3  174.38    4.39
  -1  -7  -3  174.91    4.21
   2   7   2    6.85    0.79
  -2  -7  -2    9.25    0.81
   3   7   1  103.73    3.28
  -3  -7  -1  100.71    2.96
   4   7   0    2.69    0.68
   5   7  -1   10.89    1.12
  -6   6  10    2.38    0.57
  -5   6   9    0.33    0.34
  -4   6   8   54.74    1.98
  -3   6   7    6.42    0.69
   3  -6  -7    6.27    0.66
  -2   6   6  144.65    3.64
   2  -6  -6  144.25    3.55
  -1   6   5   91.65    2.58
   1  -6  -5   92.28    2.52
   0   6   4  196.67    4.54
   0  -6  -4  189.69    4.42
   1   6   3    6.95    0.76
  -1  -6  -3    7.98    0.71
   2   6   2   28.98    1.41
  -2  -6  -2   31.00    1.35
   3   6   1   16.49    1.16
  -3  -6  -1   14.23    0.93
  -4  -6   0   19.85    1.13
  -5  -6   1  205.82    5.22
  -6  -6   2   19.36    1.29
  -7   5  11  155.78    4.36
   7  -5 -11  149.44    4.20
  -6   5  10   40.26    1.74
   6  -5 -10   42.33    1.83
  -5   5   9    2.77    0.56
   5  -5  -9    2.44    0.51
  -4   5   8   56.96    2.00
   4  -5  -8   55.95    1.82
  -3   5   7  424.47    8.71
   3  -5  -7  411.17    8.26
  -2   5   6  275.29    5.99
   2  -5  -6  277.88    5.77
  -1   5   5   34.96    1.36
   1  -5  -5   32.63    1.33
   0   5   4   90.25    2.55
   0  -5  -4   90.96    2.46
   1   5   3    0.52    0.32
  -1  -5  -3    0.04    0.17
   2   5   2  461.42    9.68
  -2  -5  -2  466.65    9.14
   3   5   1   19.79    1.21
  -3  -5  -1   21.75    1.10
  -4  -5   0   96.95    2.92
  -4  -5   0   97.84    2.77
  -5  -5   1   14.70    1.08
  -6  -5   2    1.35    0.53
  -7   4  11   91.49    2.96
   7  -4 -11   97.92    3.04
  -6   4  10   17.46    1.15
   6  -4 -10   14.67    1.04
  -5   4   9    4.42    0.62
   5  -4  -9    4.26    0.63
  -4   4   8  179.79    4.37
   4  -4  -8  178.21    4.17
  -3   4   7    1.40    0.40
   3  -4  -7    2.28    0.41
   3  -4  -7    2.58    0.41
  -2   4   6  398.30    8.20
   2  -4  -6  407.67    7.94
   2  -4  -6  410.49    7.62
  -1   4   5   20.27    0.99
   1  -4  -5   21.45    0.97
   1  -4  -5   23.11    0.62
   0   4   4   10.12    0.70
   0  -4  -4   10.49    0.68
   1   4   3    0.04    0.25
  -1  -4  -3    0.19    0.23
   2   4   2   81.08    2.47
  -2  -4  -2   77.47    2.19
  -3  -4  -1   75.77    2.16
  -3  -4  -1   78.34    2.34
  -4  -4   0   20.78    1.06
  -4  -4   0   23.13    1.23
  -5  -4   1  311.54    7.11
  -6  -4   2    0.43    0.41
  -7  -4   3   31.38    1.67
  -6   3  10   38.39    1.66
   6  -3 -10   34.62    1.58
  -5   3   9   74.38    2.32
   5  -3  -9   74.76    2.35
  -4   3   8   29.99    1.32
   4  -3  -8   29.65    1.28
  -3   3   7  133.55    3.32
   3  -3  -7  131.00    3.02
   3  -3  -7  134.78    3.11
  -2   3   6    0.06    0.24
   2  -3  -6    0.19    0.19
   2  -3  -6    0.04    0.20
  -1   3   5    0.17    0.23
   1  -3  -5    0.17    0.21
   1  -3  -5    0.25    0.14
   1   3   3  163.23    3.87
  -1  -3  -3  169.03    3.62
   2   3   2  475.82    9.66
   3   3   1  113.25    2.61
  -3  -3  -1  109.14    2.72
  -3  -3  -1  110.43    2.95
   4   3   0  149.91    3.47
  -4  -3   0  142.40    3.37
  -4  -3   0  146.40    3.76
   5   3  -1  408.07    8.21
  -5  -3   1  396.44    8.61
   6   3  -2  113.09    3.19
  -6  -3   2  112.47    3.39
  -7  -3   3   35.69    1.78
  -7   2  11    2.28    0.60
   7  -2 -11    2.91    0.65
  -6   2  10   35.17    1.62
   6  -2 -10   36.87    1.63
  -5   2   9    3.08    0.56
   5  -2  -9    4.03    0.64
  -4   2   8   69.67    2.15
   4  -2  -8   67.98    2.10
  -3   2   7    3.13    0.47
   3  -2  -7    2.01    0.38
   3  -2  -7    2.77    0.36
  -1   2   5   96.65    2.38
   1  -2  -5   95.92    2.29
   1  -2  -5   98.14    2.10
   0   2   4    5.49    0.48
   0  -2  -4    4.62    0.43
   1   2   3    5.83    0.55
  -1  -2  -3    6.16    0.47
   2   2   2   12.29    0.50
  -2  -2  -2   12.19    0.70
  -2  -2  -2   11.17    0.62
   3   2   1  208.23    4.25
  -3  -2  -1  207.48    4.30
  -3  -2  -1  205.03    4.72
   4   2   0   63.55    1.87
  -4  -2   0   59.97    2.06
  -4  -2   0   63.71    1.77
   5   2  -1   25.33    1.21
  -5  -2   1   27.61    1.36
   6   2  -2   30.63    1.45
  -6  -2   2   28.92    1.48
   7   2  -3   57.48    2.16
  -7  -2   3   65.52    2.44
   8   2  -4    2.45    0.64
  -7   1  11    8.32    0.90
   7  -1 -11    9.13    0.95
  -6   1  10   28.94    1.46
   6  -1 -10   29.84    1.49
  -5   1   9   91.07    2.60
   5  -1  -9   82.07    2.34
  -4   1   8    1.49    0.40
   4  -1  -8    1.35    0.40
  -3   1   7   30.09    1.19
   3  -1  -7   32.95    1.23
   3  -1  -7   32.10    0.99
  -2   1   6    0.65    0.25
   2  -1  -6    0.90    0.24
   2  -1  -6    0.38    0.22
   1   1   3  146.84    2.75
   1   1   3  139.25    3.24
  -1  -1  -3  145.68    3.04
   2   1   2  170.49    3.37
  -2  -1  -2  170.21    3.51
  -2  -1  -2  167.11    3.74
   3   1   1  541.94    9.78
  -3  -1  -1  508.19   10.34
   4   1   0   22.29    0.99
  -4  -1   0   20.88    1.09
  -4  -1   0   23.18    0.88
   5   1  -1  210.17    4.65
  -5  -1   1  201.75    4.89
   6   1  -2   81.67    2.48
  -6  -1   2   79.70    2.61
   7   1  -3  100.12    2.99
  -7  -1   3  101.86    3.16
   8   1  -4   39.27    1.83
  -8  -1   4   40.76    1.91
  -7   0  11    6.03    0.77
   7   0 -11    6.76    0.84
  -6   0  10    5.15    0.72
   6   0 -10    6.12    0.77
  -5   0   9   21.54    1.16
   5   0  -9   22.85    1.22
  -4   0   8  113.46    3.03
   4   0  -8  114.97    3.05
  -3   0   7  172.42    3.97
   3   0  -7  174.33    4.05
   3   0  -7  184.39    3.61
  -2   0   6  200.51    4.22
  -2   0   6  196.74    4.26
   2   0  -6  205.92    4.01
  -1   0   5   11.29    0.55
  -1   0   5   11.37    0.57
   1   0  -5   11.00    0.56
   0   0   4    1.67    0.26
   0   0   4    1.57    0.22
   0   0  -4    1.72    0.29
   2   0   2   57.97    1.43
  -2   0  -2   58.52    1.47
  -2   0  -2   58.67    1.59
   3   0   1  294.12    5.81
  -3   0  -1  303.01    6.15
  -3   0  -1  297.59    5.68
   4   0   0  353.98    7.00
  -4   0   0  350.66    7.37
  -4   0   0  358.12    6.68
   5   0  -1    7.23    0.66
  -5   0   1    7.12    0.71
   6   0  -2  177.18    4.30
  -6   0   2  178.90    4.46
   7   0  -3    4.72    0.71
  -7   0   3    4.17    0.69
   8   0  -4   37.86    1.73
  -8   0   4   39.08    1.81
  -7  -1  11   41.56    1.94
   7   1 -11   41.90    1.87
  -6  -1  10    7.56    0.79
   6   1 -10    6.66    0.80
  -5  -1   9    8.76    0.81
   5   1  -9    9.25    0.87
  -4  -1   8  194.82    4.59
   4   1  -8  195.39    4.60
  -3  -1   7  142.15    3.43
  -3  -1   7  138.53    3.33
   3   1  -7  146.43    3.01
  -2  -1   6  116.06    2.74
  -2  -1   6  113.58    2.65
   2   1  -6  114.54    2.49
  -1  -1   5  158.78    3.36
  -1  -1   5  157.93    3.28
   1   1  -5  157.85    3.23
   0  -1   4    4.55    0.35
   0  -1   4    4.50    0.28
   0   1  -4    3.90    0.34
   2  -1   2    9.09    0.49
  -2   1  -2    8.56    0.50
  -2   1  -2    9.35    0.46
   3  -1   1   26.93    0.98
  -3   1  -1   26.43    1.01
  -3   1  -1   26.26    0.84
   4  -1   0    0.93    0.30
  -4   1   0    0.44    0.28
  -4   1   0    1.06    0.23
   5  -1  -1   22.77    1.12
  -5   1   1   24.58    1.17
   6  -1  -2   68.64    2.22
  -6   1   2   72.92    2.35
   7  -1  -3   29.07    1.44
  -7   1   3   26.03    1.40
   8  -1  -4    6.42    0.81
  -8   1   4    6.12    0.78
  -7  -2  11   14.69    1.13
  -6  -2  10    7.57    0.86
   6   2 -10    8.18    0.88
  -5  -2   9  109.57    3.17
   5   2  -9  111.12    3.17
  -4  -2   8    3.01    0.49
   4   2  -8    3.17    0.60
  -3  -2   7  129.67    3.23
  -3  -2   7  132.58    3.26
  -2  -2   6  135.66    3.09
  -2  -2   6  133.79    3.18
   2   2  -6  135.87    2.92
  -1  -2   5  242.93    4.88
  -1  -2   5  243.53    4.75
   1   2  -5  237.00    4.72
   0  -2   4   39.44    1.17
   0  -2   4   40.15    0.91
   0   2  -4   38.94    1.14
   1  -2   3   10.25    0.38
   1  -2   3    9.83    0.50
  -1   2  -3    9.56    0.50
   2  -2   2  305.40    5.75
  -2   2  -2  296.81    5.69
   3  -2   1   89.88    2.22
  -3   2  -1   93.09    2.03
  -3   2  -1   91.33    2.25
   4  -2   0  120.67    2.93
  -4   2   0  123.42    2.57
  -4   2   0  122.77    2.99
   5  -2  -1    6.91    0.65
  -5   2   1    7.65    0.67
   6  -2  -2  394.43    8.19
  -6   2   2  407.17    8.47
   7  -2  -3   17.56    1.10
  -7   2   3   17.64    1.12
   8  -2  -4   30.13    1.51
  -8   2   4   32.22    1.59
  -7  -3  11    3.87    0.73
  -6  -3  10  136.77    3.99
   6   3 -10  139.24    3.85
  -5  -3   9   15.64    1.07
   5   3  -9   16.87    1.10
  -4  -3   8   37.59    1.54
  -3  -3   7  111.62    2.91
  -3  -3   7  110.76    2.96
  -2  -3   6    0.46    0.27
  -2  -3   6    0.53    0.24
   2   3  -6    0.56    0.23
  -1  -3   5  119.75    2.78
  -1  -3   5  118.13    2.55
   1   3  -5  118.62    2.66
   0  -3   4  260.40    5.21
   0   3  -4  267.11    5.18
   2  -3   2  190.57    3.95
  -2   3  -2  191.16    3.80
  -2   3  -2  195.93    3.89
   3  -3   1  393.49    7.60
   4  -3   0    2.04    0.38
  -4   3   0    2.38    0.29
  -4   3   0    1.79    0.37
   5  -3  -1    2.04    0.46
  -5   3   1    1.27    0.37
   6  -3  -2  111.58    3.05
  -6   3   2  115.19    3.15
   7  -3  -3    6.27    0.76
  -7   3   3    6.89    0.77
   8  -3  -4  130.46    3.67
  -8   3   4  133.91    3.84
   6   4 -10   14.03    1.08
  -5  -4   9  196.08    4.88
   5   4  -9  189.49    4.81
  -4  -4   8  186.94    4.54
  -4  -4   8  185.93    4.59
  -3  -4   7   11.96    0.83
  -3  -4   7   12.51    0.77
  -2  -4   6   10.16    0.73
  -2  -4   6   11.33    0.66
   2   4  -6   11.93    0.68
   1   4  -5  610.53   11.32
   0  -4   4    5.66    0.51
   0   4  -4    5.80    0.52
  -1   4  -3  457.92    8.64
   2  -4   2   79.40    2.03
  -2   4  -2   82.77    1.78
  -2   4  -2   81.62    2.03
   3  -4   1   63.59    1.76
  -3   4  -1   64.51    1.66
  -3   4  -1   61.75    1.64
  -4   4   0  506.86    9.95
   5  -4  -1   69.01    2.09
  -5   4   1   68.60    2.12
   6  -4  -2    0.45    0.33
  -6   4   2    0.43    0.33
   7  -4  -3    0.87    0.42
  -7   4   3    0.71    0.42
   8  -4  -4   46.01    1.93
  -8   4   4   46.89    1.97
   5   5  -9   38.94    1.77
  -4  -5   8    1.12    0.41
  -3  -5   7    0.12    0.29
  -3  -5   7    0.19    0.28
  -2  -5   6    6.30    0.64
  -2  -5   6    5.88    0.53
   2   5  -6    6.60    0.59
  -1  -5   5  342.87    6.91
  -1  -5   5  348.82    6.73
   1   5  -5  348.54    6.85
   0  -5   4  129.59    3.02
   0   5  -4  128.04    3.00
   1  -5   3   91.84    2.28
  -1   5  -3   90.99    2.31
   2  -5   2   30.17    1.10
  -2   5  -2   27.86    1.06
  -2   5  -2   28.42    0.80
   3  -5   1  151.40    3.45
  -3   5  -1  142.62    3.29
  -3   5  -1  148.27    3.22
   4  -5   0  148.74    3.50
  -4   5   0  148.41    3.32
  -4   5   0  154.88    3.49
   5  -5  -1    0.32    0.27
  -5   5   1    0.16    0.26
   6  -5  -2   16.66    1.04
  -6   5   2   17.26    1.00
   7  -5  -3    0.70    0.39
  -7   5   3    1.38    0.49
  -8   5   4  192.02    4.96
   5   6  -9    0.02    0.37
  -4  -6   8  122.34    3.43
  -3  -6   7   -0.52    0.23
  -2  -6   6  282.40    6.01
   2   6  -6  276.71    5.88
  -1  -6   5    0.29    0.27
   1   6  -5    0.50    0.28
   0  -6   4    3.97    0.51
   0   6  -4    5.26    0.55
   1  -6   3  396.30    7.77
  -1   6  -3  401.94    7.88
   2  -6   2   37.88    1.29
  -2   6  -2   36.14    1.32
   3  -6   1  250.43    5.33
  -3   6  -1  263.28    5.35
   4  -6   0    7.65    0.65
  -4   6   0    9.20    0.62
  -4   6   0    8.57    0.63
   5  -6  -1  279.27    6.04
  -5   6   1  281.59    6.09
   6  -6  -2    0.27    0.31
  -6   6   2    0.48    0.35
   7  -6  -3   43.38    1.78
  -7   6   3   41.89    1.79
   8  -6  -4   28.34    1.45
  -8   6   4   22.87    1.37
   5   7  -9    0.37    0.41
  -4  -7   8   32.78    1.58
  -3  -7   7   24.81    1.29
  -2  -7   6   88.21    2.55
   2   7  -6   80.33    2.46
  -1  -7   5   56.83    1.89
   1   7  -5   57.83    1.91
   0  -7   4   27.41    1.15
   0   7  -4   25.44    1.19
   1  -7   3   73.32    2.08
  -1   7  -3   72.87    2.19
   2  -7   2    6.81    0.61
  -2   7  -2    6.80    0.65
   3  -7   1   38.27    1.44
  -3   7  -1   37.61    1.43
   4  -7   0    6.64    0.64
  -4   7   0    7.94    0.67
   5  -7  -1   54.12    1.86
   6  -7  -2   79.95    2.51
   7  -7  -3    3.16    0.63
  -7   7   3    2.84    0.60
  -8   7   4   43.41    1.86
  -4  -8   8  172.30    4.50
  -3  -8   7    6.44    0.77
  -2  -8   6   49.03    1.84
   2   8  -6   47.62    1.82
  -1  -8   5  135.33    3.49
   1   8  -5  134.44    3.50
   0  -8   4  282.95    5.94
   0   8  -4  274.09    6.01
   1  -8   3  126.01    3.22
  -1   8  -3  125.01    3.31
   2  -8   2   16.04    0.90
  -2   8  -2   16.07    0.97
   3  -8   1  408.20    7.98
  -3   8  -1  388.70    8.04
   4  -8   0   70.95    2.19
  -4   8   0   71.11    2.17
   5  -8  -1  358.66    7.56
   6  -8  -2   17.20    1.09
   7  -8  -3    9.74    0.94
   8  -8  -4   50.62    2.07
  -4  -9   8    7.09    0.93
  -3  -9   7   -0.17    0.29
  -2  -9   6   31.37    1.49
   2   9  -6   31.05    1.49
  -1  -9   5    4.98    0.67
   1   9  -5    7.67    0.80
   0  -9   4  175.99    4.31
   0   9  -4  184.58    4.40
   1  -9   3   23.91    1.17
  -1   9  -3   25.16    1.28
   2  -9   2    4.30    0.59
  -2   9  -2    5.05    0.68
   3  -9   1   10.41    0.77
  -3   9  -1   12.23    0.88
   4  -9   0   15.87    0.97
  -4   9   0   14.06    0.94
   5  -9  -1   93.45    2.74
   6  -9  -2    1.95    0.54
   7  -9  -3   24.80    1.35
  -3 -10   7    0.02    0.35
  -2 -10   6   66.30    2.39
   2  10  -6   65.31    2.33
  -1 -10   5   -0.06    0.32
   1  10  -5    0.06    0.34
   0 -10   4    3.86    0.62
   0  10  -4    4.47    0.67
   1 -10   3  103.86    3.02
  -1  10  -3  102.49    3.04
   2 -10   2   13.21    0.90
  -2  10  -2   12.56    0.95
   3 -10   1  121.62    3.25
  -3  10  -1  125.79    3.40
   4 -10   0    3.99    0.64
  -4  10   0    4.26    0.65
   5 -10  -1   55.35    2.03
   6 -10  -2    2.48    0.57
   7 -10  -3   27.50    1.53
   2  11  -6   82.39    2.79
   1  11  -5    0.32    0.42
   0  11  -4   87.43    2.85
   1 -11   3    0.12    0.34
  -1  11  -3    0.50    0.43
   2 -11   2   41.56    1.71
  -2  11  -2   40.09    1.79
   3 -11   1   14.21    1.00
  -3  11  -1   13.73    1.01
   4 -11   0   46.40    1.85
  -4  11   0   44.37    1.87
   5 -11  -1  131.11    3.60
   6 -11  -2    4.31    0.71
   1  12  -5   10.91    1.02
   0  12  -4   24.52    1.41
  -1  12  -3   -0.02    0.39
  -2  12  -2   23.24    1.35
  -3  12  -1   49.61    2.07
  -4  12   0   40.80    1.83
  -3  13  -1   47.23    2.01
  -4  13   0    7.13    0.89
  -3  11   8   51.94    2.21
   3 -11  -8   56.39    2.27
  -2  11   7   87.75    3.02
   2 -11  -7   95.62    3.03
  -1  11   6    2.86    0.69
   1 -11  -6    2.42    0.62
   0  11   5   70.34    2.61
   0 -11  -5   73.75    2.62
   1  11   4   17.53    1.28
  -4  10   9    6.98    0.88
  -3  10   8  191.32    4.95
   3 -10  -8  183.87    4.80
  -2  10   7   10.33    0.99
   2 -10  -7   10.53    1.00
  -1  10   6   63.71    2.41
   1 -10  -6   65.94    2.37
   0  10   5   18.45    1.22
   0 -10  -5   17.89    1.20
   1  10   4    6.13    0.88
  -1 -10  -4    6.26    0.84
   2  10   3   96.35    3.20
  -2 -10  -3  103.08    3.21
   3  10   2    6.26    0.91
  -3 -10  -2    8.45    0.94
  -5   9  10    9.47    0.94
  -4   9   9   -0.22    0.32
  -3   9   8    0.30    0.39
   3  -9  -8   -0.29    0.30
  -2   9   7   75.62    2.54
   2  -9  -7   72.08    2.48
  -1   9   6   32.43    1.60
   1  -9  -6   33.81    1.57
   0   9   5   84.05    2.80
   0  -9  -5   88.76    2.78
   1   9   4    4.46    0.73
  -1  -9  -4    3.57    0.63
   2   9   3   29.26    1.56
  -2  -9  -3   30.09    1.53
   3   9   2   18.04    1.28
  -3  -9  -2   16.77    1.19
   4   9   1   20.12    1.37
  -5   8  10   67.21    2.42
  -4   8   9    2.91    0.62
  -3   8   8  482.05   10.04
   3  -8  -8  467.43    9.80
  -2   8   7  142.44    3.87
   2  -8  -7  148.25    3.85
  -1   8   6   87.20    2.78
   1  -8  -6   92.09    2.75
   0   8   5   94.26    2.95
   0  -8  -5   94.01    2.84
   1   8   4   42.53    1.85
  -1  -8  -4   42.37    1.79
   2   8   3  243.67    5.91
  -2  -8  -3  236.79    5.60
   3   8   2   14.87    1.15
  -3  -8  -2   12.62    1.00
  -6   7  11   46.63    1.94
  -5   7  10    4.26    0.71
  -4   7   9    0.82    0.44
  -3   7   8  258.46    5.97
   3  -7  -8  257.09    5.86
  -2   7   7   16.30    1.03
   2  -7  -7   18.50    1.07
  -1   7   6   89.31    2.73
   1  -7  -6   86.86    2.57
   0   7   5   23.17    1.30
   0  -7  -5   24.09    1.22
   1   7   4  207.04    5.06
  -1  -7  -4  209.11    4.88
   2   7   3    8.35    0.87
  -2  -7  -3    6.39    0.72
   3   7   2   14.16    1.08
  -3  -7  -2   16.06    1.06
   4   7   1    9.68    1.06
  -4  -7  -1    8.52    0.85
   5   7   0   20.33    1.42
  -6   6  11    9.39    0.93
  -5   6  10  118.18    3.39
  -4   6   9    0.31    0.35
  -3   6   8   85.50    2.60
   3  -6  -8   81.31    2.47
  -2   6   7    0.15    0.28
   2  -6  -7    0.47    0.29
  -1   6   6  181.84    4.44
   1  -6  -6  186.32    4.32
   0   6   5  184.41    4.49
   0  -6  -5  180.43    4.22
   1   6   4    2.50    0.52
  -1  -6  -4    1.89    0.46
   2   6   3  128.77    3.63
  -2  -6  -3  141.02    3.47
   3   6   2    3.69    0.69
  -3  -6  -2    3.63    0.60
   4   6   1  250.72    6.16
  -4  -6  -1  245.47    5.68
  -6  -6   1   43.64    1.97
  -6   5  11   67.23    2.32
  -5   5  10   11.84    0.96
  -4   5   9   45.81    1.78
  -3   5   8  250.41    5.88
   3  -5  -8  273.26    5.75
  -2   5   7    1.77    0.44
   2  -5  -7    1.50    0.41
   1  -5  -6  693.95   13.14
   0   5   5   47.16    1.71
   0  -5  -5   45.40    1.63
   1   5   4  419.97    8.61
  -1  -5  -4  399.24    8.13
   2   5   3  100.67    2.99
  -2  -5  -3  107.41    2.85
   3   5   2   66.32    2.43
  -3  -5  -2   71.23    2.22
  -4  -5  -1  119.64    3.25
  -5  -5   0   20.27    1.26
   7  -4 -12    2.77    0.65
  -6   4  11   78.72    2.63
   6  -4 -11   80.51    2.64
  -5   4  10   24.10    1.26
   5  -4 -10   23.67    1.26
  -4   4   9  134.91    3.55
   4  -4  -9  132.51    3.42
  -3   4   8   43.63    1.63
   3  -4  -8   41.76    1.51
   3  -4  -8   42.82    1.47
  -2   4   7    4.84    0.56
   2  -4  -7    4.09    0.49
  -1   4   6   30.99    1.27
   1  -4  -6   34.17    1.28
   0   4   5    0.96    0.34
   0  -4  -5    0.35    0.27
   1   4   4   77.10    2.33
  -1  -4  -4   77.27    2.18
   2   4   3   35.79    1.49
  -2  -4  -3   32.67    1.32
   3   4   2   98.34    2.92
  -3  -4  -2   91.96    2.58
  -4  -4  -1  111.39    2.95
  -4  -4  -1  117.25    3.24
  -5  -4   0   10.60    0.97
  -6  -4   1    0.02    0.37
  -7  -4   2    6.57    0.87
  -7   3  12   27.71    1.52
   7  -3 -12   29.18    1.55
  -6   3  11   11.59    0.92
   6  -3 -11   12.10    1.03
  -5   3  10   43.86    1.77
   5  -3 -10   46.26    1.81
  -4   3   9   10.65    0.76
   4  -3  -9   11.16    0.78
  -3   3   8  131.01    3.33
   3  -3  -8  134.07    3.17
   3  -3  -8  133.28    3.12
  -2   3   7   86.71    2.45
   2  -3  -7   88.84    2.16
   2  -3  -7   87.00    2.30
  -1   3   6  187.79    4.29
   1  -3  -6  191.65    4.14
   1  -3  -6  194.35    3.71
   0   3   5  128.50    3.13
   0  -3  -5  126.07    3.01
   2   3   3    0.07    0.29
  -2  -3  -3    0.64    0.28
  -3  -3  -2    9.68    0.69
  -3  -3  -2    9.44    0.74
  -4  -3  -1  269.80    6.12
  -4  -3  -1  269.31    5.70
  -5  -3   0   59.49    2.22
  -6  -3   1  233.42    5.69
  -7  -3   2    0.14    0.40
   7  -2 -12    5.34    0.80
  -6   2  11  120.94    3.52
   6  -2 -11  123.46    3.50
  -5   2  10    7.62    0.77
   5  -2 -10   10.68    0.89
  -4   2   9  243.28    5.47
   4  -2  -9  245.14    5.33
  -3   2   8    7.74    0.66
   3  -2  -8    8.58    0.60
   3  -2  -8    7.93    0.61
  -2   2   7    0.32    0.26
   2  -2  -7    0.10    0.23
   2  -2  -7   -0.14    0.16
  -1   2   6   15.34    0.78
   1  -2  -6   16.20    0.76
   1  -2  -6   15.94    0.62
   0   2   5  168.77    3.83
   0   2   5  170.75    3.17
   0  -2  -5  166.31    3.65
   2   2   3  101.86    2.80
   2   2   3  106.52    2.20
  -2  -2  -3  106.91    2.56
   3   2   2   53.87    1.47
  -3  -2  -2   50.58    1.58
  -3  -2  -2   51.10    1.76
   4   2   1    2.25    0.41
  -4  -2  -1    2.94    0.52
  -4  -2  -1    2.08    0.40
   5   2   0  173.10    4.07
  -5  -2   0  167.17    4.34
   6   2  -1   16.85    1.03
  -6  -2   1   15.01    1.10
  -7  -2   2    7.73    0.91
  -7   1  12   16.19    1.18
  -6   1  11    3.55    0.65
   6  -1 -11    2.26    0.56
  -5   1  10   29.14    1.42
   5  -1 -10   27.99    1.35
  -4   1   9   72.79    2.22
   4  -1  -9   73.04    2.26
  -3   1   8   24.03    1.07
   3  -1  -8   24.91    0.94
   3  -1  -8   23.47    1.11
  -2   1   7  254.11    5.37
   2  -1  -7  248.82    5.03
  -1   1   6  156.08    3.43
  -1   1   6  148.50    3.16
   1  -1  -6  149.62    3.30
   0   1   5  160.32    3.13
   0   1   5  159.47    3.53
   0  -1  -5  158.84    3.45
   1   1   4   26.27    1.05
   1   1   4   28.92    0.77
  -1  -1  -4   28.63    1.02
   2   1   3   19.73    0.68
  -2  -1  -3   18.85    0.82
  -2  -1  -3   19.19    0.89
   3   1   2   19.56    0.80
  -3  -1  -2   19.86    0.99
  -3  -1  -2   19.80    0.86
   4   1   1   20.61    0.94
  -4  -1  -1   19.56    0.87
  -4  -1  -1   20.42    1.08
   5   1   0   21.10    1.06
  -5  -1   0   20.00    1.13
   6   1  -1  109.81    3.06
  -6  -1   1  107.25    3.17
   7   1  -2   55.87    2.08
  -7  -1   2   52.25    2.11
   8   1  -3   17.73    1.22
  -8  -1   3   21.10    1.39
  -7   0  12    3.25    0.70
   7   0 -12    3.98    0.74
  -6   0  11  137.92    3.69
   6   0 -11  125.18    3.53
  -5   0  10   12.09    0.91
   5   0 -10   10.32    0.90
  -4   0   9  145.08    3.65
   4   0  -9  147.65    3.73
  -3   0   8    4.56    0.52
   3   0  -8    5.86    0.46
   3   0  -8    5.15    0.57
  -2   0   7    0.29    0.23
  -2   0   7   -0.05    0.21
   2   0  -7    0.42    0.23
  -1   0   6  224.34    4.50
  -1   0   6  227.39    4.62
   1   0  -6  217.38    4.47
   0   0   5   67.07    1.59
   0   0   5   66.05    1.69
   0   0  -5   66.81    1.71
   1   0   4  170.98    3.35
   1   0   4  166.24    3.64
  -1   0  -4  170.56    3.56
   2   0   3  127.87    2.68
  -2   0  -3  123.95    2.75
  -2   0  -3  127.00    2.90
   3   0   2  309.54    6.06
  -3   0  -2  313.92    6.06
  -3   0  -2  313.77    6.49
   4   0   1    1.45    0.34
  -4   0  -1    1.08    0.38
  -4   0  -1    1.55    0.32
   5   0   0  119.26    3.06
  -5   0   0  119.88    3.28
   6   0  -1   17.02    1.03
  -6   0   1   17.89    1.09
   7   0  -2   -0.09    0.30
  -7   0   2    0.05    0.36
   8   0  -3  165.46    4.34
  -8   0   3  156.40    4.43
  -7  -1  12   57.61    2.31
  -6  -1  11    1.95    0.56
   6   1 -11    2.36    0.57
  -5  -1  10   14.53    0.97
   5   1 -10   15.18    1.04
  -4  -1   9  519.49   10.49
   4   1  -9  515.39   10.29
  -3  -1   8   45.13    1.61
  -3  -1   8   45.39    1.53
  -2  -1   7  106.18    2.57
  -2  -1   7  102.13    2.62
   2   1  -7  106.74    2.44
  -1  -1   6  136.69    2.96
  -1  -1   6  134.09    3.03
   1   1  -6  135.50    2.96
  -1   1  -4  366.16    6.93
  -2   1  -3  319.95    6.40
  -2   1  -3  329.80    6.22
   3  -1   2  247.42    4.94
  -3   1  -2  238.77    5.15
  -3   1  -2  249.02    4.85
   4  -1   1    5.16    0.52
  -4   1  -1    4.62    0.51
  -4   1  -1    4.87    0.42
   5  -1   0  224.84    4.89
  -5   1   0  215.61    5.03
   6  -1  -1    0.13    0.31
  -6   1   1    0.70    0.38
   7  -1  -2   98.08    2.93
  -7   1   2   98.12    3.02
   8  -1  -3    1.39    0.46
  -8   1   3    1.69    0.59
  -6  -2  11   90.33    2.93
   6   2 -11   90.39    2.88
  -5  -2  10    4.74    0.66
   5   2 -10    5.44    0.76
  -4  -2   9    2.60    0.52
   4   2  -9    3.17    0.55
  -3  -2   8   88.33    2.45
  -3  -2   8   94.38    2.59
  -2  -2   7   16.77    0.89
  -2  -2   7   17.47    0.80
   2   2  -7   15.81    0.74
  -1  -2   6  128.43    2.80
  -1  -2   6  131.48    3.01
   1   2  -6  128.76    2.88
   0  -2   5   84.16    2.10
   0  -2   5   86.54    1.85
   0   2  -5   88.25    2.09
   1  -2   4  290.13    5.68
  -1   2  -4  295.66    5.69
   2  -2   3  396.88    7.48
   3  -2   2    4.13    0.43
  -3   2  -2    3.92    0.38
  -3   2  -2    3.84    0.40
   4  -2   1    7.20    0.58
  -4   2  -1    6.92    0.61
  -4   2  -1    8.91    0.51
   5  -2   0   50.50    1.74
  -5   2   0   54.05    1.85
   6  -2  -1   -0.12    0.25
  -6   2   1    0.74    0.39
   7  -2  -2   18.50    1.13
  -7   2   2   17.61    1.14
   8  -2  -3   51.72    2.01
  -8   2   3   50.37    2.03
   6   3 -11   73.82    2.60
  -5  -3  10   42.07    1.81
   5   3 -10   44.15    1.89
  -4  -3   9   55.55    2.01
  -4  -3   9   57.10    2.01
  -3  -3   8   30.22    1.28
  -3  -3   8   29.22    1.26
   2   3  -7  524.77    9.85
  -1  -3   6    1.43    0.25
  -1  -3   6    1.30    0.33
   1   3  -6    1.37    0.29
   0  -3   5  111.91    2.64
   0  -3   5  113.31    2.25
   0   3  -5  111.78    2.61
   1  -3   4   11.47    0.60
  -1   3  -4   11.25    0.59
   2  -3   3    0.12    0.22
  -2   3  -3    0.00    0.17
  -2   3  -3    0.23    0.16
   3  -3   2  162.78    3.53
  -3   3  -2  161.38    3.50
  -3   3  -2  161.89    3.42
   4  -3   1  120.06    2.91
  -4   3  -1  121.35    2.67
  -4   3  -1  120.20    2.97
   5  -3   0  253.86    5.41
  -5   3   0  250.00    5.55
   6  -3  -1  195.08    4.56
  -6   3   1  190.02    4.65
   7  -3  -2   29.28    1.43
  -7   3   2   29.24    1.43
   8  -3  -3   55.75    2.15
  -8   3   3   56.60    2.19
   6   4 -11   42.22    1.92
   5   4 -10   76.84    2.63
  -4  -4   9    5.03    0.69
  -3  -4   8   94.66    2.69
  -3  -4   8   92.88    2.61
  -2  -4   7   33.97    1.38
  -2  -4   7   38.09    1.27
   2   4  -7   38.44    1.33
  -1  -4   6   43.26    1.48
  -1  -4   6   44.32    1.21
   1   4  -6   42.46    1.39
   0  -4   5  181.75    3.93
   0   4  -5  175.41    3.85
   1  -4   4   14.88    0.74
  -1   4  -4   13.03    0.72
   2  -4   3  309.51    6.10
  -2   4  -3  303.31    6.04
  -2   4  -3  312.85    5.82
   3  -4   2   31.61    1.19
  -3   4  -2   31.99    1.03
  -3   4  -2   30.95    1.08
   4  -4   1  357.95    7.26
  -4   4  -1  372.83    7.36
  -4   4  -1  359.29    6.98
   5  -4   0   94.19    2.60
  -5   4   0   93.93    2.61
   6  -4  -1    0.79    0.37
  -6   4   1    0.86    0.37
   7  -4  -2   51.45    1.95
  -7   4   2   51.88    1.99
   8  -4  -3   -0.20    0.31
  -8   4   3    0.32    0.39
   5   5 -10    2.81    0.63
  -4  -5   9   41.97    1.76
  -3  -5   8   28.51    1.35
  -2  -5   7   60.69    1.96
   2   5  -7   60.86    1.85
  -1  -5   6  110.59    2.84
   1   5  -6  110.01    2.79
   0  -5   5   23.28    1.04
   0   5  -5   23.62    1.03
   1  -5   4   12.78    0.70
  -1   5  -4   12.04    0.71
   2  -5   3    1.75    0.36
  -2   5  -3    2.34    0.37
   3  -5   2   60.88    1.83
  -3   5  -2   63.82    1.78
  -3   5  -2   63.33    1.59
   4  -5   1  274.00    5.81
  -4   5  -1  280.55    5.79
  -4   5  -1  278.17    5.59
   5  -5   0   11.56    0.81
  -5   5   0   12.24    0.81
   6  -5  -1   31.79    1.42
  -6   5   1   33.50    1.47
   7  -5  -2    7.07    0.80
  -7   5   2    6.34    0.74
   8  -5  -3   16.31    1.13
  -8   5   3   13.52    1.04
   5   6 -10   75.83    2.67
  -4  -6   9   23.82    1.30
  -3  -6   8  106.41    3.02
  -2  -6   7   19.73    1.07
   2   6  -7   17.17    0.97
  -1  -6   6    0.58    0.33
   1   6  -6    1.25    0.37
   0  -6   5  481.85    9.35
   0   6  -5  479.86    9.31
   1  -6   4    3.21    0.46
  -1   6  -4    2.81    0.45
   2  -6   3  194.02    4.18
  -2   6  -3  188.61    4.20
   3  -6   2    0.23    0.23
  -3   6  -2    0.32    0.26
   4  -6   1  175.80    4.16
  -4   6  -1  181.99    4.00
   5  -6   0  215.24    4.94
   6  -6  -1   39.66    1.61
  -6   6   1   37.59    1.58
   7  -6  -2   39.42    1.66
  -7   6   2   40.07    1.77
   8  -6  -3    2.99    0.62
  -8   6   3    4.19    0.72
   5   7 -10   30.98    1.65
  -4  -7   9    4.46    0.70
  -3  -7   8   36.56    1.60
  -2  -7   7  107.47    3.01
   2   7  -7  107.49    2.91
  -1  -7   6  161.65    3.92
   1   7  -6  161.79    3.87
   0  -7   5  172.67    4.03
   0   7  -5  171.09    4.02
   1  -7   4    2.73    0.43
  -1   7  -4    2.06    0.45
   2  -7   3   80.55    2.31
  -2   7  -3   81.64    2.33
   3  -7   2   29.37    1.21
  -3   7  -2   26.10    1.16
   4  -7   1  571.52   10.94
  -4   7  -1  565.79   10.89
   5  -7   0   60.26    2.01
   6  -7  -1   65.76    2.26
   7  -7  -2   48.73    1.93
   8  -7  -3   18.78    1.26
  -4  -8   9    0.65    0.42
  -3  -8   8    2.13    0.55
  -2  -8   7   72.69    2.43
   2   8  -7   77.62    2.45
  -1  -8   6    0.69    0.36
   1   8  -6    0.51    0.32
   0  -8   5   36.32    1.46
   0   8  -5   33.26    1.43
   1  -8   4   17.03    0.96
  -1   8  -4   17.63    1.02
   2  -8   3  213.74    4.83
  -2   8  -3  223.24    4.93
   3  -8   2    6.83    0.66
  -3   8  -2    6.07    0.66
   4  -8   1   19.15    1.03
  -4   8  -1   18.52    1.02
   5  -8   0   40.27    1.60
  -5   8   0   36.92    1.49
   6  -8  -1    0.45    0.39
   7  -8  -2   30.41    1.49
   8  -8  -3    8.65    0.93
  -3  -9   8   87.26    2.83
  -2  -9   7    0.07    0.35
   2   9  -7    0.64    0.41
  -1  -9   6    6.02    0.72
   1   9  -6    7.73    0.78
   0  -9   5   49.71    1.84
   0   9  -5   45.75    1.80
   1  -9   4    3.90    0.60
  -1   9  -4    4.52    0.65
   2  -9   3   84.70    2.51
  -2   9  -3   85.28    2.58
   3  -9   2   41.09    1.61
  -3   9  -2   42.16    1.66
   4  -9   1   45.40    1.72
  -4   9  -1   45.91    1.71
   5  -9   0    1.63    0.46
  -5   9   0    1.02    0.39
   6  -9  -1   56.07    2.08
   7  -9  -2   -0.06    0.35
  -3 -10   8    0.18    0.35
  -2 -10   7   16.99    1.17
   2  10  -7   16.96    1.14
  -1 -10   6   52.06    2.05
   1  10  -6   51.77    2.00
   0 -10   5    1.72    0.48
   0  10  -5    1.56    0.52
  -1  10  -4  167.24    4.22
   2 -10   3   32.30    1.44
  -2  10  -3   34.25    1.54
   3 -10   2    3.15    0.55
  -3  10  -2    3.78    0.60
   4 -10   1   18.60    1.11
  -4  10  -1   20.31    1.16
   5 -10   0   86.61    2.68
  -5  10   0   85.43    2.64
   6 -10  -1   30.00    1.50
   7 -10  -2   28.67    1.50
  -2 -11   7    0.61    0.45
   2  11  -7    0.53    0.42
   1  11  -6   10.86    0.98
   0 -11   5   21.15    1.26
   0  11  -5   19.46    1.25
   1 -11   4   56.25    2.11
  -1  11  -4   57.62    2.14
   2 -11   3    2.28    0.54
  -2  11  -3    2.17    0.56
   3 -11   2    2.51    0.56
  -3  11  -2    3.32    0.61
   4 -11   1   15.82    1.08
  -4  11  -1   15.87    1.07
   5 -11   0   78.81    2.61
  -5  11   0   78.89    2.58
   6 -11  -1    7.04    0.86
   0  12  -5    1.89    0.54
  -1  12  -4   51.51    2.05
  -2  12  -3    4.03    0.70
  -3  12  -2   74.85    2.55
   4 -12   1    9.41    0.90
  -4  12  -1   12.77    0.99
   5 -12   0    0.53    0.40
  -5  12   0    0.33    0.38
   6 -12  -1   71.66    2.60
  -1  11   7   16.73    1.26
  -3  10   9    4.61    0.77
   3 -10  -9    5.12    0.79
  -2  10   8   14.12    1.12
   2 -10  -8   18.88    1.26
  -1  10   7  134.21    3.94
   1 -10  -7  138.83    3.83
   0  10   6   20.11    1.35
   0 -10  -6   21.95    1.35
   1  10   5  102.13    3.30
  -1 -10  -5   98.05    3.12
   2  10   4   10.47    1.03
  -4   9  10   72.97    2.57
  -3   9   9   27.85    1.51
   3  -9  -9   26.64    1.46
  -2   9   8  386.20    8.34
   2  -9  -8  371.73    8.21
  -1   9   7    6.87    0.81
   1  -9  -7    6.09    0.79
   0   9   6   49.45    2.02
   0  -9  -6   48.06    2.01
   1   9   5   73.94    2.66
  -1  -9  -5   79.87    2.62
   2   9   4   75.65    2.70
  -2  -9  -4   73.95    2.57
  -3  -9  -3  187.36    4.76
  -5   8  11   14.67    1.09
  -4   8  10   35.13    1.65
  -3   8   9    1.26    0.51
   3  -8  -9    1.16    0.47
  -2   8   8   24.00    1.29
   2  -8  -8   24.29    1.36
  -1   8   7  113.47    3.33
   1  -8  -7  114.48    3.25
   0   8   6    1.49    0.53
   0  -8  -6    1.55    0.51
   1   8   5   87.74    2.87
  -1  -8  -5   86.86    2.75
   2   8   4   34.09    1.68
  -2  -8  -4   34.01    1.61
   3   8   3   31.21    1.63
  -3  -8  -3   30.46    1.56
   4   8   2   37.28    1.94
  -4  -8  -2   42.51    1.87
  -5   7  11   34.64    1.68
  -4   7  10  113.68    3.40
  -3   7   9    4.87    0.68
   3  -7  -9    5.34    0.69
  -2   7   8   79.24    2.52
   2  -7  -8   81.38    2.51
  -1   7   7   14.00    0.97
   1  -7  -7   14.84    0.96
   0   7   6  130.68    3.60
   0  -7  -6  134.70    3.50
   1   7   5   62.27    2.29
  -1  -7  -5   63.79    2.20
   2   7   4   12.16    1.01
  -2  -7  -4   11.31    0.91
   3   7   3  192.28    5.04
  -3  -7  -3  197.34    4.80
   4   7   2    0.55    0.48
  -4  -7  -2   -0.04    0.33
   5   7   1   93.55    3.26
  -6   6  12    1.96    0.57
  -4   6  10   87.08    2.74
  -3   6   9    1.17    0.44
   3  -6  -9    0.84    0.41
  -2   6   8    3.31    0.59
   2  -6  -8    2.85    0.55
  -1   6   7   17.97    1.06
   1  -6  -7   18.43    1.08
   0   6   6  556.26   11.22
   0  -6  -6  542.62   10.85
   1   6   5    5.63    0.70
  -1  -6  -5    6.06    0.72
   2   6   4   80.24    2.62
  -2  -6  -4   79.03    2.47
   3   6   3   -0.06    0.35
  -3  -6  -3   -0.38    0.23
   4   6   2   14.41    1.14
  -4  -6  -2   14.84    1.04
   5   6   1   41.70    1.98
  -6   5  12   46.26    1.96
  -5   5  11   43.32    1.85
  -4   5  10   63.52    2.19
  -3   5   9  253.79    5.88
   3  -5  -9  253.65    5.61
  -2   5   8  120.95    3.26
   2  -5  -8  119.65    3.17
  -1   5   7  255.20    5.77
   1  -5  -7  263.37    5.64
   0   5   6  120.25    3.26
   0  -5  -6  115.53    3.08
   1   5   5  308.07    6.80
  -1  -5  -5  310.31    6.53
   2   5   4  216.54    5.26
  -2  -5  -4  220.61    4.97
   3   5   3   74.62    2.63
  -3  -5  -3   76.51    2.32
   4   5   2   17.00    1.18
  -4  -5  -2   16.01    1.02
  -6  -5   0    2.02    0.61
  -6   4  12    0.51    0.43
  -5   4  11  105.92    3.11
  -4   4  10   65.59    2.22
  -3   4   9   43.46    1.67
   3  -4  -9   42.64    1.57
  -2   4   8  233.99    5.24
   2  -4  -8  226.16    5.00
  -1   4   7    4.23    0.54
   1  -4  -7    4.45    0.54
   1   4   5  157.65    3.90
  -1  -4  -5  151.85    3.67
   2   4   4  314.41    6.84
  -2  -4  -4  298.70    6.37
   3   4   3   73.85    2.55
  -3  -4  -3   76.54    2.30
  -4  -4  -2  241.01    5.32
  -5  -4  -1  179.79    4.62
  -6  -4   0   -0.22    0.34
   7  -3 -13    0.24    0.39
  -6   3  12    1.58    0.50
   6  -3 -12    2.25    0.57
   5  -3 -11  467.47    9.57
  -4   3  10  111.17    3.08
   4  -3 -10  102.94    2.96
  -3   3   9  278.88    6.25
   3  -3  -9  281.62    5.93
   3  -3  -9  292.61    5.97
  -2   3   8    5.49    0.60
   2  -3  -8    5.37    0.47
   2  -3  -8    4.49    0.55
  -1   3   7  179.79    4.19
   1  -3  -7  178.20    3.99
   0  -3  -6  506.59    9.69
   1   3   5  383.76    8.03
  -1  -3  -5  389.36    7.66
   2   3   4  143.09    3.71
  -2  -3  -4  143.52    3.39
   3   3   3   39.28    1.71
  -3  -3  -3   42.50    1.51
  -4  -3  -2  345.58    7.51
  -4  -3  -2  350.08    7.21
  -5  -3  -1    0.71    0.40
  -6  -3   0   29.39    1.54
  -7  -3   1   -0.13    0.39
  -6   2  12   11.04    0.90
   6  -2 -12   10.85    0.98
  -5   2  11    4.32    0.67
   5  -2 -11    4.55    0.68
  -4   2  10   25.99    1.28
   4  -2 -10   23.02    1.18
  -3   2   9    0.13    0.27
   3  -2  -9    0.85    0.33
   3  -2  -9   -0.15    0.21
  -2   2   8    2.62    0.47
   2  -2  -8    2.08    0.38
   2  -2  -8    2.74    0.42
  -1   2   7  162.16    3.71
   1  -2  -7  158.24    3.59
   1   2   5   29.94    1.25
  -1  -2  -5   29.99    1.16
   2   2   4  229.96    5.29
  -2  -2  -4  230.01    4.85
  -3  -2  -3    0.24    0.28
  -3  -2  -3    0.63    0.30
  -4  -2  -2   10.35    0.72
  -4  -2  -2    9.51    0.83
  -5  -2  -1  278.69    6.44
  -6  -2   0   24.11    1.36
  -7  -2   1  107.49    3.32
  -6   1  12   30.14    1.54
   6  -1 -12   28.50    1.48
  -5   1  11   55.48    2.03
   5  -1 -11   54.05    2.03
  -4   1  10   55.83    1.92
   4  -1 -10   55.16    1.96
  -3   1   9  525.08   10.43
   3  -1  -9  519.22   10.16
  -2   1   8   79.63    2.14
  -2   1   8   76.11    2.16
   2  -1  -8   80.47    2.10
  -1   1   7    9.76    0.63
  -1   1   7    9.48    0.55
   1  -1  -7    9.82    0.64
   1   1   5  254.46    5.55
   1   1   5  269.87    4.95
  -1  -1  -5  263.75    5.34
   3   1   3    0.62    0.23
  -3  -1  -3    1.20    0.32
  -3  -1  -3    0.82    0.32
   4   1   2  307.81    6.21
  -4  -1  -2  298.26    6.22
  -4  -1  -2  315.22    6.75
   5   1   1   13.78    0.86
  -5  -1  -1   14.19    0.97
   6   1   0  130.32    3.45
  -6  -1   0  122.09    3.61
   7   1  -1    5.95    0.80
  -7  -1   1    6.29    0.83
  -8  -1   2    1.60    0.57
  -6   0  12   33.66    1.62
   6   0 -12   31.95    1.52
  -5   0  11    0.81    0.42
   5   0 -11    1.60    0.47
  -4   0  10  164.96    4.13
   4   0 -10  171.81    4.18
  -3   0   9  492.49    9.83
  -2   0   8    4.05    0.47
  -2   0   8    4.27    0.50
   2   0  -8    4.00    0.42
  -1   0   7  590.29   10.94
   0   0   6   90.23    2.18
   0   0   6   84.53    2.02
   0   0  -6   86.38    2.19
   2   0   4   98.22    2.15
   2   0   4   90.58    2.44
  -2   0  -4   90.35    2.26
   3   0   3  427.63    8.10
  -3   0  -3  435.18    8.22
  -3   0  -3  425.37    8.63
   4   0   2  181.78    4.01
  -4   0  -2  183.02    3.96
  -4   0  -2  183.24    4.34
   5   0   1    1.38    0.41
  -5   0  -1    1.99    0.48
   6   0   0  137.40    3.62
  -6   0   0  140.68    3.79
   7   0  -1   13.18    0.99
  -7   0   1   16.65    1.14
   8   0  -2   36.87    1.75
  -8   0   2   35.68    1.77
  -6  -1  12    3.11    0.62
   6   1 -12    5.52    0.84
  -5  -1  11   56.42    2.12
   5   1 -11   55.37    2.14
  -4  -1  10  310.49    6.75
   4   1 -10  302.38    6.63
  -3  -1   9    4.32    0.57
  -3  -1   9    3.39    0.50
  -2  -1   8   60.23    1.82
  -2  -1   8   57.03    1.72
   2   1  -8   58.46    1.67
  -1  -1   7  202.35    4.31
  -1  -1   7  206.14    4.27
   1   1  -7  200.97    4.20
   0  -1   6    4.73    0.38
   0  -1   6    5.80    0.48
   0   1  -6    5.42    0.48
   1  -1   5  249.39    5.03
   1  -1   5  247.46    4.88
  -1   1  -5  249.87    5.02
   2  -1   4  223.66    4.71
   2  -1   4  219.55    4.42
  -2   1  -4  220.97    4.53
   3  -1   3   49.44    1.49
  -3   1  -3   50.39    1.59
  -3   1  -3   49.12    1.48
  -4   1  -2  950.14   18.06
   5  -1   1    0.17    0.28
  -5   1  -1    0.20    0.31
   6  -1   0   13.33    0.92
  -6   1   0   16.45    1.05
   7  -1  -1    9.26    0.88
  -7   1   1    9.03    0.91
   8  -1  -2  100.05    3.11
  -8   1   2  102.20    3.29
   6   2 -12    2.93    0.67
  -5  -2  11   18.13    1.12
   5   2 -11   14.76    1.06
  -4  -2  10  300.77    6.67
  -3  -2   9 1000.00   18.51
  -2  -2   8   93.13    2.39
  -2  -2   8   91.50    2.51
   2   2  -8   92.40    2.31
  -1  -2   7  242.77    4.93
  -1  -2   7  246.79    5.08
   1   2  -7  245.20    5.00
   0  -2   6   29.47    1.08
   0  -2   6   30.43    0.89
   0   2  -6   29.10    1.07
   3  -2   3  214.49    4.50
  -3   2  -3  220.78    4.45
  -3   2  -3  216.14    4.61
   4  -2   2  507.09    9.65
  -4   2  -2  501.65    9.48
  -4   2  -2  503.64   10.02
   5  -2   1  255.87    5.52
  -5   2  -1  255.28    5.74
   6  -2   0  673.23   13.31
  -6   2   0  717.75   13.87
   7  -2  -1   48.70    1.90
  -7   2   1   47.81    1.94
   8  -2  -2  112.12    3.33
  -8   2   2  114.97    3.48
   6   3 -12   40.60    1.89
   5   3 -11    6.68    0.85
  -4  -3  10   53.18    2.01
  -3  -3   9   48.24    1.74
  -3  -3   9   51.55    1.81
  -2  -3   8   91.09    2.56
  -2  -3   8   90.86    2.37
   2   3  -8   90.34    2.36
  -1  -3   7  145.06    3.07
  -1  -3   7  141.95    3.33
   1   3  -7  137.99    3.23
   0  -3   6   15.52    0.52
   0  -3   6   14.96    0.80
   0   3  -6   13.21    0.71
   1  -3   5   41.08    1.33
   1  -3   5   43.19    0.96
  -1   3  -5   42.76    1.33
  -2   3  -4  442.11    8.38
   3  -3   3   37.49    1.33
  -3   3  -3   39.02    1.25
  -3   3  -3   38.27    1.21
   4  -3   2    0.62    0.27
  -4   3  -2    0.34    0.26
  -4   3  -2    0.41    0.23
   5  -3   1   91.05    2.53
  -5   3  -1   91.88    2.61
   6  -3   0   57.25    2.01
  -6   3   0   59.35    2.10
   7  -3  -1   55.60    2.04
  -7   3   1   52.74    2.07
   8  -3  -2    4.41    0.69
  -8   3   2    6.48    0.79
   5   4 -11   24.85    1.42
  -4  -4  10    3.06    0.60
  -3  -4   9   40.28    1.64
  -2  -4   8   10.99    0.78
   2   4  -8   10.70    0.71
  -1  -4   7  641.46   12.09
   0  -4   6  102.74    2.63
   0   4  -6   99.28    2.52
   1  -4   5   97.13    2.45
  -1   4  -5   98.29    2.45
   2  -4   4    2.89    0.42
  -2   4  -4    3.59    0.43
   3  -4   3  302.48    6.11
  -3   4  -3  305.87    6.01
  -3   4  -3  303.45    6.05
   5  -4   1   84.45    2.43
  -5   4  -1   85.31    2.44
   6  -4   0  214.80    4.94
  -6   4   0  213.22    5.03
   7  -4  -1    2.41    0.57
  -7   4   1    3.04    0.62
   8  -4  -2  140.32    3.87
  -8   4   2  144.18    4.07
   5   5 -11   19.05    1.27
  -4  -5  10   62.49    2.24
  -3  -5   9    0.04    0.27
  -2  -5   8   22.17    1.13
   2   5  -8   20.66    1.02
  -1  -5   7   75.58    2.22
   1   5  -7   80.18    2.23
   0  -5   6  128.79    3.15
   0   5  -6  127.14    3.06
   1  -5   5  184.64    4.10
  -1   5  -5  185.33    4.02
   2  -5   4  219.08    4.70
  -2   5  -4  224.63    4.69
   3  -5   3  197.95    4.33
  -3   5  -3  198.13    4.26
   4  -5   2   22.19    1.06
  -4   5  -2   23.04    0.98
   5  -5   1  191.43    4.50
  -5   5  -1  192.85    4.45
   6  -5   0   34.71    1.54
  -6   5   0   33.87    1.49
   7  -5  -1    0.27    0.34
  -7   5   1    0.45    0.39
   8  -5  -2    8.79    0.90
  -8   5   2   11.39    1.03
  -4  -6  10   62.37    2.32
  -3  -6   9    8.93    0.86
  -2  -6   8  151.89    3.86
   2   6  -8  157.44    3.75
  -1  -6   7    1.36    0.43
   1   6  -7    1.00    0.35
   0  -6   6  359.66    7.21
   0   6  -6  354.37    7.17
   1  -6   5   12.46    0.80
  -1   6  -5   13.47    0.81
   2  -6   4   16.28    0.89
  -2   6  -4   15.36    0.85
   3  -6   3   53.21    1.73
  -3   6  -3   50.86    1.66
   4  -6   2    8.33    0.71
  -4   6  -2    7.73    0.63
   5  -6   1   50.34    1.80
  -5   6  -1   51.37    1.66
   6  -6   0   16.20    1.02
   7  -6  -1   44.42    1.82
   8  -6  -2   24.88    1.39
  -4  -7  10   49.53    2.06
  -3  -7   9    0.71    0.39
  -2  -7   8   67.54    2.24
   2   7  -8   68.62    2.18
  -1  -7   7   58.11    1.98
   1   7  -7   56.95    1.94
   0  -7   6   20.62    1.08
   0   7  -6   19.76    1.04
   1  -7   5  169.17    4.00
  -1   7  -5  171.22    3.97
   2  -7   4   14.92    0.85
  -2   7  -4   14.37    0.89
   3  -7   3  198.73    4.49
  -3   7  -3  197.12    4.45
   4  -7   2    3.79    0.56
  -4   7  -2    5.02    0.56
   5  -7   1  139.64    3.55
  -5   7  -1  137.09    3.36
   6  -7   0   52.25    1.89
   7  -7  -1   41.51    1.81
   8  -7  -2  146.10    3.93
  -3  -8   9   13.64    1.01
  -2  -8   8  123.49    3.41
   2   8  -8  121.95    3.32
  -1  -8   7  112.93    3.18
   1   8  -7  121.22    3.21
   0   8  -6  675.92   13.00
   1  -8   5   83.94    2.47
  -1   8  -5   85.88    2.50
   2  -8   4   10.96    0.80
  -2   8  -4   11.10    0.81
   3  -8   3   37.84    1.47
  -3   8  -3   36.05    1.44
   4  -8   2   94.55    2.67
  -4   8  -2   89.30    2.59
   5  -8   1  487.62    9.82
  -5   8  -1  496.78    9.77
   6  -8   0   -0.26    0.30
   7  -8  -1   28.49    1.46
  -3  -9   9    8.45    0.89
  -2  -9   8    0.20    0.37
   2   9  -8   -0.65    0.26
  -1  -9   7   35.35    1.60
   1   9  -7   35.65    1.53
   0  -9   6    1.54    0.45
   0   9  -6    0.90    0.44
   1  -9   5   15.07    0.96
  -1   9  -5   14.63    0.96
   2  -9   4  153.79    3.88
  -2   9  -4  159.91    3.92
   3  -9   3   74.47    2.36
  -3   9  -3   75.33    2.35
   4  -9   2   26.26    1.30
  -4   9  -2   24.71    1.24
   5  -9   1   57.91    2.04
  -5   9  -1   56.56    2.02
   6  -9   0    6.88    0.78
   7  -9  -1    5.76    0.84
  -2 -10   8  200.23    4.95
   2  10  -8  193.88    4.84
  -1 -10   7    0.50    0.37
   1  10  -7    0.49    0.42
   0 -10   6   12.29    0.94
   0  10  -6   11.95    0.94
   1 -10   5    0.23    0.36
  -1  10  -5    0.26    0.33
   2 -10   4   48.15    1.84
  -2  10  -4   49.67    1.87
   3 -10   3  210.74    4.91
  -3  10  -3  209.51    4.94
   4 -10   2   -0.14    0.27
  -4  10  -2   -0.38    0.27
   5 -10   1    1.45    0.49
  -5  10  -1    0.48    0.39
   6 -10   0    4.61    0.69
   7 -10  -1  188.99    4.75
  -2 -11   8    0.27    0.39
  -1 -11   7   -0.12    0.34
   1  11  -7    0.08    0.37
   0 -11   6  143.23    3.93
   0  11  -6  150.79    3.94
   1 -11   5    7.32    0.82
  -1  11  -5    6.72    0.77
   2 -11   4   51.44    1.99
  -2  11  -4   54.55    2.03
   3 -11   3    0.55    0.40
  -3  11  -3   -0.01    0.35
   4 -11   2   52.68    2.00
  -4  11  -2   53.92    2.03
   5 -11   1    3.93    0.65
  -5  11  -1    4.53    0.70
   6 -11   0    4.16    0.76
   0 -12   6   -0.27    0.33
   0  12  -6   -0.10    0.33
   1 -12   5   11.39    1.04
  -1  12  -5   10.78    0.96
   2 -12   4    3.60    0.66
  -2  12  -4    3.45    0.62
   3 -12   3    0.71    0.40
  -3  12  -3    0.58    0.40
   4 -12   2   27.63    1.47
  -4  12  -2   28.57    1.48
   5 -12   1   13.58    1.03
   3 -10 -10    4.83    0.79
  -2  10   9   39.54    1.87
   2 -10  -9   40.01    1.87
  -1  10   8   21.89    1.41
   1 -10  -8   20.08    1.28
   0  10   7    3.38    0.71
   0 -10  -7    2.45    0.59
   1  10   6   13.18    1.05
   3  -9 -10   22.09    1.42
  -2   9   9    0.97    0.48
   2  -9  -9    0.83    0.46
  -1   9   8   13.50    1.14
   1  -9  -8   11.31    1.00
   0   9   7  145.27    4.06
   0  -9  -7  135.05    3.83
   1   9   6    0.01    0.42
  -1  -9  -6    0.90    0.45
   2   9   5   52.76    2.18
  -2  -9  -5   50.47    2.07
   3   9   4   10.16    1.07
  -3  -9  -4   10.78    0.99
  -4   8  11   46.46    2.02
  -3   8  10  224.45    5.52
   3  -8 -10  230.28    5.59
  -2   8   9   -0.09    0.35
   2  -8  -9   -0.14    0.33
  -1   8   8  165.59    4.34
   1  -8  -8  159.86    4.14
   0   8   7    6.44    0.79
   0  -8  -7    7.82    0.85
   1   8   6   69.48    2.51
  -1  -8  -6   70.42    2.43
   2   8   5   74.16    2.60
  -2  -8  -5   69.28    2.47
   3   8   4   15.48    1.22
  -3  -8  -4   14.00    1.14
   4   8   3   23.53    1.48
  -4  -8  -3   26.79    1.45
  -5   7  12   71.71    2.58
  -4   7  11    6.32    0.81
  -3   7  10    0.04    0.36
   3  -7 -10    0.10    0.34
  -2   7   9    3.26    0.64
   2  -7  -9    3.23    0.63
  -1   7   8    4.19    0.65
   1  -7  -8    5.56    0.70
   0   7   7  143.14    3.88
   0  -7  -7  140.61    3.64
   1   7   6    3.71    0.66
  -1  -7  -6    3.51    0.61
   2   7   5   40.29    1.83
  -2  -7  -5   40.59    1.75
   3   7   4   64.32    2.46
  -3  -7  -4   59.32    2.27
   4   7   3   52.81    2.25
  -4  -7  -3   50.97    2.12
  -4   6  11   -0.20    0.32
  -3   6  10  159.21    4.20
   3  -6 -10  157.44    4.08
  -2   6   9   -0.22    0.29
   2  -6  -9    0.30    0.36
  -1   6   8  120.70    3.38
   1  -6  -8  128.89    3.39
   0   6   7    3.00    0.59
   0  -6  -7    4.52    0.65
   1   6   6  123.89    3.53
  -1  -6  -6  136.28    3.47
   2   6   5   72.31    2.52
  -2  -6  -5   67.21    2.33
   3   6   4    0.41    0.43
  -3  -6  -4    0.20    0.31
   4   6   3   89.75    3.14
  -4  -6  -3   89.29    2.87
   5   6   2   10.21    1.08
  -5   5  12   17.89    1.18
  -4   5  11  203.14    4.98
  -3   5  10    5.88    0.73
   3  -5 -10    6.39    0.74
  -2   5   9    0.15    0.31
   2  -5  -9    0.52    0.35
  -1   5   8   37.10    1.56
   1  -5  -8   37.62    1.53
   0   5   7    0.41    0.33
   0  -5  -7    0.06    0.28
   1   5   6  400.90    8.54
  -1  -5  -6  401.20    8.21
   2   5   5   35.69    1.63
  -2  -5  -5   36.62    1.57
   3   5   4    1.13    0.48
  -3  -5  -4    0.92    0.44
   4   5   3    1.50    0.55
  -4  -5  -3    1.61    0.48
   5   5   2   45.51    2.11
  -6   4  13   21.93    1.31
  -5   4  12   11.82    1.02
  -4   4  11    1.80    0.49
  -3   4  10    7.38    0.75
   3  -4 -10    7.45    0.73
  -2   4   9  567.66   11.43
   2  -4  -9  573.01   11.02
  -1   4   8    0.26    0.31
   1  -4  -8    0.08    0.27
   0   4   7    7.94    0.72
   0  -4  -7    7.77    0.69
   1   4   6   15.59    0.97
  -1  -4  -6   13.97    0.87
   2   4   5    3.74    0.62
  -2  -4  -5    3.13    0.50
   3   4   4  151.72    4.13
  -3  -4  -4  156.11    3.84
   4   4   3    3.66    0.68
  -4  -4  -3    2.79    0.53
  -5  -4  -2   40.17    1.81
  -6  -4  -1   51.84    2.10
  -6   3  13  131.46    3.81
  -5   3  12    0.47    0.39
  -4   3  11  121.67    3.38
  -3   3  10  100.63    2.91
  -2   3   9   46.61    1.73
   2  -3  -9   47.44    1.63
  -1   3   8  289.95    6.33
   1  -3  -8  299.35    6.15
   0   3   7    2.31    0.45
   0  -3  -7    2.94    0.47
   1   3   6  209.62    4.83
  -1  -3  -6  206.34    4.58
   2   3   5   16.13    1.02
  -2  -3  -5   15.82    0.93
   3   3   4  545.98   11.30
  -3  -3  -4  549.62   10.60
  -4  -3  -3   35.85    1.49
  -5  -3  -2    1.53    0.49
  -6  -3  -1   53.60    2.18
  -7  -3   0    1.64    0.56
  -6   2  13    3.34    0.64
   6  -2 -13    4.78    0.74
  -5   2  12    0.92    0.42
   5  -2 -12    1.04    0.43
   4  -2 -11  399.08    8.27
  -3   2  10   87.48    2.54
   3  -2 -10   80.56    2.40
  -2   2   9  229.77    5.19
   2  -2  -9  229.77    4.97
   2  -2  -9  235.59    4.93
  -1   2   8   31.19    1.26
   1  -2  -8   30.54    1.22
   0   2   7  270.65    5.83
   0  -2  -7  274.27    5.68
   1   2   6  370.46    7.72
  -1  -2  -6  376.71    7.42
   2   2   5  129.09    3.41
  -2  -2  -5  131.63    3.15
   3   2   4  199.16    4.90
  -3  -2  -4  207.94    4.53
  -4  -2  -3   52.29    1.77
  -4  -2  -3   52.74    1.89
  -5  -2  -2  218.85    5.30
  -6  -2  -1   77.92    2.66
  -7  -2   0   79.71    2.87
  -6   1  13   48.31    2.03
   6  -1 -13   48.83    2.04
  -5   1  12   -0.41    0.26
   5  -1 -12    0.64    0.37
  -4   1  11   19.60    1.12
   4  -1 -11   17.90    1.09
  -3   1  10    0.77    0.34
   3  -1 -10    1.10    0.40
  -2   1   9   13.23    0.81
  -2   1   9   13.11    0.77
   2  -1  -9   11.93    0.74
  -1   1   8  364.62    7.03
  -1   1   8  373.92    7.51
   1  -1  -8  355.67    7.22
   0   1   7   38.18    1.36
   0   1   7   41.80    1.18
   0  -1  -7   40.63    1.41
   1   1   6  183.30    4.22
   1   1   6  193.78    3.75
  -1  -1  -6  181.84    4.08
   2   1   5   14.73    0.90
   2   1   5   14.88    0.63
  -2  -1  -5   13.71    0.80
   3   1   4  344.95    6.57
  -3  -1  -4  336.66    6.86
  -4  -1  -3  202.05    4.78
  -4  -1  -3  203.12    4.49
  -5  -1  -2    4.38    0.67
  -6  -1  -1    0.75    0.42
  -7  -1   0    1.31    0.49
  -6   0  13    2.19    0.60
   6   0 -13    2.51    0.55
  -5   0  12    3.98    0.64
   5   0 -12    4.20    0.70
  -4   0  11  177.24    4.42
   4   0 -11  179.34    4.47
  -3   0  10    2.45    0.45
  -2   0   9  231.26    5.02
  -2   0   9  233.35    5.16
   2   0  -9  235.03    4.98
  -1   0   8    1.66    0.36
  -1   0   8    2.37    0.38
   1   0  -8    1.94    0.36
   0   0   7   16.01    0.71
   0   0   7   16.67    0.78
   0   0  -7   16.53    0.84
   1   0   6  130.60    3.04
   1   0   6  125.76    2.76
  -1   0  -6  124.79    2.96
   2   0   5   64.96    1.66
   2   0   5   66.04    2.00
  -2   0  -5   64.42    1.85
   3   0   4  300.21    5.94
  -3   0  -4  301.91    6.14
  -3   0  -4  307.78    6.40
   4   0   3    0.50    0.27
  -4   0  -3    0.59    0.34
  -4   0  -3    0.54    0.26
   5   0   2  212.31    4.72
  -5   0  -2  207.54    4.94
   6   0   1    1.33    0.45
  -6   0  -1    0.95    0.45
   7   0   0  108.96    3.21
  -7   0   0  108.27    3.38
  -8   0   1   10.93    1.09
  -6  -1  13    0.89    0.47
   6   1 -13   -0.07    0.34
  -5  -1  12   67.70    2.40
   5   1 -12   67.38    2.44
  -4  -1  11    0.38    0.33
   4   1 -11    1.20    0.44
  -3  -1  10    0.62    0.33
  -3  -1  10   -0.08    0.24
  -2  -1   9  254.24    5.59
  -2  -1   9  264.21    5.59
   2   1  -9  270.69    5.47
  -1  -1   8   32.07    1.20
  -1  -1   8   30.71    1.14
   1   1  -8   30.71    1.18
   0  -1   7  161.29    3.54
   0  -1   7  165.03    3.57
   0   1  -7  165.71    3.62
   1  -1   6   56.59    1.60
   1  -1   6   56.57    1.59
  -1   1  -6   56.74    1.67
   2  -1   5  252.43    5.12
   2  -1   5  258.19    5.48
  -2   1  -5  259.80    5.30
   3  -1   4    4.83    0.50
  -3   1  -4    3.22    0.44
  -3   1  -4    3.19    0.45
   4  -1   3   18.94    0.92
  -4   1  -3   19.72    1.01
  -4   1  -3   18.16    0.91
   5  -1   2   55.83    1.86
  -5   1  -2   57.26    2.02
   6  -1   1    0.61    0.35
  -6   1  -1    0.83    0.43
   7  -1   0   73.45    2.46
  -7   1   0   69.55    2.51
   8  -1  -1   15.89    1.16
  -8   1   1   17.03    1.26
   5   2 -12   38.81    1.77
  -4  -2  11    0.51    0.36
  -3  -2  10  278.28    6.17
  -3  -2  10  290.61    6.22
  -2  -2   9    1.88    0.38
  -2  -2   9    2.11    0.46
   2   2  -9    2.14    0.40
  -1  -2   8    0.06    0.17
  -1  -2   8   -0.20    0.21
   1   2  -8   -0.11    0.22
   0  -2   7  116.93    2.57
   0  -2   7  113.16    2.75
   0   2  -7  115.06    2.77
   1  -2   6  241.08    4.96
   1  -2   6  247.31    4.86
  -1   2  -6  236.63    4.99
   3  -2   4  284.59    5.77
  -3   2  -4  291.91    5.95
  -3   2  -4  287.24    5.81
   4  -2   3   77.21    2.19
  -4   2  -3   77.34    2.24
  -4   2  -3   76.90    2.09
   5  -2   2  116.41    3.02
  -5   2  -2  116.64    3.13
   6  -2   1  119.96    3.23
  -6   2  -1  116.41    3.33
   7  -2   0    0.62    0.38
  -7   2   0    0.84    0.43
   8  -2  -1   23.28    1.34
  -8   2   1   26.14    1.49
   5   3 -12   46.20    1.98
  -4  -3  11   42.51    1.81
  -3  -3  10   21.13    1.14
  -2  -3   9   70.73    2.24
   2   3  -9   70.50    2.08
  -1  -3   8   25.34    1.13
   1   3  -8   26.65    1.08
   1  -3   6    0.16    0.22
  -1   3  -6    0.01    0.21
   2  -3   5   58.16    1.71
   2  -3   5   57.40    1.51
  -2   3  -5   59.43    1.70
   3  -3   4   93.70    2.42
  -3   3  -4   94.42    2.32
  -3   3  -4   91.24    2.37
   4  -3   3  250.18    5.31
  -4   3  -3  253.99    5.20
  -4   3  -3  249.91    5.41
   5  -3   2  171.17    4.04
  -5   3  -2  171.75    4.16
   6  -3   1   23.40    1.17
  -6   3  -1   23.33    1.22
   7  -3   0  256.66    5.81
  -7   3   0  251.92    6.03
   8  -3  -1   -0.05    0.31
  -8   3   1   -0.29    0.31
   5   4 -12  161.32    4.32
  -4  -4  11   11.67    1.01
  -3  -4  10   66.42    2.25
  -2  -4   9    2.61    0.51
   2   4  -9    2.45    0.45
  -1  -4   8  527.84   10.28
   1   4  -8  534.72   10.18
   0  -4   7  392.53    7.79
   0   4  -7  400.22    7.79
   1  -4   6    1.38    0.35
  -1   4  -6    1.32    0.33
   2  -4   5   34.08    1.25
  -2   4  -5   33.53    1.22
   3  -4   4   37.10    1.34
  -3   4  -4   37.24    1.32
   4  -4   3  453.31    9.06
  -4   4  -3  464.08    8.85
   5  -4   2   23.95    1.19
  -5   4  -2   24.36    1.05
  -5   4  -2   24.34    1.15
   6  -4   1   33.00    1.45
  -6   4  -1   33.81    1.46
   7  -4   0    1.70    0.48
  -7   4   0    2.25    0.55
   8  -4  -1    0.43    0.41
  -8   4   1    0.19    0.40
   5   5 -12   18.53    1.29
  -4  -5  11    5.42    0.76
  -3  -5  10   47.89    1.86
  -2  -5   9    1.55    0.44
   2   5  -9    1.86    0.44
  -1  -5   8    3.46    0.56
   1   5  -8    2.85    0.47
   0  -5   7  277.80    5.95
   0   5  -7  292.21    5.98
   1  -5   6   49.75    1.61
  -1   5  -6   49.38    1.63
   2  -5   5    3.96    0.51
  -2   5  -5    1.86    0.35
   3  -5   4   38.86    1.47
  -3   5  -4   39.65    1.38
   4  -5   3  126.77    3.17
  -4   5  -3  128.47    3.12
   5  -5   2  304.38    6.50
  -5   5  -2  310.40    6.27
   6  -5   1   23.53    1.24
   7  -5   0   32.28    1.51
   8  -5  -1    5.41    0.78
  -4  -6  11    1.50    0.54
  -3  -6  10   13.15    0.99
  -2  -6   9   15.52    1.00
   2   6  -9   14.63    0.92
  -1  -6   8  223.04    5.07
   1   6  -8  224.98    4.97
   0  -6   7  314.72    6.55
   0   6  -7  309.30    6.47
   1  -6   6   15.85    0.89
  -1   6  -6   15.34    0.87
   2  -6   5   63.65    1.92
  -2   6  -5   59.30    1.89
   3  -6   4    7.69    0.70
  -3   6  -4    7.86    0.66
   4  -6   3  479.19    9.31
  -4   6  -3  464.36    9.18
   5  -6   2   29.18    1.37
  -5   6  -2   29.05    1.23
   6  -6   1   25.25    1.26
   7  -6   0    7.72    0.84
   8  -6  -1   44.29    1.90
  -4  -7  11   87.20    2.91
  -3  -7  10   32.35    1.58
  -2  -7   9    0.86    0.40
   2   7  -9    1.91    0.47
  -1  -7   8  286.78    6.17
   1   7  -8  281.44    6.07
   0  -7   7   12.27    0.85
   0   7  -7   12.32    0.84
   1  -7   6  282.93    5.84
  -1   7  -6  255.46    5.71
   2  -7   5   73.68    2.17
  -2   7  -5   68.56    2.11
   3  -7   4  104.47    2.83
  -3   7  -4  102.86    2.75
   4  -7   3   57.58    1.92
  -4   7  -3   53.69    1.80
   5  -7   2    0.77    0.36
  -5   7  -2    1.06    0.39
   6  -7   1   85.32    2.61
   7  -7   0    0.04    0.32
  -3  -8  10   76.56    2.59
  -2  -8   9    0.35    0.36
   2   8  -9    0.41    0.35
  -1  -8   8    2.88    0.56
   1   8  -8    3.05    0.53
   0  -8   7    2.06    0.48
   0   8  -7    2.17    0.49
   1  -8   6    0.34    0.33
  -1   8  -6    0.29    0.31
   2  -8   5  103.25    2.86
  -2   8  -5  100.87    2.84
   3  -8   4    0.82    0.38
  -3   8  -4    1.03    0.38
   4  -8   3   94.77    2.74
  -4   8  -3  100.32    2.70
   5  -8   2   27.74    1.32
  -5   8  -2   27.79    1.29
   6  -8   1   16.12    1.05
   7  -8   0   65.66    2.31
  -3  -9  10   69.91    2.55
  -2  -9   9    7.50    0.86
   2   9  -9    8.09    0.80
  -1  -9   8  122.95    3.48
   1   9  -8  122.36    3.38
   0  -9   7  127.15    3.44
   0   9  -7  128.86    3.45
   1  -9   6  433.48    8.81
  -1   9  -6  426.03    8.85
   2  -9   5   18.43    1.08
  -2   9  -5   18.55    1.12
   3  -9   4   84.89    2.54
  -3   9  -4   85.51    2.59
   4  -9   3  274.22    6.05
   5  -9   2   47.78    1.85
  -5   9  -2   45.41    1.74
   7  -9   0    9.93    0.95
  -2 -10   9   13.85    1.06
  -1 -10   8    0.68    0.44
   1  10  -8    0.83    0.42
   0 -10   7    9.52    0.87
   0  10  -7    8.59    0.86
   1 -10   6   65.71    2.26
  -1  10  -6   64.05    2.23
   2 -10   5   12.44    0.94
  -2  10  -5   16.47    1.04
   3 -10   4   95.64    2.85
  -3  10  -4   95.21    2.87
   4 -10   3    0.19    0.36
  -4  10  -3    1.05    0.45
   5 -10   2   11.12    0.98
  -5  10  -2    8.60    0.82
   6 -10   1    2.05    0.57
   7 -10   0    1.13    0.46
   1  11  -8   46.05    1.93
   0  11  -7   14.73    1.07
   1 -11   6   30.08    1.47
  -1  11  -6   26.99    1.38
   2 -11   5   37.34    1.66
  -2  11  -5   37.04    1.62
   3 -11   4   39.45    1.73
  -3  11  -4   39.66    1.71
   4 -11   3   39.24    1.72
  -4  11  -3   43.22    1.80
   5 -11   2    0.75    0.44
  -5  11  -2    1.35    0.50
   6 -11   1   61.02    2.24
   1 -12   6   45.86    1.95
  -1  12  -6   48.19    1.93
   2 -12   5    0.69    0.46
  -2  12  -5    0.96    0.47
   3 -12   4  101.86    3.05
  -3  12  -4  100.35    3.03
   4 -12   3   16.36    1.14
  -4  12  -3   16.89    1.16
   5 -12   2   77.10    2.68
   3 -13   4   11.89    1.06
   2  -9 -10  106.23    3.28
   1  -9  -9    6.34    0.83
   0   9   8   17.47    1.22
   0  -9  -8   17.32    1.18
   1   9   7   14.63    1.10
  -1  -9  -7   10.71    1.00
  -2  -9  -6   46.16    2.02
  -3   8  11   20.91    1.33
  -2   8  10   20.08    1.26
   2  -8 -10   19.32    1.26
  -1   8   9   22.63    1.39
   1  -8  -9   28.07    1.43
   0   8   8   29.66    1.54
   0  -8  -8   31.26    1.57
   1   8   7  109.43    3.49
  -1  -8  -7  118.26    3.34
   2   8   6    3.99    0.72
  -2  -8  -6    3.17    0.63
   3   8   5   53.57    2.26
  -3  -8  -5   52.02    2.15
  -4  -8  -4    0.44    0.45
  -4   7  12   87.66    2.82
  -3   7  11   13.88    1.03
  -2   7  10  351.05    7.81
   2  -7 -10  350.99    7.62
  -1   7   9   27.51    1.45
   1  -7  -9   25.08    1.36
   0   7   8  150.06    4.11
   0  -7  -8  156.08    4.05
   1   7   7   10.62    1.01
  -1  -7  -7   10.13    0.90
  -2  -7  -6  113.21    3.25
   3   7   5   54.34    2.26
  -3  -7  -5   55.05    2.13
   4   7   4    9.24    0.98
  -4   6  12   51.78    2.08
  -3   6  11   53.29    2.05
  -2   6  10   63.68    2.28
   2  -6 -10   64.57    2.26
  -1   6   9    9.74    0.91
   1  -6  -9   10.64    0.95
   0   6   8    8.31    0.83
   0  -6  -8    8.69    0.86
   1   6   7   48.71    1.99
  -1  -6  -7   47.71    1.88
   2   6   6   91.76    2.92
  -2  -6  -6   82.16    2.70
   3   6   5   32.19    1.67
  -3  -6  -5   33.20    1.52
   4   6   4   16.00    1.22
  -4  -6  -4   15.85    1.11
   5   6   3    6.67    0.96
  -5   5  13   45.91    1.98
  -4   5  12  189.67    4.79
  -3   5  11   12.59    0.93
  -2   5  10   91.37    2.76
   2  -5 -10   89.70    2.69
  -1   5   9    3.51    0.61
   1  -5  -9    2.72    0.56
   0   5   8  499.74   10.33
   0  -5  -8  501.87   10.02
   1   5   7   20.58    1.22
  -1  -5  -7   18.54    1.10
   2   5   6   67.80    2.45
  -2  -5  -6   66.95    2.27
   3   5   5  146.85    4.03
  -3  -5  -5  136.28    3.70
   4   5   4   23.19    1.47
  -4  -5  -4   22.54    1.29
   5   5   3   94.15    3.24
  -5   4  13  144.17    3.98
  -4   4  12   24.29    1.32
  -3   4  11  242.30    5.66
  -2   4  10   49.98    1.88
   2  -4 -10   45.08    1.71
  -1   4   9   60.51    2.04
   1  -4  -9   54.29    1.91
   0   4   8  211.69    4.95
   0  -4  -8  207.42    4.78
   1   4   7    0.25    0.33
  -1  -4  -7   -0.24    0.25
   2   4   6  274.33    6.31
  -2  -4  -6  272.98    5.99
   3   4   5    3.02    0.63
  -3  -4  -5    3.35    0.55
   4   4   4   72.31    2.63
  -4  -4  -4   68.16    2.35
   5   4   3    0.03    0.40
  -5   3  13    6.08    0.76
  -4   3  12    4.58    0.67
  -3   3  11   60.70    2.10
  -2   3  10   70.38    2.25
   2  -3 -10   63.65    2.06
  -1   3   9   21.00    1.10
   1  -3  -9   21.74    1.11
   0   3   8   59.85    2.01
   0  -3  -8   59.24    1.95
   1   3   7    9.42    0.80
  -1  -3  -7    8.31    0.72
   2   3   6   14.95    1.00
  -2  -3  -6   14.17    0.91
   3   3   5   84.61    2.72
  -3  -3  -5   81.61    2.42
   4   3   4   27.89    1.51
  -4  -3  -4   28.93    1.35
  -6  -3  -2   87.14    2.87
  -7  -3  -1   28.12    1.57
  -6   2  14   39.59    1.86
  -5   2  13  114.55    3.40
  -4   2  12   26.38    1.33
  -3   2  11  146.84    3.79
  -2   2  10   64.86    2.12
   2  -2 -10   62.26    1.99
  -1   2   9   67.70    2.08
   1  -2  -9   69.57    2.10
   0   2   8  233.05    5.20
   0  -2  -8  233.44    5.08
   1   2   7   16.09    0.93
  -1  -2  -7   15.83    0.94
   2   2   6  382.08    8.23
  -2  -2  -6  394.01    7.87
   3   2   5    1.16    0.45
  -3  -2  -5    1.65    0.42
   4   2   4  263.73    6.22
  -4  -2  -4  265.17    5.77
  -5  -2  -3   38.20    1.65
  -6  -2  -2   16.75    1.14
  -7  -2  -1   53.81    2.25
  -6   1  14   14.96    1.15
   6  -1 -14   16.04    1.18
  -5   1  13  106.67    3.15
   5  -1 -13  101.63    3.15
  -4   1  12   43.60    1.76
   4  -1 -12   43.62    1.79
  -3   1  11  184.77    4.43
   3  -1 -11  177.46    4.32
  -2   1  10    0.22    0.28
  -2   1  10    0.38    0.29
   2  -1 -10    0.37    0.30
  -1   1   9  337.99    7.12
   1  -1  -9  344.56    6.93
   0   1   8    0.12    0.22
   0  -1  -8   -0.06    0.23
   1   1   7  177.63    4.18
  -1  -1  -7  177.38    4.03
   2   1   6   50.60    1.80
  -2  -1  -6   50.55    1.68
   3   1   5   32.08    1.46
  -3  -1  -5   31.79    1.30
  -4  -1  -4   25.30    1.24
  -4  -1  -4   23.25    1.15
  -5  -1  -3    8.37    0.82
  -6  -1  -2  107.73    3.25
  -7  -1  -1    8.05    0.94
  -5   0  13    0.08    0.32
   5   0 -13   -0.30    0.30
  -4   0  12   55.19    2.03
   4   0 -12   55.75    2.13
  -3   0  11   10.74    0.81
  -2   0  10    7.92    0.68
  -2   0  10    8.90    0.76
   2   0 -10    9.47    0.69
  -1   0   9   11.97    0.74
  -1   0   9   12.23    0.76
   1   0  -9   10.51    0.76
   0   0   8  201.07    4.43
   0   0   8  201.75    4.18
   0   0  -8  191.07    4.34
   1   0   7  106.90    2.75
   1   0   7  108.32    2.52
  -1   0  -7  105.80    2.74
   2   0   6   15.29    0.72
   2   0   6   14.01    0.86
  -2   0  -6   15.99    0.88
   3   0   5    1.93    0.36
   3   0   5    0.97    0.38
  -3   0  -5    2.29    0.42
   4   0   4  249.66    5.18
  -4   0  -4  245.06    5.54
  -4   0  -4  244.79    5.28
   5   0   3   11.41    0.81
  -5   0  -3   10.88    0.92
  -6   0  -2    0.26    0.41
  -7   0  -1   15.13    1.11
  -8   0   0    7.59    0.90
   5   1 -13   70.54    2.54
  -4  -1  12    3.62    0.62
   4   1 -12    3.59    0.64
  -3  -1  11  149.72    3.75
  -3  -1  11  145.05    3.75
  -2  -1  10    6.80    0.69
  -2  -1  10    5.33    0.57
   2   1 -10    5.44    0.58
  -1  -1   9  687.28   12.91
   0  -1   8  374.17    7.39
   0  -1   8  369.80    7.25
   0   1  -8  362.22    7.32
   1  -1   7  103.35    2.62
   1  -1   7  105.98    2.56
  -1   1  -7  104.59    2.71
   2  -1   6   15.40    0.78
   2  -1   6   15.51    0.83
  -2   1  -6   15.03    0.84
   3  -1   5   10.48    0.77
   3  -1   5   10.69    0.65
  -3   1  -5   10.90    0.71
   4  -1   4  492.51    9.38
  -4   1  -4  477.35    9.42
  -4   1  -4  486.75    9.85
   5  -1   3    1.10    0.37
  -5   1  -3    0.78    0.39
   6  -1   2   90.35    2.68
  -6   1  -2   91.75    2.86
   7  -1   1    6.17    0.78
  -7   1  -1    7.40    0.91
   8  -1   0   18.10    1.22
  -8   1   0   19.08    1.35
   5   2 -13   14.37    1.10
  -3  -2  11   70.26    2.30
  -2  -2  10   65.44    2.13
   2   2 -10   64.33    1.98
  -1  -2   9  265.03    5.67
  -1  -2   9  270.71    5.58
   1   2  -9  267.58    5.58
   0  -2   8   87.69    2.15
   0  -2   8   88.45    2.33
   0   2  -8   83.99    2.33
   1  -2   7  433.34    8.23
   1  -2   7  425.86    8.21
  -1   2  -7  416.72    8.26
   2  -2   6   25.84    1.06
   2  -2   6   27.24    1.05
  -2   2  -6   25.77    1.10
   3  -2   5  223.87    4.69
   3  -2   5  219.82    4.91
  -3   2  -5  218.99    4.73
   4  -2   4    3.03    0.46
  -4   2  -4    2.25    0.45
  -4   2  -4    4.81    0.52
   5  -2   3    3.19    0.52
  -5   2  -3    4.09    0.59
  -5   2  -3    4.10    0.50
   6  -2   2   25.74    1.28
  -6   2  -2   25.80    1.34
   7  -2   1    1.02    0.42
  -7   2  -1    0.72    0.42
   8  -2   0   24.29    1.38
  -8   2   0   22.95    1.43
   5   3 -13    2.46    0.60
  -4  -3  12    8.06    0.87
  -3  -3  11   37.95    1.58
  -2  -3  10   52.46    1.87
   2   3 -10   54.19    1.81
  -1  -3   9  164.91    3.90
   1   3  -9  163.29    3.78
   0  -3   8    5.96    0.60
   0   3  -8    6.89    0.62
   1  -3   7   47.81    1.56
  -1   3  -7   48.75    1.57
  -2   3  -6   20.37    0.93
   3  -3   5   49.17    1.61
  -3   3  -5   52.19    1.64
   4  -3   4  137.04    3.37
  -4   3  -4  141.64    3.32
   5  -3   3    3.83    0.58
  -5   3  -3    5.03    0.62
  -5   3  -3    4.40    0.54
   6  -3   2  113.58    3.18
  -6   3  -2  120.85    3.33
   7  -3   1    4.13    0.67
  -7   3  -1    6.28    0.79
   8  -3   0   13.16    0.99
  -8   3   0   14.94    1.15
   5   4 -13   28.78    1.54
  -4  -4  12  165.61    4.34
  -3  -4  11    0.06    0.31
  -2  -4  10    8.91    0.82
   2   4 -10    6.65    0.67
  -1  -4   9  560.79   10.98
   1   4  -9  567.54   10.92
   0  -4   8  177.03    4.10
   0   4  -8  182.75    4.11
   1  -4   7  423.65    8.36
  -1   4  -7  425.21    8.35
   2  -4   6   14.45    0.81
  -2   4  -6   13.97    0.83
   3  -4   5  103.99    2.67
  -3   4  -5  100.57    2.61
   4  -4   4   89.08    2.48
  -4   4  -4   90.83    2.44
   5  -4   3  145.90    3.60
  -5   4  -3  143.95    3.43
   6  -4   2   27.03    1.35
   7  -4   1   20.87    1.22
   8  -4   0   73.49    2.59
  -4  -5  12  185.14    4.72
  -3  -5  11    4.42    0.69
  -2  -5  10   69.91    2.30
   2   5 -10   69.37    2.21
  -1  -5   9    0.06    0.28
   1   5  -9   -0.09    0.23
   0  -5   8  113.25    2.98
   0   5  -8  115.67    2.95
   1  -5   7   72.90    2.16
  -1   5  -7   71.28    2.11
   2  -5   6   21.38    1.01
  -2   5  -6   19.95    0.99
   3  -5   5   61.53    1.94
  -3   5  -5   63.85    1.92
   4  -5   4   32.01    1.32
  -4   5  -4   32.55    1.32
   5  -5   3  134.03    3.40
  -5   5  -3  129.35    3.21
   6  -5   2    7.01    0.74
   7  -5   1    5.26    0.74
   8  -5   0    0.09    0.35
  -4  -6  12    0.80    0.45
  -3  -6  11    3.02    0.61
  -2  -6  10    1.99    0.50
   2   6 -10    1.98    0.48
  -1  -6   9   32.85    1.43
   1   6  -9   30.36    1.34
   0  -6   8   18.53    1.05
   0   6  -8   19.11    0.99
   1  -6   7  141.27    3.53
  -1   6  -7  143.11    3.48
   2  -6   6    9.59    0.72
  -2   6  -6   11.21    0.73
   3  -6   5  126.67    3.26
  -3   6  -5  130.73    3.20
   4  -6   4    5.59    0.65
  -4   6  -4    4.58    0.56
   5  -6   3   18.75    1.06
  -5   6  -3   17.67    1.00
   6  -6   2   16.21    1.04
   7  -6   1    4.32    0.67
   8  -6   0   55.64    2.20
  -3  -7  11   15.52    1.09
  -2  -7  10  127.59    3.58
   2   7 -10  138.66    3.58
  -1  -7   9    0.69    0.41
   1   7  -9    1.48    0.46
   0  -7   8  127.05    3.31
   0   7  -8  125.55    3.29
   1  -7   7  243.51    5.47
  -1   7  -7  244.47    5.36
   2  -7   6   72.67    2.28
  -2   7  -6   76.99    2.27
   3  -7   5  246.18    5.43
  -3   7  -5  251.58    5.41
   4  -7   4    1.16    0.39
  -4   7  -4    0.42    0.33
   5  -7   3   83.22    2.57
  -5   7  -3   91.33    2.56
   6  -7   2   10.01    0.90
   7  -7   1  143.34    3.89
   8  -7   0   12.49    1.04
  -3  -8  11   18.27    1.19
  -2  -8  10    6.43    0.82
   2   8 -10    6.66    0.78
  -1  -8   9   22.49    1.23
   1   8  -9   20.66    1.15
   0  -8   8  191.43    4.55
   0   8  -8  187.23    4.47
   1  -8   7    8.18    0.78
  -1   8  -7    6.64    0.69
   2  -8   6   13.07    0.90
  -2   8  -6   14.74    0.93
   3  -8   5   39.05    1.54
  -3   8  -5   39.35    1.57
   4  -8   4   23.34    1.18
  -4   8  -4   25.18    1.21
   5  -8   3   68.75    2.28
  -5   8  -3   70.01    2.26
   6  -8   2    0.42    0.43
   7  -8   1    4.77    0.75
  -2  -9  10   22.38    1.35
  -1  -9   9    4.40    0.67
   1   9  -9    3.36    0.60
   0  -9   8   20.54    1.19
   0   9  -8   18.23    1.09
   1  -9   7    9.81    0.91
  -1   9  -7   12.34    0.90
   2  -9   6    9.38    0.83
  -2   9  -6   11.96    0.88
   3  -9   5  156.02    3.93
  -3   9  -5  154.37    3.90
   4  -9   4    2.07    0.49
  -4   9  -4    1.35    0.43
   5  -9   3   64.67    2.20
  -5   9  -3   65.60    2.17
   6  -9   2    0.21    0.34
   7  -9   1   37.94    1.73
  -1 -10   9    3.76    0.70
   1  10  -9    2.87    0.57
   0 -10   8    9.16    0.91
   0  10  -8   12.48    0.93
   1 -10   7   52.58    2.00
  -1  10  -7   48.39    1.91
   2 -10   6   98.85    2.96
  -2  10  -6  104.52    3.01
   3 -10   5   47.07    1.88
  -3  10  -5   50.16    1.91
   4 -10   4    8.85    0.87
  -4  10  -4    8.21    0.80
   5 -10   3    2.22    0.57
  -5  10  -3    1.84    0.49
   6 -10   2    5.30    0.77
   1  11  -9   27.59    1.42
   0 -11   8    8.16    0.89
   0  11  -8   11.62    0.99
   1 -11   7    0.33    0.38
  -1  11  -7    0.66    0.45
   2 -11   6   41.85    1.82
  -2  11  -6   45.73    1.84
   3 -11   5    7.78    0.85
  -3  11  -5    7.23    0.83
   4 -11   4   21.20    1.24
  -4  11  -4   22.59    1.28
   5 -11   3    0.54    0.41
  -5  11  -3    0.64    0.38
   6 -11   2   35.94    1.71
   1 -12   7   18.61    1.21
   2 -12   6   -0.15    0.36
  -2  12  -6   -0.49    0.29
   3 -12   5   -0.08    0.35
  -3  12  -5    0.48    0.39
   4 -12   4   13.29    1.12
  -4  12  -4   12.74    1.06
  -5  12  -3    1.91    0.50
  -2   8  11   46.80    2.05
   2  -8 -11   47.94    1.97
  -1   8  10  126.89    3.71
   1  -8 -10  127.64    3.59
   0   8   9   20.17    1.30
   0  -8  -9   21.30    1.27
   1   8   8   45.76    1.96
  -1  -8  -8   44.73    1.90
   2   8   7    1.28    0.51
  -2  -8  -7    2.05    0.60
  -3   7  12  114.81    3.45
  -2   7  11   21.42    1.31
   2  -7 -11   20.75    1.27
  -1   7  10   14.72    1.07
   1  -7 -10   13.93    1.06
   0   7   9   28.81    1.49
   0  -7  -9   31.10    1.56
   1   7   8    8.63    0.94
  -1  -7  -8   10.76    0.98
   2   7   7   35.99    1.74
  -2  -7  -7   36.59    1.62
   3   7   6    3.54    0.70
  -3  -7  -6    4.29    0.68
  -4   6  13    9.76    0.97
  -3   6  12   60.93    2.28
  -2   6  11   -0.03    0.32
   2  -6 -11   -0.24    0.31
  -1   6  10   62.33    2.24
   1  -6 -10   60.44    2.24
   0   6   9    8.05    0.88
   0  -6  -9    6.05    0.76
   1   6   8   92.03    3.03
  -1  -6  -8   89.82    2.86
   2   6   7    1.47    0.50
  -2  -6  -7    3.51    0.67
   3   6   6   32.85    1.75
  -3  -6  -6   33.85    1.59
   4   6   5    8.77    0.98
  -4  -6  -5    7.20    0.82
  -4   5  13  193.26    5.03
  -3   5  12   -0.24    0.32
  -2   5  11   -0.20    0.33
   2  -5 -11   -0.51    0.25
  -1   5  10   37.39    1.65
   1  -5 -10   34.58    1.55
   0   5   9   69.39    2.39
   0  -5  -9   74.60    2.38
   1   5   8  171.60    4.51
  -1  -5  -8  171.82    4.29
   2   5   7   23.10    1.34
  -2  -5  -7   25.33    1.34
   3   5   6    0.83    0.46
  -3  -5  -6   -0.37    0.30
   4   5   5   65.03    2.54
  -4  -5  -5   60.29    2.31
   5   5   4  108.49    3.69
  -5   4  14   24.82    1.41
  -4   4  13   11.79    0.96
  -3   4  12   19.10    1.16
  -2   4  11   64.33    2.21
   2  -4 -11   62.16    2.12
  -1   4  10    0.08    0.30
   1  -4 -10    0.28    0.32
   0   4   9  141.86    3.80
   0  -4  -9  148.48    3.72
   1   4   8  104.52    3.17
  -1  -4  -8  115.19    3.07
   2   4   7    0.22    0.37
  -2  -4  -7   -0.07    0.29
   3   4   6   27.57    1.49
  -3  -4  -6   27.78    1.36
   4   4   5   25.04    1.49
  -4  -4  -5   26.40    1.40
   5   4   4    0.02    0.41
   6   4   3   86.31    3.15
  -5   3  14    4.13    0.71
  -4   3  13  120.42    3.47
  -3   3  12    2.42    0.57
  -2   3  11  286.78    6.47
   2  -3 -11  285.50    6.17
  -1   3  10  100.54    2.90
   1  -3 -10  100.70    2.84
   0   3   9   35.69    1.53
   0  -3  -9   36.80    1.54
   1   3   8  205.21    4.86
  -1  -3  -8  193.49    4.60
   2   3   7   17.68    1.13
  -2  -3  -7   18.16    1.06
   3   3   6  127.76    3.65
  -3  -3  -6  128.50    3.38
   4   3   5    0.94    0.48
  -4  -3  -5    1.05    0.44
   5   3   4  181.49    4.93
  -5   2  14   38.87    1.83
  -4   2  13  154.35    4.05
  -3   2  12   46.85    1.89
  -2   2  11   68.13    2.24
   2  -2 -11   67.88    2.19
  -1   2  10   94.26    2.78
   1  -2 -10   99.54    2.73
   0   2   9  155.52    3.86
   0  -2  -9  148.65    3.71
   1   2   8  168.35    4.20
  -1  -2  -8  164.00    4.01
   2   2   7  341.40    7.46
  -2  -2  -7  335.03    7.07
   3   2   6   34.72    1.60
  -3  -2  -6   35.12    1.46
   4   2   5   44.27    1.93
  -4  -2  -5   44.62    1.73
   5   2   4  110.33    3.47
  -6  -2  -3    2.52    0.61
  -7  -2  -2   34.54    1.73
  -5   1  14    1.22    0.49
  -4   1  13   62.36    2.24
  -3   1  12    0.44    0.32
  -2   1  11  129.75    3.46
   2  -1 -11  129.58    3.29
  -1   1  10   69.41    2.20
   1  -1 -10   69.16    2.14
   0   1   9   66.34    2.08
   0  -1  -9   63.88    2.02
   1   1   8  158.14    3.96
  -1  -1  -8  157.50    3.79
   2   1   7   12.02    0.86
  -2  -1  -7   14.61    0.88
   3   1   6  194.87    4.80
  -3  -1  -6  192.11    4.46
   4   1   5    3.10    0.61
  -4  -1  -5    3.00    0.51
  -5  -1  -4   75.63    2.50
  -6  -1  -3   41.26    1.81
  -7  -1  -2   32.05    1.68
   5   0 -14   21.08    1.31
  -4   0  13   21.52    1.24
   4   0 -13   20.51    1.25
  -3   0  12   23.29    1.21
  -2   0  11  251.69    5.76
  -2   0  11  251.60    5.59
   2   0 -11  266.52    5.65
  -1   0  10   11.82    0.78
  -1   0  10   10.80    0.75
   1   0 -10   10.95    0.77
   0   0   9  232.73    5.23
   0   0  -9  249.34    5.20
   1   0   8   30.85    1.27
  -1   0  -8   31.53    1.29
   2   0   7  141.87    3.65
  -2   0  -7  144.86    3.52
   3   0   6   36.25    1.58
  -3   0  -6   35.78    1.41
   4   0   5    3.10    0.62
  -4   0  -5    2.08    0.43
  -5   0  -4   57.51    2.00
  -5   0  -4   61.48    2.16
  -6   0  -3    0.41    0.39
  -7   0  -2   64.23    2.45
   5   1 -14   66.64    2.50
   4   1 -13    7.10    0.82
  -3  -1  12  212.23    5.03
  -2  -1  11   33.36    1.44
   2   1 -11   32.77    1.38
  -1  -1  10    0.14    0.27
  -1  -1  10    0.30    0.28
   1   1 -10    0.12    0.27
   0  -1   9   35.30    1.31
   0  -1   9   34.93    1.31
   0   1  -9   35.38    1.38
   1  -1   8    2.89    0.43
   1  -1   8    2.80    0.41
  -1   1  -8    2.80    0.50
   2  -1   7  201.26    4.18
   2  -1   7  186.40    4.35
  -2   1  -7  184.12    4.30
   3  -1   6    1.61    0.36
   3  -1   6    1.83    0.49
  -3   1  -6    2.23    0.45
   4  -1   5  158.50    3.65
  -4   1  -5  154.73    3.75
   5  -1   4    1.58    0.41
  -5   1  -4    1.43    0.40
  -5   1  -4    2.27    0.52
  -6   1  -3    7.22    0.82
  -7   1  -2    0.29    0.40
  -8   1  -1    1.66    0.57
   5   2 -14   90.64    2.99
   4   2 -13    7.65    0.82
  -3  -2  12  235.16    5.48
  -2  -2  11   63.39    2.14
   2   2 -11   62.75    2.00
  -1  -2  10  181.83    4.25
   1   2 -10  181.19    4.16
   0  -2   9  585.39   11.24
   0   2  -9  592.87   11.26
   1  -2   8   41.66    1.49
  -1   2  -8   43.67    1.56
   2  -2   7   -0.06    0.20
   2  -2   7    0.05    0.23
  -2   2  -7    0.00    0.24
   3  -2   6   69.46    2.15
   3  -2   6   69.68    2.03
  -3   2  -6   69.15    2.11
   4  -2   5   74.59    2.17
  -4   2  -5   72.98    2.24
  -4   2  -5   77.89    2.26
   5  -2   4  215.51    4.77
  -5   2  -4  201.37    4.74
  -5   2  -4  214.26    4.99
   6  -2   3   35.80    1.58
  -6   2  -3   33.77    1.59
   7  -2   2   15.33    1.09
  -7   2  -2   15.56    1.13
   8  -2   1    0.70    0.45
  -8   2  -1    0.32    0.46
  -4  -3  13   56.90    2.18
  -3  -3  12  391.78    8.27
  -2  -3  11  199.34    4.74
   2   3 -11  199.35    4.57
  -1  -3  10  100.37    2.81
   1   3 -10  101.48    2.74
   0  -3   9   92.31    2.56
   0   3  -9   92.20    2.56
   1  -3   8  113.20    2.90
  -1   3  -8  115.37    2.95
   3  -3   6   70.46    2.05
  -3   3  -6   66.45    2.01
   4  -3   5   67.50    2.06
  -4   3  -5   67.13    2.08
   5  -3   4   24.79    1.25
  -5   3  -4   25.31    1.18
   6  -3   3  234.11    5.38
   7  -3   2  140.25    3.78
   8  -3   1    3.97    0.70
  -4  -4  13    0.88    0.49
  -3  -4  12    5.37    0.73
  -2  -4  11   73.73    2.44
   2   4 -11   74.22    2.31
  -1  -4  10   78.98    2.45
   1   4 -10   80.40    2.36
   0  -4   9   30.07    1.34
   0   4  -9   32.26    1.34
   1  -4   8    0.58    0.33
  -1   4  -8    0.93    0.37
   2  -4   7   67.15    2.03
  -2   4  -7   66.16    2.03
   3  -4   6  176.96    4.06
  -3   4  -6  173.73    4.01
   4  -4   5    1.41    0.40
  -4   4  -5    2.16    0.44
   5  -4   4    1.50    0.43
  -5   4  -4    1.39    0.40
   6  -4   3   23.33    1.25
   8  -4   1   13.43    1.05
  -4  -5  13    7.90    0.89
  -3  -5  12   26.02    1.42
  -2  -5  11    2.60    0.57
   2   5 -11    2.63    0.53
  -1  -5  10   52.67    1.91
   1   5 -10   55.57    1.95
   0  -5   9  385.57    7.94
   0   5  -9  389.92    7.91
   1  -5   8   35.07    1.43
  -1   5  -8   31.72    1.34
   2  -5   7  200.35    4.51
  -2   5  -7  199.56    4.52
   3  -5   6   21.09    1.07
  -3   5  -6   22.09    1.06
   4  -5   5  316.25    6.71
  -4   5  -5  326.08    6.67
   5  -5   4   20.13    1.11
  -5   5  -4   20.79    1.07
   6  -5   3   46.91    1.89
   7  -5   2   98.68    2.93
   8  -5   1    1.41    0.51
  -3  -6  12  107.92    3.22
  -2  -6  11    0.19    0.32
   2   6 -11   -0.15    0.30
  -1  -6  10   73.79    2.36
   1   6 -10   72.26    2.32
   0  -6   9    1.50    0.46
   0   6  -9    2.28    0.48
   1  -6   8   77.86    2.37
  -1   6  -8   74.12    2.26
   2  -6   7    4.88    0.61
  -2   6  -7    5.94    0.64
   3  -6   6    3.63    0.56
  -3   6  -6    3.91    0.56
   4  -6   5   40.75    1.59
  -4   6  -5   38.09    1.49
   5  -6   4   15.26    0.96
  -5   6  -4   14.30    0.92
   6  -6   3   75.77    2.43
   7  -6   2   13.89    1.01
   8  -6   1    1.23    0.49
  -3  -7  12   10.90    0.99
  -2  -7  11   55.04    2.10
  -1  -7  10   17.43    1.10
   1   7 -10   16.95    1.03
   0  -7   9    1.66    0.46
   0   7  -9    3.26    0.57
   1  -7   8  114.33    3.20
  -1   7  -8  123.33    3.20
   2  -7   7   33.48    1.44
  -2   7  -7   32.62    1.41
   3  -7   6    3.78    0.56
  -3   7  -6    5.29    0.62
   4  -7   5   16.78    0.99
  -4   7  -5   15.91    0.95
   5  -7   4   14.24    0.97
  -5   7  -4   16.08    0.99
   6  -7   3   11.64    1.03
   7  -7   2   12.90    0.99
  -2  -8  11   13.99    1.05
  -1  -8  10  207.86    5.05
   1   8 -10  212.27    5.01
   0  -8   9    0.19    0.34
   0   8  -9    0.37    0.35
   1  -8   8    1.04    0.44
  -1   8  -8    0.87    0.39
   2  -8   7  100.77    2.85
  -2   8  -7   97.73    2.79
   3  -8   6  150.91    3.84
  -3   8  -6  156.92    3.87
   4  -8   5  139.84    3.63
  -4   8  -5  144.28    3.66
   5  -8   4   14.80    1.01
  -5   8  -4   14.88    0.97
   6  -8   3   42.17    1.75
   7  -8   2    4.21    0.70
  -2  -9  11   21.92    1.34
  -1  -9  10  199.52    4.84
   1   9 -10  187.57    4.73
   0  -9   9   86.66    2.64
   0   9  -9   81.65    2.59
   1  -9   8  172.27    4.32
  -1   9  -8  178.06    4.32
   2  -9   7    0.55    0.37
  -2   9  -7   -0.08    0.28
   3  -9   6   80.24    2.50
  -3   9  -6   78.06    2.48
   4  -9   5    9.24    0.91
  -4   9  -5    6.40    0.74
   5  -9   4  101.49    2.92
  -5   9  -4   93.51    2.82
   6  -9   3   73.09    2.49
   7  -9   2    6.56    0.79
  -1 -10  10   16.83    1.17
   0 -10   9   22.49    1.27
   0  10  -9   20.56    1.21
   1 -10   8   58.40    2.12
  -1  10  -8   58.02    2.10
   2 -10   7   -0.02    0.34
  -2  10  -7    0.09    0.32
   3 -10   6    8.59    0.89
  -3  10  -6    8.59    0.84
   4 -10   5  142.55    3.75
  -4  10  -5  144.06    3.77
   5 -10   4   19.64    1.17
  -5  10  -4   18.43    1.15
   6 -10   3   49.08    1.98
   0 -11   9    0.31    0.38
   0  11  -9    0.87    0.45
   1 -11   8    7.75    0.85
  -1  11  -8   10.82    0.95
   2 -11   7    1.23    0.47
  -2  11  -7    3.63    0.64
   3 -11   6  192.71    4.83
  -3  11  -6  198.07    4.78
   4 -11   5  108.53    3.24
   5 -11   4    0.55    0.43
  -5  11  -4    0.85    0.41
   3 -12   6   10.57    0.98
   1  -8 -11   35.25    1.75
   0  -8 -10   34.19    1.72
  -2   7  12   26.41    1.52
   2  -7 -12   26.97    1.49
  -1   7  11    1.87    0.59
   1  -7 -11    1.87    0.56
   0   7  10  113.53    3.51
   0  -7 -10  115.53    3.39
   1   7   9    7.37    0.89
  -1  -7  -9    8.99    0.96
  -2  -7  -8   84.27    2.82
   3   7   7    2.35    0.59
  -3  -7  -7    2.92    0.63
  -3   6  13   12.24    1.14
  -2   6  12   70.40    2.55
   2  -6 -12   70.75    2.49
  -1   6  11    2.26    0.59
   1  -6 -11    2.99    0.62
   0   6  10    4.13    0.70
   0  -6 -10    4.38    0.73
   1   6   9    0.86    0.43
  -1  -6  -9    0.44    0.44
   2   6   8    2.83    0.63
  -2  -6  -8    2.29    0.59
   3   6   7    7.04    0.90
  -3  -6  -7    8.78    0.96
   4   6   6   33.66    1.78
  -4   5  14    0.24    0.38
  -3   5  13    9.56    0.93
  -2   5  12   82.03    2.69
   2  -5 -12   78.12    2.62
  -1   5  11    5.46    0.72
   1  -5 -11    7.45    0.82
   0   5  10   34.13    1.64
   0  -5 -10   32.34    1.53
   1   5   9   10.28    0.99
  -1  -5  -9    8.78    0.84
   2   5   8  122.81    3.58
  -2  -5  -8  119.90    3.40
   3   5   7    9.40    1.01
  -3  -5  -7    7.51    0.84
   4   5   6    1.32    0.56
  -4  -5  -6    0.97    0.47
   5   5   5    7.19    0.99
  -4   4  14    4.60    0.74
  -3   4  13  122.73    3.63
  -2   4  12   72.95    2.48
   2  -4 -12   68.15    2.32
  -1   4  11   10.69    0.95
   1  -4 -11    9.05    0.85
   0   4  10   12.74    0.97
   0  -4 -10   10.54    0.90
   1   4   9  134.44    3.80
  -1  -4  -9  133.88    3.59
   2   4   8  142.84    3.98
  -2  -4  -8  146.10    3.78
   3   4   7  104.89    3.26
  -3  -4  -7  102.66    3.06
   4   4   6    3.44    0.70
  -4  -4  -6    3.94    0.68
   5   4   5    0.14    0.48
  -4   3  14    0.32    0.39
  -3   3  13    1.14    0.47
  -2   3  12   -0.07    0.33
   2  -3 -12    0.11    0.32
  -1   3  11   65.16    2.23
   1  -3 -11   60.27    2.11
   0   3  10   64.28    2.16
   0  -3 -10   55.21    2.02
   1   3   9   39.53    1.73
  -1  -3  -9   38.56    1.61
   2   3   8    2.70    0.58
  -2  -3  -8    3.55    0.58
   3   3   7   89.82    2.92
  -3  -3  -7   89.32    2.74
   4   3   6   29.34    1.59
  -4  -3  -6   30.20    1.45
   5   3   5   19.36    1.42
   6   3   4    3.00    0.71
  -5   2  15  113.32    3.44
  -4   2  14   21.24    1.32
  -3   2  13   58.29    2.15
  -2   2  12    7.41    0.85
   2  -2 -12    4.65    0.66
  -1   2  11  211.05    5.02
   1  -2 -11  203.24    4.80
   0   2  10   32.04    1.46
   0  -2 -10   34.86    1.49
   1   2   9    2.87    0.56
  -1  -2  -9    3.84    0.58
   2   2   8   32.48    1.50
  -2  -2  -8   34.73    1.50
   3   2   7    6.62    0.79
  -3  -2  -7    7.39    0.74
   4   2   6  192.37    5.04
  -4  -2  -6  195.86    4.74
   5   2   5   10.81    1.12
   6   2   4   26.43    1.61
  -4   1  14   15.99    1.12
  -3   1  13  129.90    3.62
  -2   1  12   20.10    1.18
   2  -1 -12   19.77    1.09
  -1   1  11    1.34    0.43
   1  -1 -11    0.36    0.33
   0   1  10  107.09    3.02
   0  -1 -10  108.69    2.94
   1   1   9  252.34    5.72
  -1  -1  -9  251.07    5.54
   2   1   8   45.61    1.76
  -2  -1  -8   45.39    1.67
   3   1   7  139.34    3.79
  -3  -1  -7  141.47    3.58
   4   1   6    3.75    0.72
  -4  -1  -6    3.52    0.60
   5   1   5    0.37    0.39
  -5  -1  -5   -0.02    0.30
  -6  -1  -4  118.72    3.56
  -7  -1  -3   13.62    1.15
   3   0 -13    8.48    0.83
  -2   0  12   14.72    0.97
   2   0 -12   15.82    1.01
  -1   0  11  319.11    6.94
   1   0 -11  324.14    6.83
   0   0  10  111.81    3.04
   0   0 -10  118.57    3.13
   1   0   9    0.39    0.30
  -1   0  -9    0.20    0.32
   2   0   8   42.72    1.68
  -2   0  -8   44.17    1.60
   3   0   7    7.71    0.78
  -3   0  -7    5.85    0.65
   4   0   6  161.04    4.28
  -4   0  -6  160.33    3.95
  -5   0  -5    0.20    0.34
  -6   0  -4   15.61    1.10
  -7   0  -3    6.94    0.86
   5   1 -15    1.54    0.57
   4   1 -14   32.95    1.64
  -3  -1  13   10.09    0.92
  -2  -1  12    7.02    0.76
   2   1 -12    7.57    0.77
  -1  -1  11   86.43    2.50
   1   1 -11   84.07    2.50
   0  -1  10   63.87    1.96
   0   1 -10   62.00    2.05
  -1   1  -9   50.64    1.78
   2  -1   8    0.33    0.28
  -2   1  -8   -0.17    0.23
   3  -1   7   51.75    1.89
  -3   1  -7   52.73    1.79
   4  -1   6    0.49    0.39
  -4   1  -6    0.18    0.30
  -5   1  -5   -0.16    0.27
  -5   1  -5    0.17    0.34
  -6   1  -4   41.83    1.80
  -7   1  -3   11.16    1.07
  -8   1  -2   58.27    2.40
   4   2 -14   34.82    1.65
  -3  -2  13   53.45    2.05
  -2  -2  12   25.17    1.31
   2   2 -12   27.00    1.30
  -1  -2  11    6.02    0.70
   1   2 -11    6.04    0.67
   0  -2  10    4.97    0.61
   0   2 -10    6.07    0.63
   1  -2   9    0.31    0.31
  -1   2  -9    0.13    0.30
   2  -2   8   64.77    2.01
  -2   2  -8   65.11    2.11
   3  -2   7   43.17    1.55
  -3   2  -7   44.76    1.65
   4  -2   6    9.96    0.73
  -4   2  -6    9.18    0.76
   5  -2   5  183.54    4.25
  -5   2  -5  174.75    4.29
   6  -2   4    1.76    0.51
  -3  -3  13    7.49    0.86
  -2  -3  12  119.35    3.37
   2   3 -12  120.49    3.22
  -1  -3  11   14.36    0.97
   1   3 -11   17.35    0.99
   0  -3  10    8.61    0.78
   0   3 -10    5.22    0.61
   1  -3   9   66.29    2.09
  -1   3  -9   64.98    2.04
   2  -3   8  195.53    4.47
  -2   3  -8  198.11    4.45
   3  -3   7   11.39    0.81
  -3   3  -7   13.01    0.85
   4  -3   6   20.00    1.06
  -4   3  -6   20.80    1.12
   5  -3   5    4.78    0.63
  -5   3  -5    5.30    0.64
   6  -3   4    0.77    0.44
   7  -3   3   86.68    2.73
   8  -3   2    6.81    0.88
  -4  -4  14  130.38    3.79
  -3  -4  13   16.29    1.08
  -2  -4  12  129.74    3.60
   2   4 -12  133.92    3.53
  -1  -4  11   -0.07    0.30
   1   4 -11    0.04    0.32
   0  -4  10   16.12    0.98
   0   4 -10   16.49    0.97
   1  -4   9  162.74    3.93
  -1   4  -9  155.08    3.81
   2  -4   8    0.40    0.32
  -2   4  -8   -0.05    0.29
   3  -4   7  106.26    2.87
  -3   4  -7  102.78    2.79
   4  -4   6    0.12    0.29
  -4   4  -6   -0.07    0.25
   5  -4   5  113.55    3.02
  -5   4  -5  110.06    3.02
   6  -4   4    5.73    0.73
   7  -4   3   35.45    1.63
   8  -4   2   24.08    1.41
  -3  -5  13    7.11    0.84
  -2  -5  12   25.01    1.37
   2   5 -12   27.79    1.37
  -1  -5  11    0.21    0.34
   1   5 -11   -0.02    0.30
   0  -5  10  347.37    7.38
   0   5 -10  354.39    7.29
   1  -5   9    7.71    0.76
  -1   5  -9    7.65    0.72
   2  -5   8    6.06    0.69
  -2   5  -8    5.87    0.64
   3  -5   7   28.33    1.28
  -3   5  -7   28.79    1.27
   4  -5   6   60.97    2.03
  -4   5  -6   58.06    1.95
   5  -5   5  217.37    5.04
  -5   5  -5  223.99    5.03
   6  -5   4    1.88    0.54
   7  -5   3   14.46    1.10
   8  -5   2   13.85    1.09
  -3  -6  13    0.85    0.45
  -2  -6  12   24.90    1.39
  -1  -6  11   10.21    0.91
   1   6 -11    9.39    0.86
   0  -6  10    3.74    0.61
   0   6 -10    3.14    0.54
   1  -6   9   22.23    1.21
  -1   6  -9   21.68    1.15
   2  -6   8    7.74    0.76
  -2   6  -8    6.73    0.69
   3  -6   7   81.49    2.39
  -3   6  -7   76.17    2.39
   4  -6   6   17.48    1.04
  -4   6  -6   18.02    1.02
   5  -6   5   71.04    2.34
  -5   6  -5   76.21    2.30
   6  -6   4    1.89    0.52
   7  -6   3    3.11    0.63
  -2  -7  12   41.67    1.86
  -1  -7  11    0.65    0.43
   1   7 -11    1.23    0.47
   0  -7  10  150.68    3.94
   0   7 -10  153.32    3.82
   1  -7   9    1.00    0.42
  -1   7  -9    0.55    0.36
   2  -7   8   20.04    1.11
  -2   7  -8   19.80    1.09
   3  -7   7    3.79    0.62
  -3   7  -7    3.87    0.58
   4  -7   6    3.47    0.58
  -4   7  -6    3.49    0.56
   5  -7   5  124.99    3.33
  -5   7  -5  122.29    3.31
   6  -7   4   -0.20    0.31
  -2  -8  12    0.12    0.36
  -1  -8  11    6.10    0.78
   1   8 -11    6.94    0.79
   0  -8  10   42.21    1.71
   0   8 -10   41.05    1.68
   1  -8   9    0.64    0.37
  -1   8  -9    1.37    0.46
   2  -8   8  102.25    2.99
  -2   8  -8  105.04    2.94
   3  -8   7    1.25    0.43
  -3   8  -7    1.31    0.41
   4  -8   6   36.80    1.64
  -4   8  -6   38.15    1.59
   5  -8   5    0.26    0.34
  -5   8  -5   -0.29    0.27
   6  -8   4   31.93    1.54
   7  -8   3   12.88    1.00
  -1  -9  11    3.78    0.67
   1   9 -11    2.93    0.58
   0  -9  10   11.51    0.99
   0   9 -10    8.68    0.86
   1  -9   9   23.58    1.31
  -1   9  -9   25.31    1.30
   2  -9   8   12.45    0.94
  -2   9  -8   11.08    0.85
   3  -9   7   53.97    2.03
  -3   9  -7   50.33    1.93
   4  -9   6   18.54    1.15
  -4   9  -6   20.39    1.15
   5  -9   5   16.45    1.08
  -5   9  -5   16.25    1.06
   6  -9   4   33.22    1.60
   0 -10  10   70.19    2.44
   0  10 -10   69.99    2.35
   1 -10   9   47.22    1.96
  -1  10  -9   48.80    1.93
  -2  10  -8  113.61    3.24
   3 -10   7    2.40    0.56
  -3  10  -7    1.78    0.53
   4 -10   6   95.02    2.89
  -4  10  -6   95.26    2.87
   5 -10   5   36.66    1.70
   2 -11   8   -0.17    0.36
  -2  11  -8   -0.38    0.29
   3 -11   7    1.53    0.51
  -3  11  -7    1.59    0.49
   4 -11   6   17.03    1.17
  -4  11  -6   16.15    1.13
   1  -7 -12   26.22    1.44
   0   7  11    0.23    0.42
   0  -7 -11    0.43    0.40
   1   7  10   76.29    2.75
  -2   6  13   18.40    1.28
   2  -6 -13   19.15    1.27
  -1   6  12   43.67    1.87
   1  -6 -12   39.49    1.84
   0   6  11   27.45    1.49
   0  -6 -11   27.17    1.48
   1   6  10  188.09    4.95
  -1  -6 -10  195.11    4.90
   2   6   9   17.28    1.26
  -2  -6  -9   18.39    1.25
   3   6   8   95.15    3.20
  -3   5  14    7.21    0.86
  -2   5  13   43.02    1.92
   2  -5 -13   45.36    1.92
  -1   5  12    1.85    0.54
   1  -5 -12    3.07    0.63
   0   5  11   20.32    1.26
   0  -5 -11   21.81    1.29
   1   5  10   14.15    1.07
  -1  -5 -10   10.62    0.94
   2   5   9   16.23    1.18
  -2  -5  -9   15.22    1.06
   3   5   8   30.50    1.63
   4   5   7    1.89    0.61
  -4  -5  -7    1.20    0.49
  -3   4  14    5.53    0.77
  -2   4  13   12.95    1.02
   2  -4 -13   12.34    0.96
  -1   4  12    7.97    0.89
   1  -4 -12    6.16    0.75
   0   4  11   14.97    1.09
   0  -4 -11   15.71    1.06
   1   4  10  223.02    5.55
  -1  -4 -10  229.34    5.37
   2   4   9    2.61    0.60
  -2  -4  -9    2.65    0.58
   3   4   8   74.33    2.69
  -3  -4  -8   74.15    2.49
   4   4   7    8.46    0.96
  -4  -4  -7    8.73    0.89
   5   4   6   51.85    2.33
  -4   3  15   60.41    2.35
  -3   3  14   18.26    1.19
  -2   3  13  107.62    3.28
   2  -3 -13  105.99    3.10
  -1   3  12   34.97    1.59
   1  -3 -12   34.13    1.55
   0   3  11   57.61    2.20
   0  -3 -11   65.53    2.20
   1   3  10   23.35    1.31
  -1  -3 -10   24.19    1.27
   2   3   9   29.41    1.53
  -2  -3  -9   30.25    1.43
   3   3   8   95.83    3.11
  -3  -3  -8   97.79    2.94
   4   3   7   14.07    1.14
  -4  -3  -7   11.99    0.96
   5   3   6   58.59    2.44
  -4   2  15    5.67    0.80
  -3   2  14   44.64    1.90
  -2   2  13    3.40    0.63
   2  -2 -13    5.92    0.74
  -1   2  12   24.02    1.32
   1  -2 -12   27.15    1.36
   0   2  11    7.96    0.81
   0  -2 -11    9.13    0.82
   1   2  10   31.04    1.45
  -1  -2 -10   28.82    1.40
   2   2   9   34.62    1.62
  -2  -2  -9   32.18    1.50
   3   2   8   18.29    1.20
  -3  -2  -8   16.54    1.05
   4   2   7   15.22    1.15
  -4  -2  -7   12.69    0.99
   5   2   6   20.43    1.45
  -5  -2  -6   20.32    1.22
   6   2   5    1.50    0.61
  -2   1  13   64.75    2.28
   2  -1 -13   64.68    2.19
  -1   1  12    6.83    0.75
   1  -1 -12    5.58    0.68
   0   1  11   62.73    2.14
   0  -1 -11   60.73    2.08
   1   1  10    6.54    0.76
  -1  -1 -10    6.41    0.71
   2   1   9   19.38    1.18
  -2  -1  -9   20.47    1.12
   3   1   8   50.49    2.05
  -3  -1  -8   52.75    1.94
   4   1   7   -0.48    0.32
  -4  -1  -7   -0.16    0.32
   5   1   6  176.47    4.90
  -5  -1  -6  175.31    4.39
   6   1   5    1.57    0.57
   2   0 -13   14.93    1.02
   1   0 -12    0.63    0.41
   0   0 -11  111.06    3.00
   1   0  10    7.74    0.76
  -1   0 -10    7.13    0.70
   2   0   9   81.69    2.60
  -2   0  -9   87.99    2.60
   3   0   8   14.92    1.04
  -3   0  -8   13.44    0.95
   4   0   7   50.15    2.03
  -4   0  -7   49.73    1.82
   5   0   6   42.83    1.98
  -5   0  -6   44.94    1.79
   6   0   5    2.42    0.67
  -7   0  -4    4.41    0.77
   2   1 -13   41.31    1.68
   1   1 -12   89.69    2.72
   0   1 -11   -0.05    0.29
  -1   1 -10    1.96    0.46
  -2   1  -9    0.60    0.35
  -3   1  -8   10.02    0.86
   4  -1   7   39.66    1.76
  -4   1  -7   39.16    1.62
   5  -1   6   23.06    1.38
  -5   1  -6   23.31    1.24
   4   2 -15    9.37    1.02
  -3  -2  14   69.35    2.49
  -2  -2  13   40.82    1.72
   2   2 -13   39.85    1.69
  -1  -2  12    5.50    0.70
   1   2 -12    4.77    0.67
   0  -2  11  170.37    4.11
   0   2 -11  169.83    4.17
   1  -2  10   14.79    0.93
  -1   2 -10   15.18    0.98
   2  -2   9   48.01    1.72
  -2   2  -9   44.79    1.73
  -3   2  -8   64.49    2.15
  -4   2  -7   69.59    2.29
  -5   2  -6   93.08    2.69
  -3  -3  14  110.63    3.33
  -2  -3  13    1.37    0.50
   2   3 -13    1.62    0.52
  -1  -3  12   65.39    2.27
   1   3 -12   65.75    2.23
   0  -3  11   65.67    2.19
   0   3 -11   64.53    2.15
   1  -3  10  142.26    3.50
  -1   3 -10  131.59    3.49
   2  -3   9    5.31    0.63
  -2   3  -9    3.78    0.57
   3  -3   8   60.47    1.97
  -3   3  -8   61.69    2.02
   4  -3   7  176.63    4.18
  -4   3  -7  179.19    4.28
   5  -3   6   25.38    1.30
  -5   3  -6   26.56    1.31
   6  -3   5   74.19    2.41
  -3  -4  14   23.79    1.42
  -2  -4  13   59.27    2.23
  -1  -4  12   -0.21    0.30
   1   4 -12    0.10    0.30
   0  -4  11   10.53    0.91
   0   4 -11   10.75    0.84
   1  -4  10   71.59    2.29
  -1   4 -10   72.74    2.28
   2  -4   9  135.93    3.44
  -2   4  -9  132.25    3.44
   3  -4   8    0.98    0.38
  -3   4  -8    0.94    0.37
   4  -4   7    3.38    0.57
  -4   4  -7    2.68    0.50
   5  -4   6    0.18    0.32
  -5   4  -6    0.48    0.35
   6  -4   5    1.03    0.46
   7  -4   4   16.49    1.15
   8  -4   3   29.76    1.59
  -3  -5  14   95.05    2.97
  -2  -5  13    0.17    0.35
  -1  -5  12  105.98    3.14
   1   5 -12  106.41    3.05
   0  -5  11   43.50    1.76
   0   5 -11   42.91    1.67
   1  -5  10   34.12    1.50
  -1   5 -10   36.96    1.52
   2  -5   9   51.99    1.90
  -2   5  -9   52.63    1.84
   3  -5   8   11.99    0.88
  -3   5  -8   10.82    0.80
   4  -5   7   66.06    2.15
  -4   5  -7   66.33    2.16
   5  -5   6   14.98    0.99
  -5   5  -6   14.81    0.98
   6  -5   5  118.69    3.30
   7  -5   4    9.31    0.93
  -2  -6  13   10.61    0.98
  -1  -6  12    5.13    0.75
   1   6 -12    3.50    0.62
   0  -6  11    2.27    0.56
   0   6 -11    2.62    0.53
   1  -6  10  131.48    3.52
  -1   6 -10  137.64    3.53
   2  -6   9   -0.04    0.29
  -2   6  -9    0.66    0.33
   3  -6   8    6.99    0.76
  -3   6  -8    6.86    0.75
   4  -6   7    3.80    0.60
  -4   6  -7    3.29    0.57
   5  -6   6   10.22    0.92
  -5   6  -6    9.86    0.84
   6  -6   5   71.65    2.47
   7  -6   4    6.13    0.84
  -2  -7  13   16.82    1.15
  -1  -7  12  105.34    3.19
   1   7 -12  107.78    3.12
   0  -7  11    2.78    0.60
   0   7 -11    1.12    0.46
   1  -7  10   14.34    1.00
  -1   7 -10   14.29    0.97
   2  -7   9   15.10    1.01
  -2   7  -9   16.37    1.01
   3  -7   8   -0.06    0.31
  -3   7  -8   -0.13    0.29
   4  -7   7   82.43    2.58
  -4   7  -7   79.45    2.49
   5  -7   6   25.89    1.32
  -5   7  -6   23.68    1.25
   6  -7   5    1.15    0.46
   7  -7   4   -0.43    0.29
  -1  -8  12   71.29    2.54
   1   8 -12   73.27    2.47
   0  -8  11   13.24    0.99
   0   8 -11   11.90    0.94
   1  -8  10   72.03    2.39
  -1   8 -10   69.00    2.34
   2  -8   9   10.61    0.94
  -2   8  -9    9.64    0.86
   3  -8   8   49.07    1.93
   4  -8   7    9.24    0.87
  -4   8  -7   10.06    0.88
   5  -8   6   -0.01    0.33
  -5   8  -6    0.10    0.30
   1   9 -12   24.84    1.38
   0  -9  11    0.47    0.40
   0   9 -11    0.59    0.40
   1  -9  10   48.55    1.98
  -1   9 -10   50.55    1.92
   2  -9   9    0.42    0.38
  -2   9  -9   -0.05    0.30
   3  -9   8    0.68    0.38
  -3   9  -8    0.25    0.35
   4  -9   7   26.49    1.38
  -4   9  -7   28.66    1.42
   5  -9   6   46.62    1.93
  -5   9  -6   44.76    1.85
   6  -9   5    0.44    0.40
   1 -10  10   20.86    1.27
  -1  10 -10   20.45    1.20
   2 -10   9    2.22    0.62
  -2  10  -9    0.83    0.44
   3 -10   8   24.14    1.39
  -3  10  -8   22.23    1.27
   4 -10   7    2.61    0.60
  -4  10  -7    2.40    0.55
  -5  10  -6    2.42    0.54
   0   6  12   33.78    1.80
   1   6  11    3.06    0.65
  -2   5  14   -0.06    0.39
   2  -5 -14    0.14    0.39
  -1   5  13    0.37    0.41
   1  -5 -13    0.26    0.37
   0   5  12    5.53    0.86
   0  -5 -12    3.35    0.66
   1   5  11    2.95    0.65
  -1  -5 -11    3.09    0.63
   2   5  10   50.78    2.21
  -2  -5 -10   53.48    2.09
   3   5   9    0.27    0.39
  -3  -5  -9    0.47    0.42
  -2   4  14    0.24    0.42
   2  -4 -14    0.80    0.44
  -1   4  13    4.11    0.72
   1  -4 -13    4.10    0.68
   0   4  12    4.65    0.74
   0  -4 -12    4.65    0.70
   1   4  11  194.21    4.91
  -1  -4 -11  182.78    4.67
   2   4  10   15.71    1.20
  -2  -4 -10   14.31    1.05
   3   4   9    3.13    0.67
  -3  -4  -9    3.53    0.68
   4   4   8    1.84    0.65
  -4  -4  -8    2.06    0.59
  -3   3  15   19.64    1.34
  -2   3  14   34.07    1.73
   2  -3 -14   31.63    1.62
  -1   3  13   44.87    1.95
   1  -3 -13   43.37    1.80
   0   3  12   41.34    1.83
   0  -3 -12   40.05    1.74
   1   3  11   31.09    1.56
  -1  -3 -11   31.69    1.50
   2   3  10   55.14    2.27
  -2  -3 -10   57.74    2.13
   3   3   9   36.60    1.80
  -3  -3  -9   38.20    1.71
   4   3   8    0.12    0.38
  -4  -3  -8    0.12    0.39
   5   3   7    8.22    0.99
  -5  -3  -7    7.91    0.90
  -2   2  14    3.83    0.71
   2  -2 -14    5.75    0.77
  -1   2  13  247.06    5.99
   1  -2 -13  253.54    5.84
   0   2  12   19.01    1.17
   0  -2 -12   17.86    1.13
   1   2  11   92.28    2.91
  -1  -2 -11   90.80    2.82
   2   2  10    9.46    0.99
  -2  -2 -10   11.01    0.91
   3   2   9   56.48    2.22
  -3  -2  -9   60.08    2.15
   4   2   8  150.68    4.30
  -4  -2  -8  154.26    4.06
   5   2   7   60.70    2.52
  -5  -2  -7   60.53    2.26
   6   2   6  112.89    3.82
   2  -1 -14   76.12    2.54
   1  -1 -13   17.86    1.07
   0  -1 -12   10.34    0.93
   1   1  11  180.43    4.60
  -1  -1 -11  179.67    4.41
   2   1  10   46.48    1.94
  -2  -1 -10   45.19    1.81
   3   1   9  143.93    4.00
  -3  -1  -9  145.33    3.87
   4   1   8   18.64    1.26
  -4  -1  -8   19.09    1.14
   5   1   7   38.12    1.87
  -5  -1  -7   37.17    1.67
   6   1   6   49.61    2.35
   2   0 -14    0.65    0.41
   1   0 -13   59.54    2.14
   0   0 -12    3.24    0.60
  -1   0 -11   96.69    2.88
  -2   0 -10    0.66    0.38
  -3   0  -9    0.40    0.38
   4   0   8   80.65    2.78
  -4   0  -8   83.97    2.59
   5   0   7    7.51    0.93
  -5   0  -7    7.37    0.82
   6   0   6   78.70    2.94
   7   0   5    0.51    0.50
   1   1 -13   32.36    1.50
   0   1 -12   24.65    1.27
  -1   1 -11  204.37    4.81
  -2   1 -10    4.00    0.62
  -3   1  -9   62.04    2.15
  -4   1  -8   11.31    0.88
  -5   1  -7  116.66    3.25
   1   2 -13    0.23    0.36
   0   2 -12  190.52    4.64
  -1   2 -11   35.04    1.55
  -2   2 -10   21.11    1.17
  -3   2  -9   16.39    1.03
  -4   2  -8   15.06    0.99
  -5   2  -7  118.91    3.40
  -3  -3  15   32.94    1.69
  -2  -3  14   17.86    1.21
  -1  -3  13   34.06    1.60
   1   3 -13   33.89    1.58
   0  -3  12   67.86    2.29
   0   3 -12   65.77    2.24
   1  -3  11   83.03    2.58
  -1   3 -11   80.50    2.51
   2  -3  10  107.94    3.02
  -2   3 -10  108.87    3.08
  -3   3  -9   13.55    0.97
  -4   3  -8    5.58    0.72
  -5   3  -7  164.33    4.19
  -3  -4  15   20.40    1.32
  -2  -4  14  155.30    4.23
  -1  -4  13    6.74    0.83
   1   4 -13    6.62    0.77
   0  -4  12  145.46    3.83
   0   4 -12  140.45    3.75
   1  -4  11   41.48    1.70
  -1   4 -11   41.40    1.68
   2  -4  10  221.66    5.12
  -2   4 -10  220.64    5.12
   3  -4   9  331.75    7.11
   4  -4   8   13.41    0.95
  -4   4  -8   14.59    0.99
   5  -4   7   79.82    2.54
  -5   4  -7   80.78    2.59
   6  -4   6   22.86    1.34
  -2  -5  14   48.56    2.05
  -1  -5  13   28.72    1.50
   1   5 -13   28.42    1.43
   0  -5  12   73.73    2.44
   0   5 -12   72.81    2.41
   1  -5  11   -0.19    0.30
  -1   5 -11    0.51    0.37
   2  -5  10   27.98    1.37
  -2   5 -10   27.42    1.33
   3  -5   9   77.00    2.43
  -3   5  -9   80.18    2.50
   4  -5   8    2.41    0.56
  -4   5  -8    2.20    0.52
   5  -5   7    0.74    0.39
  -5   5  -7   -0.02    0.33
   6  -5   6   10.17    0.94
   7  -5   5    0.46    0.42
  -2  -6  14   26.78    1.51
  -1  -6  13    0.96    0.48
   1   6 -13    1.42    0.50
   0  -6  12   75.79    2.48
   0   6 -12   70.33    2.36
   1  -6  11   35.82    1.60
  -1   6 -11   37.21    1.58
   2  -6  10   11.47    0.98
  -2   6 -10   11.71    0.90
   3  -6   9   21.83    1.22
  -3   6  -9   22.18    1.19
   4  -6   8   12.53    0.90
  -4   6  -8   10.30    0.91
   5  -6   7  144.35    3.80
  -5   6  -7  138.82    3.69
   6  -6   6   -0.47    0.33
   7  -6   5   69.92    2.49
  -1  -7  13    1.60    0.53
   1   7 -13    0.64    0.42
   0  -7  12   11.47    1.01
   0   7 -12   13.13    0.99
   1  -7  11    0.39    0.40
  -1   7 -11    0.76    0.40
   2  -7  10   78.41    2.58
  -2   7 -10   76.61    2.46
   3  -7   9    1.65    0.48
  -3   7  -9    1.96    0.51
   4  -7   8   24.12    1.29
  -4   7  -8   25.25    1.27
   5  -7   7    0.50    0.40
  -5   7  -7    0.36    0.36
   6  -7   6    2.59    0.60
   1   8 -13   41.46    1.85
   0  -8  12    2.44    0.60
   0   8 -12    1.40    0.47
   1  -8  11   16.60    1.10
  -1   8 -11   14.55    1.05
   2  -8  10   33.75    1.62
  -2   8 -10   35.49    1.62
   3  -8   9    0.48    0.36
  -3   8  -9    0.48    0.37
   4  -8   8   46.73    1.87
  -4   8  -8   43.15    1.76
   5  -8   7    3.71    0.67
  -5   8  -7    2.67    0.57
   6  -8   6   16.97    1.15
   1  -9  11   10.02    0.98
  -1   9 -11   12.65    0.98
   2  -9  10   20.20    1.29
  -2   9 -10   23.09    1.28
   3  -9   9   18.37    1.21
   4  -9   8   91.04    2.88
  -4   9  -8   87.64    2.80
   5  -9   7    4.86    0.71
  -5   9  -7    3.29    0.62
   1   5  12   11.43    1.09
  -1   4  14   42.89    2.01
   1  -4 -14   46.12    1.93
   0   4  13   59.19    2.32
   0  -4 -13   62.08    2.28
   1   4  12    0.47    0.43
  -1  -4 -12   -0.16    0.36
   2   4  11    0.66    0.44
  -2  -4 -11    0.42    0.41
   3   4  10   95.24    3.14
  -3  -4 -10   96.70    3.06
  -1   3  14    6.72    0.86
   1  -3 -14    7.36    0.86
   0   3  13   18.14    1.23
   0  -3 -13   19.41    1.23
   1   3  12    0.83    0.44
  -1  -3 -12    0.75    0.42
   2   3  11  173.84    4.73
  -2  -3 -11  177.25    4.60
   3   3  10    7.34    0.92
  -3  -3 -10    6.51    0.85
   4   3   9   17.00    1.28
  -4  -3  -9   18.15    1.22
   1  -2 -14   61.85    2.25
   0  -2 -13    3.02    0.66
   1   2  12    6.58    0.81
  -1  -2 -12    6.15    0.78
   2   2  11   29.49    1.58
  -2  -2 -11   30.45    1.53
   3   2  10   -0.11    0.37
  -3  -2 -10   -0.43    0.28
   4   2   9   19.03    1.33
  -4  -2  -9   22.79    1.39
   5   2   8   11.96    1.17
   1  -1 -14   28.44    1.47
   0  -1 -13  360.25    7.77
  -1  -1 -12    8.76    0.89
  -2  -1 -11    4.74    0.70
  -3  -1 -10    0.69    0.41
  -4  -1  -9  151.11    4.01
   5   1   8  143.80    4.20
  -5  -1  -8  132.99    3.77
   6   1   7   -0.05    0.41
   1   0 -14   71.14    2.44
   0   0 -13   12.17    0.96
  -1   0 -12    7.56    0.82
  -2   0 -11  139.59    3.73
  -3   0 -10   17.78    1.13
  -4   0  -9  113.43    3.33
  -5   0  -8    8.62    0.90
   1   1 -14    3.99    0.65
   0   1 -13  232.37    5.51
  -1   1 -12    2.36    0.60
  -2   1 -11    7.48    0.80
  -3   1 -10    1.48    0.52
  -4   1  -9   22.92    1.31
  -5   1  -8  101.62    2.99
   1   2 -14    2.28    0.57
   0   2 -13   47.33    1.86
  -1   2 -12    1.16    0.45
  -2   2 -11   36.61    1.59
  -3   2 -10    0.11    0.28
  -4   2  -9   89.09    2.84
  -5   2  -8    3.10    0.62
   1   3 -14   35.83    1.68
   0   3 -13   16.80    1.13
  -1   3 -12   93.57    2.84
  -2   3 -11    4.18    0.65
  -3   3 -10    7.58    0.83
  -4   3  -9   12.98    0.96
  -5   3  -8   -0.07    0.32
  -2  -4  15   78.39    2.76
  -1  -4  14   31.83    1.61
   1   4 -14   27.76    1.50
   0  -4  13   -0.27    0.30
   0   4 -13    0.27    0.38
   1  -4  12    0.31    0.37
  -1   4 -12    0.58    0.40
   2  -4  11    0.45    0.41
  -2   4 -11    0.82    0.41
   3  -4  10  169.90    4.18
  -3   4 -10  164.63    4.19
  -4   4  -9   11.99    0.95
  -5   4  -8    0.50    0.38
  -1  -5  14   43.30    1.90
   1   5 -14   45.17    1.93
   0  -5  13    2.60    0.62
   0   5 -13    4.11    0.67
   1  -5  12  103.59    3.08
  -1   5 -12   99.96    2.94
   2  -5  11   42.77    1.82
  -2   5 -11   43.43    1.73
   3  -5  10   61.69    2.12
  -3   5 -10   62.01    2.18
   4  -5   9   89.79    2.79
  -4   5  -9   90.65    2.80
   5  -5   8    4.02    0.70
  -5   5  -8    3.66    0.68
   6  -5   7   27.64    1.46
  -1  -6  14    4.16    0.74
   1   6 -14    3.96    0.71
   0  -6  13   31.31    1.57
   0   6 -13   29.22    1.48
   1  -6  12  143.12    3.88
   2  -6  11   -0.35    0.30
  -2   6 -11    0.72    0.39
   3  -6  10   22.77    1.27
  -3   6 -10   23.38    1.26
   4  -6   9    0.81    0.40
  -4   6  -9    0.99    0.43
   5  -6   8  126.02    3.58
  -5   6  -8  128.13    3.58
   6  -6   7   14.14    1.04
   0  -7  13    1.85    0.55
   0   7 -13    1.42    0.51
   1  -7  12   29.65    1.52
  -1   7 -12   33.17    1.52
   2  -7  11    0.14    0.36
  -2   7 -11   -0.05    0.28
   3  -7  10    4.14    0.71
  -3   7 -10    2.17    0.53
   4  -7   9   17.91    1.15
  -4   7  -9   17.88    1.12
   5  -7   8    0.26    0.39
  -5   7  -8    0.22    0.37
   6  -7   7   39.58    1.78
   1  -8  12   40.63    1.79
  -1   8 -12   36.56    1.72
   2  -8  11    7.67    0.88
  -2   8 -11    7.21    0.80
   3  -8  10   63.84    2.34
  -3   8 -10   64.37    2.25
   4  -8   9   19.67    1.20
   5  -8   8   58.77    2.17
  -5   8  -8   62.96    2.24
   3  -9  10   46.30    1.92
   2   3  12   21.66    1.40
   3   3  11    1.14    0.56
   1  -2 -15   46.49    1.98
   0  -2 -14    1.14    0.52
  -1  -2 -13  102.48    3.17
  -2  -2 -12    1.54    0.53
  -3  -2 -11   55.19    2.16
  -4  -2 -10    5.16    0.83
   1  -1 -15    4.75    0.73
   0  -1 -14    0.87    0.44
  -1  -1 -13    4.75    0.71
  -2  -1 -12    0.49    0.41
  -3  -1 -11    4.33    0.70
  -4  -1 -10   30.23    1.60
  -5  -1  -9   -0.01    0.39
   1   0 -15   27.56    1.45
   0   0 -14   21.63    1.28
  -1   0 -13  142.80    3.84
  -2   0 -12    0.68    0.42
  -3   0 -11   55.43    2.04
  -4   0 -10    7.06    0.85
  -5   0  -9   21.79    1.35
   1   1 -15    0.72    0.45
   0   1 -14   84.48    2.82
  -1   1 -13   51.40    2.07
  -2   1 -12   13.08    1.01
  -3   1 -11   62.19    2.26
  -4   1 -10    3.22    0.60
  -5   1  -9   43.08    1.92
   1   2 -15    4.62    0.77
   0   2 -14   37.52    1.73
  -1   2 -13   19.04    1.16
  -2   2 -12    3.06    0.63
  -3   2 -11   23.70    1.36
  -4   2 -10   -0.11    0.33
  -5   2  -9    0.18    0.39
   1   3 -15    1.02    0.50
   0   3 -14   23.59    1.34
  -1   3 -13   79.37    2.65
  -2   3 -12   51.54    2.01
  -3   3 -11   76.25    2.51
  -4   3 -10   -0.15    0.29
  -5   3  -9   78.79    2.66
   1   4 -15    2.15    0.57
   0   4 -14   65.59    2.38
  -1   4 -13   16.13    1.13
  -3   4 -11   -0.27    0.34
  -4   4 -10    7.70    0.85
  -5   4  -9   47.94    1.90
  -1  -5  15   -0.47    0.35
   1   5 -15    0.12    0.40
   0  -5  14    3.44    0.70
   0   5 -14    4.18    0.69
   1  -5  13   -0.11    0.35
  -1   5 -13   -0.10    0.33
   2  -5  12    1.86    0.53
  -2   5 -12    2.10    0.54
   3  -5  11  106.10    3.22
  -3   5 -11  110.43    3.17
  -4   5 -10    0.75    0.44
  -5   5  -9    6.09    0.81
   0  -6  14   93.57    3.01
   0   6 -14   94.04    2.96
   1  -6  13   -0.24    0.33
  -1   6 -13    0.21    0.37
   2  -6  12   45.10    1.90
  -2   6 -12   46.07    1.85
   3  -6  11   41.86    1.83
  -3   6 -11   41.02    1.74
   4  -6  10   68.23    2.43
  -4   6 -10   65.76    2.36
   5  -6   9   34.53    1.62
  -5   6  -9   35.24    1.62
   6  -6   8    4.95    0.76
   1  -7  13    0.37    0.39
   2  -7  12   21.52    1.31
  -2   7 -12   22.95    1.29
   3  -7  11    0.64    0.40
  -3   7 -11   -0.09    0.31
   4  -7  10   29.36    1.51
   5  -7   9    4.00    0.69
  -5   7  -9    4.31    0.70
   3  -8  11    3.02    0.68
  -2   0 -13   19.90    1.19
  -1   1 -14    1.00    0.47
  -3   1 -12   17.27    1.18
  -4   1 -11   62.32    2.29
  -1   2 -14   49.08    2.08
  -2   2 -13   47.24    1.96
  -3   2 -12    5.53    0.74
  -4   2 -11   24.49    1.40
  -5   2 -10    1.68    0.53
  -1   3 -14   74.34    2.60
  -2   3 -13    0.84    0.47
  -3   3 -12   -0.47    0.31
  -4   3 -11   26.89    1.49
  -5   3 -10   31.52    1.65
  -1   4 -14   38.90    1.79
  -2   4 -13    1.08    0.45
  -3   4 -12    0.77    0.49
   2  -6  13    1.99    0.61
   0   0   0    0.00    0.00
;
_shelx_hkl_checksum              81950
loop_
_space_group_symop_operation_xyz
'x, y, z'
'-x, -y, -z'
loop_
_atom_site_label
_atom_site_type_symbol
_atom_site_fract_x
_atom_site_fract_y
_atom_site_fract_z
_atom_site_U_iso_or_equiv
_atom_site_adp_type
_atom_site_occupancy
_atom_site_site_symmetry_order
_atom_site_calc_flag
_atom_site_refinement_flags_posn
_atom_site_refinement_flags_adp
S1 S 1.26080(5) 0.76007(3) 0.82726(3) 0.01752(10) Uani 1 1 d . .
S2 S 0.71598(5) 0.17379(3) 0.72181(3) 0.01532(10) Uani 1 1 d . .
O1 O 0.58683(18) 0.08027(11) 0.79114(9) 0.0215(2) Uani 1 1 d . .
O2 O 0.92256(17) 0.14878(11) 0.70740(9) 0.0210(2) Uani 1 1 d . .
N1 N 0.95529(19) 0.80431(12) 0.93174(10) 0.0166(2) Uani 1 1 d . .
N2 N 1.2484(2) 1.01893(12) 0.93190(11) 0.0184(2) Uani 1 1 d . .
H2A H 1.361(4) 1.055(2) 0.908(2) 0.029(5) Uiso 1 1 d . .
H2B H 1.185(4) 1.073(3) 0.964(2) 0.037(6) Uiso 1 1 d . .
N3 N 0.54162(19) 0.15819(13) 0.58099(10) 0.0185(2) Uani 1 1 d . .
C1 C 1.1430(2) 0.87383(13) 0.90441(11) 0.0155(2) Uani 1 1 d . .
C2 C 1.0334(2) 0.60795(13) 0.82872(11) 0.0155(2) Uani 1 1 d . .
C3 C 0.9865(2) 0.46098(13) 0.77987(11) 0.0165(2) Uani 1 1 d . .
H3 H 1.0851 0.4311 0.7400 0.020 Uiso 1 1 calc R U
C4 C 0.7895(2) 0.35855(13) 0.79122(11) 0.0154(2) Uani 1 1 d . .
C5 C 0.6441(2) 0.40232(14) 0.85089(12) 0.0172(2) Uani 1 1 d . .
H5 H 0.5110 0.3308 0.8577 0.021 Uiso 1 1 calc R U
C6 C 0.6944(2) 0.54971(14) 0.89994(12) 0.0175(2) Uani 1 1 d . .
H6 H 0.5965 0.5791 0.9406 0.021 Uiso 1 1 calc R U
C7 C 0.8898(2) 0.65449(13) 0.88922(11) 0.0150(2) Uani 1 1 d . .
C8 C 0.3007(2) 0.16057(18) 0.56295(14) 0.0271(3) Uani 1 1 d . .
H8A H 0.2769 0.1849 0.6445 0.033 Uiso 1 1 calc R U
H8B H 0.1893 0.0636 0.5212 0.033 Uiso 1 1 calc R U
C9 C 0.2750(3) 0.2817(2) 0.47955(17) 0.0346(4) Uani 1 1 d . .
H9A H 0.3336 0.3809 0.5301 0.042 Uiso 1 1 calc R U
H9B H 0.1118 0.2649 0.4293 0.042 Uiso 1 1 calc R U
C10 C 0.4228(3) 0.26626(19) 0.39552(15) 0.0297(3) Uani 1 1 d . .
H10A H 0.4688 0.3588 0.3586 0.036 Uiso 1 1 calc R U
H10B H 0.3392 0.1831 0.3267 0.036 Uiso 1 1 calc R U
C11 C 0.6329(2) 0.23542(17) 0.48523(13) 0.0231(3) Uani 1 1 d . .
H11A H 0.6957 0.1716 0.4406 0.028 Uiso 1 1 calc R U
H11B H 0.7559 0.3290 0.5244 0.028 Uiso 1 1 calc R U
loop_
_atom_site_aniso_label
_atom_site_aniso_U_11
_atom_site_aniso_U_22
_atom_site_aniso_U_33
_atom_site_aniso_U_23
_atom_site_aniso_U_13
_atom_site_aniso_U_12
S1 0.01638(16) 0.01554(16) 0.02077(17) -0.00111(11) 0.00896(12) 0.00200(11)
S2 0.01746(16) 0.01347(16) 0.01568(16) 0.00091(10) 0.00729(11) 0.00341(11)
O1 0.0283(5) 0.0164(4) 0.0218(5) 0.0040(3) 0.0136(4) 0.0031(4)
O2 0.0204(5) 0.0203(5) 0.0249(5) 0.0010(4) 0.0091(4) 0.0082(4)
N1 0.0183(5) 0.0143(5) 0.0183(5) 0.0011(4) 0.0082(4) 0.0040(4)
N2 0.0196(5) 0.0147(5) 0.0224(5) 0.0014(4) 0.0102(4) 0.0037(4)
N3 0.0167(5) 0.0213(5) 0.0156(5) -0.0001(4) 0.0058(4) 0.0021(4)
C1 0.0161(5) 0.0167(5) 0.0140(5) 0.0006(4) 0.0048(4) 0.0055(4)
C2 0.0150(5) 0.0153(5) 0.0153(5) 0.0010(4) 0.0056(4) 0.0022(4)
C3 0.0162(6) 0.0170(6) 0.0165(6) -0.0004(4) 0.0059(4) 0.0045(5)
C4 0.0175(5) 0.0143(5) 0.0143(5) 0.0008(4) 0.0058(4) 0.0037(4)
C5 0.0190(6) 0.0157(5) 0.0176(5) 0.0017(4) 0.0086(4) 0.0030(4)
C6 0.0195(6) 0.0172(6) 0.0181(6) 0.0015(4) 0.0098(4) 0.0050(5)
C7 0.0166(5) 0.0153(5) 0.0134(5) 0.0015(4) 0.0051(4) 0.0046(4)
C8 0.0161(6) 0.0354(8) 0.0269(7) 0.0014(6) 0.0063(5) 0.0036(5)
C9 0.0300(8) 0.0432(9) 0.0343(8) 0.0062(7) 0.0086(6) 0.0179(7)
C10 0.0329(8) 0.0332(8) 0.0212(7) 0.0047(5) 0.0049(6) 0.0103(6)
C11 0.0245(6) 0.0277(7) 0.0172(6) 0.0034(5) 0.0093(5) 0.0048(5)
loop_
_atom_type_symbol
_atom_type_description
_atom_type_scat_dispersion_real
_atom_type_scat_dispersion_imag
_atom_type_scat_source
C C 0.0029 0.0015 'International Tables Vol C Tables 4.2.6.8 and 6.1.1.4'
H H 0.0000 0.0000 'International Tables Vol C Tables 4.2.6.8 and 6.1.1.4'
N N 0.0058 0.0031 'International Tables Vol C Tables 4.2.6.8 and 6.1.1.4'
O O 0.0103 0.0058 'International Tables Vol C Tables 4.2.6.8 and 6.1.1.4'
S S 0.1204 0.1183 'International Tables Vol C Tables 4.2.6.8 and 6.1.1.4'
loop_
_geom_angle_atom_site_label_1
_geom_angle_atom_site_label_2
_geom_angle_atom_site_label_3
_geom_angle
C1 S1 C2 88.63(6)
O1 S2 O2 120.23(6)
O1 S2 N3 106.50(6)
O1 S2 C4 107.91(6)
O2 S2 N3 106.39(6)
O2 S2 C4 107.34(6)
N3 S2 C4 107.95(6)
C1 N1 C7 110.37(10)
H2A N2 H2B 122(2)
H2A N2 C1 119.2(14)
H2B N2 C1 118.3(15)
S2 N3 C8 119.93(9)
S2 N3 C11 118.53(9)
C8 N3 C11 110.42(11)
S1 C1 N1 115.66(9)
S1 C1 N2 119.28(10)
N1 C1 N2 125.05(12)
S1 C2 C3 128.51(9)
S1 C2 C7 109.51(9)
C3 C2 C7 121.98(11)
C2 C3 H3 121.1
C2 C3 C4 117.78(11)
H3 C3 C4 121.1
S2 C4 C3 118.79(9)
S2 C4 C5 119.90(9)
C3 C4 C5 121.23(11)
C4 C5 H5 119.9
C4 C5 C6 120.23(11)
H5 C5 C6 119.9
C5 C6 H6 120.2
C5 C6 C7 119.65(11)
H6 C6 C7 120.2
N1 C7 C2 115.81(11)
N1 C7 C6 125.05(11)
C2 C7 C6 119.13(11)
N3 C8 H8A 111.0
N3 C8 H8B 111.0
N3 C8 C9 103.62(12)
H8A C8 H8B 109.0
H8A C8 C9 111.0
H8B C8 C9 111.0
C8 C9 H9A 111.2
C8 C9 H9B 111.2
C8 C9 C10 102.67(13)
H9A C9 H9B 109.1
H9A C9 C10 111.2
H9B C9 C10 111.2
C9 C10 H10A 111.1
C9 C10 H10B 111.1
C9 C10 C11 103.52(12)
H10A C10 H10B 109.0
H10A C10 C11 111.1
H10B C10 C11 111.1
N3 C11 C10 103.93(11)
N3 C11 H11A 111.0
N3 C11 H11B 111.0
C10 C11 H11A 111.0
C10 C11 H11B 111.0
H11A C11 H11B 109.0
loop_
_geom_bond_atom_site_label_1
_geom_bond_atom_site_label_2
_geom_bond_distance
S1 C1 1.7744(12)
S1 C2 1.7405(13)
S2 O1 1.4399(10)
S2 O2 1.4350(10)
S2 N3 1.6197(12)
S2 C4 1.7589(13)
N1 C1 1.3157(16)
N1 C7 1.3815(15)
N2 H2A 0.82(2)
N2 H2B 0.85(2)
N2 C1 1.3299(17)
N3 C8 1.4823(18)
N3 C11 1.4826(17)
C2 C3 1.3881(16)
C2 C7 1.4140(16)
C3 H3 0.950
C3 C4 1.3964(17)
C4 C5 1.4061(17)
C5 H5 0.950
C5 C6 1.3890(17)
C6 H6 0.950
C6 C7 1.3969(17)
C8 H8A 0.990
C8 H8B 0.990
C8 C9 1.520(2)
C9 H9A 0.990
C9 H9B 0.990
C9 C10 1.525(2)
C10 H10A 0.990
C10 H10B 0.990
C10 C11 1.527(2)
C11 H11A 0.990
C11 H11B 0.990
loop_
_geom_hbond_atom_site_label_D
_geom_hbond_atom_site_label_H
_geom_hbond_atom_site_label_A
_geom_hbond_distance_DH
_geom_hbond_distance_HA
_geom_hbond_distance_DA
_geom_hbond_angle_DHA
_geom_hbond_site_symmetry_A
N2 H2A O1 0.82(2) 2.16(2) 2.9448(15) 159(2) 1_665
N2 H2B N1 0.85(2) 2.11(2) 2.9608(16) 172(2) 2_777
loop_
_geom_torsion_atom_site_label_1
_geom_torsion_atom_site_label_2
_geom_torsion_atom_site_label_3
_geom_torsion_atom_site_label_4
_geom_torsion
O1 S2 N3 C8 43.50(12)
O1 S2 N3 C11 -176.03(10)
O2 S2 N3 C8 172.89(10)
O2 S2 N3 C11 -46.64(11)
C4 S2 N3 C8 -72.16(12)
C4 S2 N3 C11 68.31(11)
C7 N1 C1 S1 -1.58(14)
C7 N1 C1 N2 179.50(12)
C2 S1 C1 N1 1.62(10)
C2 S1 C1 N2 -179.40(11)
C1 S1 C2 C3 178.50(12)
C1 S1 C2 C7 -1.12(9)
S1 C2 C3 C4 -179.06(10)
C7 C2 C3 C4 0.51(18)
C2 C3 C4 S2 176.17(9)
C2 C3 C4 C5 -0.44(18)
O1 S2 C4 C3 153.40(10)
O1 S2 C4 C5 -29.95(12)
O2 S2 C4 C3 22.45(12)
O2 S2 C4 C5 -160.89(10)
N3 S2 C4 C3 -91.87(11)
N3 S2 C4 C5 84.79(11)
S2 C4 C5 C6 -176.52(10)
C3 C4 C5 C6 0.06(19)
C4 C5 C6 C7 0.28(19)
C1 N1 C7 C2 0.66(15)
C1 N1 C7 C6 -178.19(12)
C5 C6 C7 N1 178.60(12)
C5 C6 C7 C2 -0.21(18)
S1 C2 C7 N1 0.53(14)
S1 C2 C7 C6 179.46(9)
C3 C2 C7 N1 -179.11(11)
C3 C2 C7 C6 -0.19(19)
S2 N3 C8 C9 126.45(12)
C11 N3 C8 C9 -16.92(15)
N3 C8 C9 C10 34.68(16)
C8 C9 C10 C11 -39.86(16)
S2 N3 C11 C10 -151.76(10)
C8 N3 C11 C10 -7.81(15)
C9 C10 C11 N3 29.39(16)
