#------------------------------------------------------------------------------
#$Date: 2023-11-10 21:21:08 +0200 (Fri, 10 Nov 2023) $
#$Revision: 287519 $
#$URL: file:///home/coder/svn-repositories/cod/cif/4/51/31/4513196.cif $
#------------------------------------------------------------------------------
#
# This file is available in the Crystallography Open Database (COD),
# http://www.crystallography.net/
#
# All data on this site have been placed in the public domain by the
# contributors.
#
data_4513196
loop_
_publ_author_name
'Watkins-Curry, Pilanda'
'Burnett, Joseph Vade'
'Samanta, Tapas'
'Young, David P.'
'Stadler, Shane'
'Chan, Julia Y.'
_publ_section_title
;
 Strategic Crystal Growth and Physical Properties of Single-Crystalline
 LnCo2Al8(Ln = La--Nd, Sm, Yb)
;
_journal_issue                   7
_journal_name_full               'Crystal Growth &amp; Design'
_journal_page_first              3293
_journal_paper_doi               10.1021/acs.cgd.5b00417
_journal_volume                  15
_journal_year                    2015
_chemical_formula_moiety         'Al8 Co2 Pr'
_chemical_formula_sum            'Al8 Co2 Pr'
_chemical_formula_weight         474.61
_space_group_crystal_system      orthorhombic
_space_group_IT_number           55
_space_group_name_Hall           '-P 2 2ab'
_space_group_name_H-M_alt        'P b a m'
_symmetry_space_group_name_Hall  '-P 2 2ab'
_symmetry_space_group_name_H-M   'P b a m'
_audit_creation_method           SHELXL-2014/7
_audit_update_record
;
2015-05-22 # Formatted by publCIF
;
_cell_angle_alpha                90
_cell_angle_beta                 90
_cell_angle_gamma                90
_cell_formula_units_Z            4
_cell_length_a                   12.4602(4)
_cell_length_b                   14.3743(5)
_cell_length_c                   4.01010(10)
_cell_measurement_temperature    293(2)
_cell_volume                     718.24(4)
_computing_cell_refinement       'Bruker SAINT'
_computing_data_collection       'Bruker APEX2'
_computing_data_reduction        'Bruker SAINT'
_computing_molecular_graphics    CrystalMaker
_computing_publication_material  'publCIF (Westrip, 2014)'
_computing_structure_refinement  'SHELXL-2014/7 (Sheldrick, 2014)'
_computing_structure_solution    'SHELXS Direct Methods (Sheldrick, 2013)'
_diffrn_ambient_temperature      293(2)
_diffrn_measured_fraction_theta_full 0.999
_diffrn_measured_fraction_theta_max 0.997
_diffrn_measurement_device_type  'Bruker Kappa D8 Quest CMOS'
_diffrn_measurement_method       '\f and \w scans'
_diffrn_radiation_type           MoK\a
_diffrn_radiation_wavelength     0.71073
_diffrn_reflns_av_R_equivalents  0.0261
_diffrn_reflns_av_unetI/netI     0.0128
_diffrn_reflns_laue_measured_fraction_full 0.999
_diffrn_reflns_laue_measured_fraction_max 0.997
_diffrn_reflns_limit_h_max       17
_diffrn_reflns_limit_h_min       -17
_diffrn_reflns_limit_k_max       20
_diffrn_reflns_limit_k_min       -20
_diffrn_reflns_limit_l_max       5
_diffrn_reflns_limit_l_min       -5
_diffrn_reflns_number            13872
_diffrn_reflns_point_group_measured_fraction_full 0.999
_diffrn_reflns_point_group_measured_fraction_max 0.997
_diffrn_reflns_theta_full        25.242
_diffrn_reflns_theta_max         30.541
_diffrn_reflns_theta_min         2.834
_diffrn_source                   'I\mS microfocus tube'
_exptl_absorpt_coefficient_mu    12.114
_exptl_absorpt_correction_T_max  0.794
_exptl_absorpt_correction_T_min  0.667
_exptl_absorpt_correction_type   multi-scan
_exptl_absorpt_process_details   SADABS(2014)
_exptl_crystal_colour            silver
_exptl_crystal_density_diffrn    4.389
_exptl_crystal_description       fragment
_exptl_crystal_F_000             868
_exptl_crystal_size_max          0.03
_exptl_crystal_size_mid          0.02
_exptl_crystal_size_min          0.02
_refine_diff_density_max         0.798
_refine_diff_density_min         -0.759
_refine_diff_density_rms         0.158
_refine_ls_extinction_coef       0.00068(12)
_refine_ls_extinction_expression Fc^*^=kFc[1+0.001xFc^2^\l^3^/sin(2\q)]^-1/4^
_refine_ls_extinction_method     'SHELXL-2014/7 (Sheldrick 2014'
_refine_ls_goodness_of_fit_ref   1.047
_refine_ls_hydrogen_treatment    undef
_refine_ls_matrix_type           full
_refine_ls_number_parameters     70
_refine_ls_number_reflns         1248
_refine_ls_number_restraints     0
_refine_ls_restrained_S_all      1.047
_refine_ls_R_factor_all          0.0170
_refine_ls_R_factor_gt           0.0138
_refine_ls_shift/su_max          0.001
_refine_ls_shift/su_mean         0.000
_refine_ls_structure_factor_coef Fsqd
_refine_ls_weighting_details
'w=1/[\s^2^(Fo^2^)+(0.0210P)^2^+0.3666P] where P=(Fo^2^+2Fc^2^)/3'
_refine_ls_weighting_scheme      calc
_refine_ls_wR_factor_gt          0.0331
_refine_ls_wR_factor_ref         0.0350
_reflns_Friedel_coverage         0.000
_reflns_number_gt                1136
_reflns_number_total             1248
_reflns_threshold_expression     'I > 2\s(I)'
_cod_data_source_file            cg5b00417_si_001.cif
_cod_data_source_block           shelx
_cod_depositor_comments
'Adding full bibliography for 4513193--4513198.cif.'
_cod_database_code               4513196
_shelx_shelxl_version_number     2014/7
_shelx_space_group_comment
;
The symmetry employed for this shelxl refinement is uniquely defined
by the following loop, which should always be used as a source of
symmetry information in preference to the above space-group names.
They are only intended as comments.
;
_exptl_crystal_f_000'            871.87
_shelx_res_file
;

    shelx.res created by SHELXL-2014/7


TITL scd0050 in Pbam
CELL 0.71073  12.46020  14.37430   4.01010  90.0000  90.0000  90.0000
ZERR    4.00   0.00040   0.00050   0.00010   0.0000   0.0000   0.0000
LATT  1
SYMM -X, -Y, Z
SYMM 0.5-X, 0.5+Y, -Z
SYMM 0.5+X, 0.5-Y, -Z
SFAC AL CO PR
UNIT 32 8 4
ACTA
L.S. 20
BOND
FMAP 2
PLAN 20
WGHT    0.021000    0.366600
EXTI    0.000677
FVAR       0.06032
PR1   3    0.340505    0.318435   10.000000    10.50000    0.00711    0.01003 =
         0.00474    0.00000    0.00000   -0.00111
CO1   2    0.034721    0.405780   10.000000    10.50000    0.00831    0.00636 =
         0.00606    0.00000    0.00000    0.00075
CO2   2    0.151674    0.096491   10.000000    10.50000    0.00483    0.00449 =
         0.00378    0.00000    0.00000   -0.00013
AL1   1    0.025434    0.132049   10.500000    10.50000    0.00635    0.00631 =
         0.00559    0.00000    0.00000    0.00069
AL2   1    0.160010    0.379126   10.500000    10.50000    0.00524    0.00741 =
         0.00692    0.00000    0.00000   -0.00003
AL3   1    0.236368    0.172677   10.500000    10.50000    0.00621    0.00809 =
         0.00611    0.00000    0.00000   -0.00198
AL4   1    0.331531    0.491203   10.500000    10.50000    0.00828    0.00568 =
         0.00626    0.00000    0.00000   -0.00168
AL5   1    0.452651    0.179811   10.500000    10.50000    0.00611    0.00578 =
         0.00721    0.00000    0.00000    0.00133
AL6   1    0.096007    0.253177   10.000000    10.50000    0.00823    0.00536 =
         0.00713    0.00000    0.00000    0.00049
AL7   1    0.339999    0.044621   10.000000    10.50000    0.00604    0.01160 =
         0.00935    0.00000    0.00000    0.00238
AL8   1   10.000000   10.500000   10.500000    10.25000    0.00946    0.00499 =
         0.00458    0.00000    0.00000    0.00119
AL9   1   10.000000   10.000000   10.000000    10.25000    0.00646    0.00566 =
         0.00742    0.00000    0.00000   -0.00217
MOLE   2
HKLF 4

REM  scd0050 in Pbam
REM R1 =  0.0138 for    1136 Fo > 4sig(Fo)  and  0.0170 for all    1248 data
REM     70 parameters refined using      0 restraints

END

WGHT      0.0118      0.5668

REM Highest difference peak  0.798,  deepest hole -0.759,  1-sigma level  0.158
Q1    1  -0.0213  0.3134  0.0000  10.50000  0.05    0.56
Q2    1   0.1181  0.0404  0.2374  11.00000  0.05    0.46
Q3    1   0.0268  0.4130  0.2411  11.00000  0.05    0.42
Q4    1   0.3869 -0.0151 -0.2311  11.00000  0.05    0.41
Q5    1   0.1071  0.3257  0.2809  11.00000  0.05    0.40
Q6    1   0.3199  0.2497  0.2375  11.00000  0.05    0.37
Q7    1  -0.0220  0.1615  0.2063  11.00000  0.05    0.36
Q8    1   0.2821  0.3628  0.3731  11.00000  0.05    0.35
Q9    1   0.2202  0.2534  0.2773  11.00000  0.05    0.35
Q10   1   0.1229  0.1718  0.2716  11.00000  0.05    0.35
Q11   1   0.0342  0.3509  0.2017  11.00000  0.05    0.34
Q12   1   0.0209  0.0637  0.2354  11.00000  0.05    0.34
Q13   1   0.3689  0.3787  0.2968  11.00000  0.05    0.33
Q14   1   0.2683  0.5393  0.7846  11.00000  0.05    0.32
Q15   1   0.2374  0.1420  0.2185  11.00000  0.05    0.32
Q16   1   0.0243  0.5530  0.7079  11.00000  0.05    0.32
Q17   1   0.3193  0.0020 -0.3521  11.00000  0.05    0.32
Q18   1   0.3830  0.4298  0.2201  11.00000  0.05    0.32
Q19   1   0.2194  0.1225  0.2365  11.00000  0.05    0.32
Q20   1   0.2742  0.1498  0.1964  11.00000  0.05    0.32
;
_shelx_res_checksum              91932
_shelx_hkl_file
;
   0   0   1  238.80    5.78
   0   0  -1  245.65    5.80
   0   0   1  224.22    5.68
   0   0  -1  252.58    5.92
   0   0  -1  227.27    5.68
   0   0  -2  924.89   22.43
   0   0  -2 1000.00   23.11
   0   0  -2  989.11   22.74
   0   0   2  838.82   22.32
   0   0   2  977.02   22.80
   0   0   3  114.37    2.88
   0   0   3  112.01    2.74
   0   0  -3  116.71    2.85
   0   0  -3  117.79    2.80
   0   0  -3  115.63    2.89
   0   0  -4  486.00   11.45
   0   0   4  485.67   11.73
   0   0   4  489.55   11.58
   0   0  -4  480.36   11.59
   0   0  -4  473.27   11.75
   0   0  -5   53.71    1.49
   1   0  -1    0.04    0.02
  -1   0  -1   -0.01    0.02
   1   0   1    0.00    0.02
   1   0  -1    0.02    0.02
  -1   0  -1   -0.01    0.02
   1   0  -1    0.14    0.03
   1   0   1    0.14    0.03
  -1   0  -1   -0.02    0.02
   1   0   1    0.02    0.02
  -1   0   1    0.05    0.02
  -1   0   2    0.05    0.04
  -1   0  -2   -0.01    0.04
  -1   0  -2    0.03    0.05
   1   0  -2    0.07    0.04
  -1   0   2    0.03    0.02
   1   0   2    0.00    0.03
   1   0   2    0.00    0.04
  -1   0  -2    0.06    0.04
   1   0  -2   -0.04    0.03
   1   0  -2    0.08    0.04
  -1   0   2    0.01    0.04
   1   0  -3    0.08    0.07
  -1   0  -3    0.13    0.08
  -1   0   3   -0.03    0.07
   1   0   3   -0.12    0.08
   1   0  -3    0.00    0.06
   1   0  -3    0.05    0.07
   1   0   3    0.07    0.06
  -1   0  -3    0.06    0.07
  -1   0   3    0.18    0.07
  -1   0  -3    0.09    0.09
   1   0  -4    0.13    0.12
  -1   0  -4    0.01    0.15
  -1   0  -4    0.16    0.14
  -1   0   4    0.07    0.11
   1   0   4    0.16    0.12
   1   0  -4    0.14    0.11
   1   0  -4    0.11    0.13
   1   0   4    0.01    0.14
  -1   0  -4    0.01    0.11
  -1   0  -5   -0.02    0.19
  -2   0   0   -0.07    0.01
   2   0   0   -0.04    0.01
  -2   0   0   -0.01    0.02
  -2   0   0   -0.04    0.02
   2   0   0    0.00    0.02
   2   0   0   -0.04    0.01
  -2   0  -1    3.15    0.13
   2   0   1    3.19    0.12
   2   0   1    3.04    0.13
  -2   0  -1    3.10    0.12
   2   0  -1    3.08    0.11
  -2   0   1    3.10    0.10
   2   0  -1    2.91    0.09
   2   0  -1    3.12    0.11
  -2   0  -1    2.96    0.13
  -2   0  -2    0.03    0.06
   2   0  -2    0.13    0.04
   2   0   2    0.02    0.06
   2   0   2    0.17    0.04
   2   0  -2    0.10    0.04
  -2   0   2    0.10    0.04
  -2   0   2    0.11    0.04
  -2   0  -2    0.08    0.05
  -2   0  -2    0.15    0.06
   2   0   2    0.10    0.05
  -2   0   3    2.24    0.16
   2   0   3    1.95    0.18
  -2   0   3    1.93    0.14
   2   0  -3    2.25    0.15
   2   0  -3    2.21    0.15
  -2   0  -3    2.05    0.20
  -2   0  -3    2.13    0.19
  -2   0  -3    1.90    0.17
   2   0   3    1.85    0.18
   2   0   3    1.91    0.14
   2   0  -3    2.14    0.15
  -2   0  -4   -0.06    0.17
  -2   0   4    0.37    0.13
  -2   0  -4    0.22    0.12
   2   0  -4    0.31    0.13
   2   0  -4    0.18    0.11
  -2   0   4   -0.05    0.10
   2   0   4    0.34    0.15
  -2   0  -4    0.29    0.16
   2   0  -4    0.23    0.12
  -2   0  -5    1.74    0.25
   2   0   5    1.19    0.29
   2   0  -5    1.29    0.22
  -3   0   0   -0.59    0.02
   3   0   0   -0.60    0.02
  -3   0   0   -0.46    0.03
   3   0   0   -0.59    0.02
   3   0   0   -0.58    0.02
  -3   0   0   -0.58    0.02
   3   0   0   -0.58    0.02
  -3   0   0   -0.60    0.02
  -3   0  -1   -0.45    0.03
   3   0  -1   -0.41    0.02
   3   0   1   -0.39    0.03
  -3   0  -1   -0.37    0.04
   3   0   1   -0.40    0.03
   3   0   1   -0.42    0.04
   3   0  -1   -0.40    0.02
   3   0  -1   -0.43    0.02
  -3   0  -1   -0.40    0.04
  -3   0   1   -0.42    0.02
   3   0   2   -0.16    0.06
   3   0  -2   -0.16    0.04
   3   0   2   -0.21    0.03
  -3   0  -2   -0.13    0.06
   3   0   2   -0.19    0.05
   3   0  -2   -0.17    0.04
  -3   0  -2   -0.24    0.04
  -3   0  -2   -0.12    0.06
  -3   0   2   -0.16    0.03
   3   0   3    0.08    0.06
   3   0  -3   -0.08    0.06
   3   0   3   -0.13    0.09
   3   0  -3    0.06    0.07
  -3   0  -3   -0.08    0.09
  -3   0  -3   -0.03    0.09
  -3   0   3   -0.05    0.06
   3   0   3   -0.14    0.08
   3   0  -3    0.03    0.06
  -3   0   3   -0.03    0.06
  -3   0  -3   -0.04    0.07
  -3   0   4    0.00    0.10
   3   0   4   -0.11    0.15
   3   0  -4    0.05    0.11
  -3   0  -4   -0.13    0.16
  -3   0  -4    0.08    0.12
   3   0  -4   -0.03    0.10
  -3   0  -4   -0.14    0.17
   3   0   4   -0.11    0.14
   3   0   4   -0.10    0.11
   3   0  -4    0.09    0.11
  -3   0   4   -0.11    0.10
   3   0  -5    0.10    0.19
   3   0   5   -0.13    0.28
   4   0   0   50.48    1.24
   4   0   0   50.33    1.22
   4   0   0   49.26    1.26
  -4   0   0   50.65    1.22
   4   0   0   49.38    1.24
   4   0   0   50.03    1.26
  -4   0  -1  175.44    4.23
   4   0  -1  179.08    4.31
   4   0  -1  176.84    4.19
  -4   0   1  181.36    4.30
   4   0  -1  174.26    4.14
   4   0  -1  182.44    4.19
  -4   0  -1  175.41    4.17
   4   0   1  161.76    4.29
  -4   0  -1  176.17    4.30
   4   0   1  169.40    4.23
   4   0   1  178.11    4.17
  -4   0  -2   32.27    0.87
   4   0   2   33.31    0.91
  -4   0  -2   32.44    0.91
  -4   0  -2   32.27    0.89
   4   0  -2   33.18    0.83
   4   0   2   30.93    0.89
   4   0  -2   30.95    0.81
   4   0  -2   33.66    0.85
  -4   0   2   33.46    0.82
   4   0  -3   88.63    2.21
  -4   0   3   90.35    2.21
   4   0  -3   89.38    2.18
   4   0   3   92.72    2.30
  -4   0  -3   88.78    2.25
  -4   0  -3   86.02    2.32
  -4   0  -3   89.78    2.30
   4   0   3   91.78    2.22
  -4   0  -4   15.51    0.57
   4   0  -4   15.15    0.50
  -4   0   4   15.96    0.46
   4   0   4   15.30    0.60
  -4   0  -4   15.83    0.63
  -4   0  -4   15.24    0.62
   4   0   4   15.72    0.52
   4   0   4   15.24    0.61
   4   0  -4   15.32    0.52
   4   0  -4   15.15    0.50
   4   0  -5   35.59    1.05
  -4   0  -5   34.99    1.11
   4   0   5   34.88    1.19
   5   0   0   -0.25    0.04
   5   0   0   -0.29    0.03
   5   0   0   -0.33    0.04
   5   0   0   -0.12    0.04
  -5   0   0   -0.14    0.04
  -5   0   0   -0.29    0.03
   5   0   0   -0.29    0.04
   5   0   0   -0.34    0.03
  -5   0  -1   -0.23    0.05
   5   0  -1   -0.20    0.03
   5   0   1   -0.09    0.06
   5   0  -1   -0.18    0.03
  -5   0  -1   -0.05    0.06
   5   0  -1   -0.15    0.03
  -5   0  -1   -0.20    0.06
   5   0   1   -0.17    0.05
   5   0   1   -0.23    0.03
  -5   0   1   -0.20    0.03
  -5   0  -1   -0.20    0.04
   5   0   2   -0.15    0.07
   5   0   2   -0.06    0.08
  -5   0  -2   -0.12    0.07
   5   0  -2   -0.06    0.05
  -5   0  -2   -0.09    0.06
  -5   0  -2   -0.15    0.07
  -5   0   2    0.01    0.04
  -5   0   2   -0.08    0.04
   5   0   3    0.27    0.13
   5   0  -3    0.12    0.07
   5   0  -3    0.16    0.08
  -5   0   3    0.40    0.07
  -5   0  -3    0.12    0.13
   5   0   3   -0.02    0.11
  -5   0  -3    0.05    0.12
  -5   0  -3   -0.02    0.08
   5   0  -3    0.07    0.07
   5   0   3    0.09    0.10
   5   0  -4    0.02    0.10
   5   0   4    0.04    0.15
  -5   0  -4   -0.18    0.20
   5   0   4    0.25    0.19
   5   0  -4    0.00    0.11
  -5   0  -4    0.17    0.21
  -5   0   4    0.02    0.10
   5   0  -4    0.19    0.11
   5   0   4   -0.12    0.17
   5   0   5    0.29    0.32
   5   0  -5    0.05    0.20
  -5   0  -5   -0.03    0.22
   6   0   0  407.11    9.74
   6   0   0  398.01    9.61
   6   0   0  399.02    9.73
   6   0   0  396.63    9.80
  -6   0   0  412.29    9.66
   6   0   0  406.94    9.53
   6   0   0  402.08    9.72
  -6   0   0  389.26    9.46
   6   0  -1  142.11    3.50
  -6   0  -1  141.23    3.54
  -6   0  -1  138.48    3.43
   6   0  -1  140.04    3.41
  -6   0  -1  144.74    3.50
   6   0  -1  146.29    3.45
   6   0  -1  149.13    3.39
   6   0  -1  142.67    3.44
   6   0   1  145.47    3.44
   6   0   1  142.58    3.50
   6   0   1  137.61    3.54
   6   0  -2  290.49    6.76
  -6   0  -2  285.56    7.02
   6   0  -2  290.65    6.84
  -6   0  -2  293.46    6.97
  -6   0   2  287.94    6.81
  -6   0  -2  275.07    6.81
  -6   0   2  292.32    6.89
   6   0   2  275.88    7.01
   6   0   2  281.95    6.92
  -6   0  -3   74.53    2.03
   6   0  -3   79.31    1.91
   6   0   3   77.90    1.97
   6   0   3   76.92    2.04
  -6   0  -3   76.31    1.98
  -6   0  -3   76.88    2.07
   6   0   3   76.61    2.07
   6   0  -3   77.44    1.91
  -6   0   3   78.74    1.89
   6   0  -3   79.01    1.95
   6   0   4  138.15    3.47
  -6   0  -4  136.51    3.53
  -6   0  -4  133.89    3.48
   6   0  -4  134.16    3.29
  -6   0  -4  136.92    3.39
  -6   0   4  138.16    3.26
   6   0   4  128.83    3.33
   6   0  -4  136.75    3.31
   6   0  -4  135.52    3.37
   6   0   4  133.29    3.51
   6   0   5   36.57    1.27
  -6   0  -5   36.73    1.18
   6   0  -5   36.77    1.11
   7   0   0    0.04    0.05
   7   0   0    0.05    0.05
  -7   0   0    0.00    0.05
  -7   0   0    0.10    0.04
   7   0   0    0.02    0.06
   7   0   0   -0.01    0.04
   7   0   0   -0.01    0.05
   7   0   0    0.05    0.04
   7   0  -1   -0.02    0.05
   7   0  -1    0.06    0.06
   7   0  -1    0.04    0.05
   7   0   1   -0.04    0.06
  -7   0  -1    0.01    0.06
  -7   0  -1    0.08    0.06
   7   0   1   -0.09    0.06
   7   0  -1    0.02    0.05
   7   0  -1    0.01    0.04
   7   0  -1    0.05    0.05
   7   0  -2    0.07    0.07
   7   0   2   -0.07    0.09
  -7   0  -2    0.13    0.08
  -7   0   2    0.01    0.05
   7   0  -2   -0.07    0.07
   7   0  -2    0.08    0.08
  -7   0  -2    0.08    0.09
   7   0   2   -0.05    0.09
  -7   0  -3   -0.12    0.10
  -7   0  -3    0.29    0.16
   7   0  -3    0.10    0.09
  -7   0   3    0.12    0.05
   7   0   3    0.17    0.14
   7   0  -3    0.03    0.09
  -7   0  -3   -0.05    0.16
   7   0   3    0.12    0.14
   7   0   3    0.12    0.14
   7   0  -3   -0.04    0.07
   7   0   4    0.36    0.22
   7   0  -4    0.08    0.15
   7   0   4   -0.10    0.21
   7   0  -4   -0.02    0.11
  -7   0  -4    0.36    0.29
  -7   0  -4   -0.17    0.17
  -7   0  -4    0.49    0.32
  -7   0  -5    0.49    0.26
   7   0   5   -0.12    0.35
   8   0   0   -0.08    0.07
   8   0   0   -0.08    0.07
   8   0   0   -0.07    0.06
  -8   0   0    0.06    0.06
   8   0   0   -0.04    0.07
   8   0   0   -0.07    0.06
  -8   0   0    0.05    0.08
   8   0   1    0.11    0.08
   8   0   1    0.32    0.11
   8   0  -1    0.17    0.07
   8   0  -1    0.38    0.07
   8   0  -1    0.17    0.07
  -8   0  -1    0.36    0.09
  -8   0  -1    0.34    0.10
  -8   0   1    0.22    0.03
   8   0  -1    0.19    0.07
   8   0   1    0.20    0.10
   8   0  -1    0.22    0.07
   8   0  -1    0.12    0.08
   8   0  -2    0.19    0.08
   8   0  -2    0.12    0.09
  -8   0  -2    0.16    0.09
  -8   0  -2    0.66    0.15
   8   0  -2    0.25    0.07
   8   0   2    0.15    0.11
   8   0  -3    0.35    0.11
  -8   0  -3    0.68    0.21
  -8   0  -3    0.13    0.18
   8   0   3    0.51    0.18
  -8   0  -3    0.19    0.12
   8   0   3    0.14    0.13
   8   0  -3    0.36    0.11
   8   0  -3    0.44    0.09
   8   0  -4    0.15    0.09
  -8   0  -4    0.74    0.34
  -8   0  -4    0.32    0.19
   8   0   4    0.23    0.22
   8   0   4   -0.24    0.20
   8   0  -4    0.13    0.17
   8   0  -4    0.19    0.13
  -8   0  -5    0.85    0.32
   8   0   5   -0.26    0.39
  -9   0   0    0.01    0.06
   9   0   0    0.05    0.07
   9   0   0    0.08    0.07
   9   0   0    0.05    0.08
   9   0   0    0.08    0.06
   9   0   0    0.02    0.07
   9   0   0    0.07    0.07
  -9   0   0    0.04    0.07
   9   0  -1    0.06    0.07
  -9   0   1    0.03    0.03
   9   0  -1    0.00    0.07
   9   0  -1    0.07    0.06
   9   0  -1    0.11    0.07
   9   0   1   -0.01    0.09
   9   0  -1   -0.01    0.08
  -9   0  -1    0.15    0.07
  -9   0   1    0.07    0.03
   9   0   1    0.03    0.10
   9   0   1    0.22    0.11
   9   0  -1    0.08    0.07
  -9   0  -1   -0.07    0.08
   9   0   1    0.14    0.10
   9   0   2   -0.04    0.11
  -9   0  -2   -0.02    0.13
   9   0   2   -0.09    0.14
   9   0  -2   -0.07    0.06
   9   0  -2   -0.05    0.07
   9   0   2   -0.05    0.10
  -9   0  -2   -0.01    0.09
   9   0  -2   -0.03    0.10
   9   0  -2    0.12    0.09
   9   0  -2    0.16    0.09
   9   0   3   -0.17    0.22
   9   0   3   -0.05    0.15
   9   0  -3   -0.04    0.11
   9   0   3    0.09    0.16
   9   0  -3    0.09    0.11
  -9   0  -3    0.00    0.11
   9   0  -3    0.06    0.07
   9   0  -3    0.30    0.09
  -9   0  -3   -0.07    0.19
  -9   0  -4    0.24    0.19
   9   0  -4   -0.13    0.12
   9   0   4   -0.48    0.24
   9   0  -4   -0.19    0.18
   9   0   4    0.23    0.27
 -10   0   0  206.66    5.12
 -10   0   0  214.26    5.08
  10   0   0  210.46    5.13
  10   0   0  213.96    5.20
  10   0   0  220.85    5.21
  10   0   0  214.04    5.27
  10   0   0  209.79    5.28
  10   0   0  217.20    5.12
 -10   0  -1   50.52    1.32
  10   0  -1   48.76    1.31
  10   0   1   49.11    1.35
  10   0   1   48.52    1.35
 -10   0  -1   49.54    1.29
  10   0  -1   49.20    1.27
  10   0  -1   49.30    1.29
  10   0  -1   49.11    1.28
  10   0  -1   49.30    1.33
  10   0  -1   49.27    1.31
  10   0   1   48.24    1.38
  10   0   1   48.66    1.37
 -10   0  -2  163.35    4.19
  10   0   2  164.38    4.20
  10   0  -2  165.57    3.98
 -10   0  -2  168.00    4.04
  10   0  -2  160.99    4.04
  10   0  -2  167.76    4.11
  10   0   2  166.67    4.13
  10   0   2  164.52    4.19
  10   0  -2  164.05    4.07
  10   0  -2  164.64    4.00
  10   0   3   32.62    1.08
  10   0  -3   33.05    0.86
  10   0  -3   33.67    0.92
 -10   0  -3   32.02    1.10
  10   0  -3   33.07    0.90
 -10   0  -3   32.95    1.00
  10   0  -3   33.44    0.95
  10   0   4   85.70    2.42
  10   0  -4   83.76    2.14
  10   0  -4   85.30    2.18
  10   0   4   85.55    2.37
 -11   0   0    0.09    0.07
  11   0   0    0.34    0.10
  11   0   0    0.22    0.11
  11   0   0    0.04    0.11
  11   0   0    0.04    0.11
 -11   0   0    0.03    0.10
 -11   0  -1   -0.03    0.08
  11   0  -1    0.12    0.09
  11   0   1   -0.10    0.13
  11   0   1    0.03    0.11
  11   0   1    0.04    0.11
  11   0  -1    0.15    0.09
  11   0   1    0.15    0.14
  11   0  -1    0.18    0.10
  11   0  -1   -0.15    0.09
 -11   0  -1    0.06    0.13
  11   0  -1   -0.07    0.10
  11   0  -1   -0.15    0.11
 -11   0  -2    0.56    0.21
  11   0   2    0.04    0.19
  11   0  -2    0.10    0.15
  11   0   2   -0.12    0.19
  11   0   2   -0.14    0.14
 -11   0  -2    0.14    0.12
  11   0   2    0.18    0.17
  11   0  -2    0.14    0.09
  11   0  -2    0.01    0.12
  11   0  -2    0.08    0.09
  11   0  -2    0.03    0.10
  11   0   3    0.83    0.25
  11   0  -3    0.04    0.10
  11   0  -3    0.03    0.09
  11   0   3   -0.01    0.17
 -11   0  -3    0.12    0.16
  11   0  -3    0.26    0.14
  11   0  -3    0.12    0.16
  11   0  -4   -0.03    0.14
  11   0  -4    0.09    0.11
  11   0   4    0.14    0.35
  11   0   4   -0.20    0.29
  12   0   0   87.84    2.27
  12   0   0   88.63    2.23
 -12   0   0   87.71    2.21
  12   0   0   86.04    2.29
 -12   0   0   89.86    2.17
  12   0   0   89.94    2.33
  12   0   0   86.02    2.30
 -12   0  -1   25.80    0.83
  12   0  -1   26.87    0.83
 -12   0  -1   26.73    0.78
  12   0   1   25.57    0.87
  12   0  -1   26.66    0.80
  12   0  -1   26.42    0.79
  12   0   1   26.18    0.86
  12   0  -1   26.51    0.83
  12   0   1   27.11    0.86
  12   0  -1   26.74    0.79
  12   0   1   27.09    0.91
  12   0  -2   71.29    1.84
  12   0   2   70.75    1.95
  12   0  -2   72.12    1.90
  12   0  -2   70.90    1.80
 -12   0  -2   69.89    1.86
  12   0  -2   68.65    1.86
  12   0   2   69.73    2.00
  12   0  -2   71.30    1.81
  12   0   2   70.64    1.97
  12   0   3   18.58    0.76
  12   0  -3   17.71    0.53
  12   0   3   18.59    0.81
  12   0  -3   18.26    0.66
 -12   0  -3   18.52    0.71
  12   0  -3   18.12    0.57
  12   0  -3   19.04    0.62
  12   0  -4   34.73    0.94
  12   0   4   37.28    1.32
 -13   0   0    0.07    0.10
  13   0   0   -0.01    0.13
  13   0   0    0.06    0.17
 -13   0   0    0.05    0.15
  13   0   0    0.06    0.12
  13   0   0    0.22    0.16
  13   0   1    0.02    0.14
  13   0  -1    0.19    0.16
  13   0  -1    0.06    0.11
  13   0   1    0.03    0.21
 -13   0  -1    0.11    0.12
  13   0   1    0.09    0.22
  13   0   1   -0.08    0.14
  13   0  -1    0.07    0.13
 -13   0  -1   -0.32    0.18
  13   0   2   -0.17    0.29
  13   0  -2    0.08    0.12
  13   0  -2   -0.06    0.14
  13   0   2   -0.07    0.18
  13   0   2   -0.02    0.17
  13   0  -2    0.11    0.19
 -13   0  -2   -0.18    0.13
  13   0  -2   -0.10    0.21
  13   0  -3   -0.29    0.12
 -13   0  -3    0.09    0.21
  13   0   3   -0.03    0.25
  13   0  -3   -0.39    0.22
  13   0  -3    0.26    0.13
  13   0   3   -0.14    0.27
  13   0  -3    0.06    0.19
 -14   0   0    2.28    0.21
  14   0   0    1.88    0.22
 -14   0   0    2.47    0.25
  14   0   0    2.45    0.31
  14   0   0    2.55    0.29
  14   0   0    2.59    0.28
  14   0  -1    3.35    0.30
  14   0  -1    3.28    0.36
  14   0  -1    3.11    0.29
  14   0   1    4.55    0.49
 -14   0  -1    2.53    0.28
  14   0   1    3.43    0.39
  14   0  -1    2.44    0.24
  14   0  -1    3.69    0.40
  14   0   1    3.45    0.33
  14   0   1    3.09    0.35
  14   0  -2    1.47    0.20
  14   0   2    1.60    0.27
  14   0   2    1.56    0.26
 -14   0  -2    1.52    0.23
  14   0  -2    2.10    0.25
  14   0  -2    1.58    0.19
  14   0   3    1.92    0.35
 -14   0  -3    2.03    0.31
  14   0  -3    1.95    0.21
  14   0  -3    1.78    0.26
  14   0   3    2.28    0.38
 -15   0   0    0.01    0.11
  15   0   0   -0.20    0.18
  15   0   0   -0.23    0.16
  15   0   1    0.47    0.21
  15   0   1    0.28    0.21
  15   0  -1    0.03    0.15
  15   0  -1   -0.01    0.17
 -15   0  -1    0.31    0.18
  15   0  -1    0.40    0.18
 -15   0  -2   -0.13    0.21
  15   0   2    0.31    0.25
  15   0  -2    0.01    0.16
  15   0  -2    0.21    0.19
  15   0   2   -0.43    0.24
  15   0  -3   -0.09    0.18
 -15   0  -3    0.10    0.26
  15   0   3    0.81    0.36
  15   0   3   -0.38    0.33
 -16   0   0  121.40    2.97
  16   0   0  121.17    3.21
  16   0   0  122.82    3.16
  16   0   1   69.96    2.02
  16   0   1   69.73    1.99
  16   0  -1   70.01    1.91
 -16   0  -1   69.77    1.84
  16   0  -1   70.26    1.94
  16   0   2   98.01    2.78
  16   0  -2   99.80    2.56
  16   0  -2   99.37    2.62
  16   0   2  100.59    2.74
 -16   0  -2   98.69    2.61
  16   0  -2  102.09    2.59
  17   0   0    0.43    0.25
  17   0   0   -0.08    0.22
  17   0   1    0.25    0.29
 -17   0  -1    0.08    0.21
  17   0  -1    0.06    0.23
  17   0   1    0.34    0.28
   0  -1   1    0.01    0.02
   0  -1   1    0.02    0.03
   0  -1  -1    0.02    0.02
   0   1   1    0.02    0.02
   0  -1  -1    0.02    0.02
   0   1  -1    0.00    0.02
   0   1  -1    0.01    0.03
   0   1  -1    0.01    0.02
   0  -1  -1   -0.02    0.02
   0   1  -2   -0.02    0.04
   0  -1   2    0.05    0.05
   0   1   2   -0.05    0.04
   0  -1   2    0.03    0.03
   0  -1  -2    0.01    0.04
   0   1   2   -0.01    0.04
   0   1  -2    0.02    0.04
   0   1  -2   -0.04    0.04
   0  -1  -2    0.07    0.04
   0  -1  -2    0.05    0.04
   0  -1   3    0.05    0.05
   0   1  -3    0.11    0.08
   0   1   3    0.04    0.07
   0  -1  -3    0.10    0.08
   0  -1  -3    0.00    0.07
   0   1   3    0.04    0.07
   0   1  -3    0.13    0.08
   0   1  -3   -0.01    0.08
   0  -1  -3    0.05    0.07
   0  -1   3   -0.04    0.09
   0   1  -4   -0.13    0.10
   0  -1   4    0.01    0.11
   0   1   4    0.19    0.12
   0  -1  -4   -0.19    0.13
   0  -1  -4    0.10    0.12
   0  -1  -4    0.17    0.12
   0  -1   4   -0.06    0.13
   0   1  -4    0.17    0.15
   0   1   4   -0.27    0.13
   0   1  -4    0.32    0.13
   0   1  -5   -0.01    0.19
   0  -1  -5    0.04    0.21
  -1   1   1    1.38    0.05
   1   1  -1    1.29    0.06
   1  -1   1    1.24    0.08
   1   1  -1    1.37    0.07
  -1  -1  -1    1.33    0.07
   1  -1   1    1.19    0.08
   1   1  -1    1.36    0.07
  -1  -1  -1    1.45    0.07
  -1  -1  -1    1.35    0.07
  -1   1  -1    1.27    0.08
   1   1   1    1.26    0.07
   1   1   1    1.35    0.06
  -1  -1   1    1.20    0.07
  -1   1  -1    1.31    0.08
  -1  -1   1    1.31    0.06
   1  -1  -1    1.33    0.05
   1  -1  -1    1.39    0.04
   1  -1  -1    1.31    0.05
   1  -1   2    0.54    0.06
   1  -1   2    0.35    0.07
   1   1  -2    0.55    0.07
  -1  -1  -2    0.48    0.06
  -1  -1  -2    0.53    0.07
   1   1  -2    0.41    0.06
  -1   1   2    0.39    0.05
   1   1  -2    0.41    0.07
  -1   1   2    0.44    0.06
   1  -1   2    0.47    0.07
  -1  -1  -2    0.43    0.07
  -1  -1   2    0.39    0.07
  -1   1  -2    0.43    0.07
   1  -1  -2    0.36    0.05
  -1  -1   2    0.50    0.05
  -1   1  -2    0.43    0.07
   1   1   2    0.44    0.07
   1  -1  -2    0.46    0.06
   1   1   2    0.41    0.05
  -1   1  -2    0.48    0.07
   1   1  -3    0.80    0.11
  -1  -1  -3    0.83    0.11
   1  -1   3    0.91    0.13
  -1  -1  -3    0.77    0.10
  -1   1   3    1.03    0.10
  -1   1   3    0.75    0.10
   1  -1   3    0.76    0.09
   1   1  -3    0.72    0.11
  -1  -1  -3    0.90    0.12
   1   1  -3    0.84    0.12
   1  -1   3    0.72    0.11
  -1   1  -3    0.67    0.11
  -1  -1   3    0.88    0.11
   1  -1  -3    0.74    0.10
  -1   1  -3    0.72    0.10
  -1  -1   3    0.82    0.08
   1  -1  -3    0.88    0.10
   1  -1  -3    0.84    0.10
   1   1   3    0.77    0.12
  -1   1  -3    0.69    0.12
   1   1   3    0.85    0.11
   1   1  -4    0.44    0.13
  -1   1   4    0.39    0.12
   1   1  -4    0.50    0.16
   1  -1   4    0.50    0.10
   1   1  -4    0.27    0.11
  -1  -1  -4    0.36    0.12
  -1   1   4    0.29    0.11
  -1  -1  -4    0.26    0.15
  -1  -1  -4    0.39    0.14
   1  -1   4    0.36    0.15
   1  -1  -4    0.45    0.13
   1  -1  -4    0.37    0.13
   1   1   4    0.55    0.16
  -1   1  -4    0.48    0.13
   1  -1  -4    0.36    0.13
  -1  -1   4    0.45    0.13
  -1   1  -4    0.53    0.18
  -1   1  -4    0.17    0.13
  -1  -1   4    0.25    0.15
   1   1   4    0.36    0.13
   1  -1   5    0.64    0.28
  -1  -1  -5    0.55    0.20
   1   1  -5    0.49    0.20
   1  -1  -5    0.60    0.20
  -1   1  -5    0.72    0.21
  -2   1   0    8.51    0.23
  -2  -1   0    8.36    0.24
   2   1   0    9.11    0.25
   2  -1   0    8.62    0.24
  -2  -1   0    9.49    0.24
   2   1   0    9.04    0.24
  -2   1   0    9.05    0.23
  -2  -1   0    8.95    0.23
  -2  -1   0    8.90    0.25
   2  -1   0    9.06    0.23
  -2   1   0    8.67    0.23
   2  -1   0    8.56    0.23
   2   1   0    7.93    0.24
  -2   1   0    8.53    0.24
  -2  -1  -1   25.57    0.65
   2  -1   1   25.93    0.69
   2  -1   1   25.98    0.66
   2   1  -1   25.91    0.64
  -2  -1  -1   26.35    0.67
  -2  -1  -1   24.39    0.68
   2   1  -1   25.93    0.67
  -2   1   1   26.41    0.62
   2   1  -1   26.03    0.66
  -2   1  -1   25.79    0.68
   2   1   1   26.44    0.65
   2   1   1   26.59    0.67
   2  -1  -1   26.39    0.64
   2  -1  -1   26.48    0.63
   2   1   1   24.46    0.68
  -2  -1   1   26.16    0.63
  -2  -1   1   25.57    0.65
  -2   1  -1   24.48    0.68
   2  -1   2    6.78    0.27
  -2   1   2    7.66    0.22
   2   1  -2    7.40    0.25
  -2  -1  -2    7.23    0.27
   2  -1   2    6.87    0.24
   2  -1   2    7.05    0.27
  -2  -1  -2    7.63    0.27
   2   1  -2    7.31    0.25
  -2  -1  -2    7.29    0.25
   2   1  -2    7.39    0.23
   2  -1  -2    7.36    0.21
   2   1   2    7.20    0.27
   2   1   2    7.49    0.24
   2  -1  -2    7.18    0.22
  -2   1  -2    7.26    0.28
   2   1   2    7.60    0.27
  -2   1  -2    7.69    0.28
  -2  -1   2    7.12    0.20
   2  -1  -2    7.73    0.23
  -2  -1   2    7.26    0.25
  -2   1  -2    7.52    0.26
  -2  -1   2    7.27    0.25
  -2   1   3   14.08    0.43
   2   1  -3   14.11    0.46
  -2  -1  -3   13.53    0.47
  -2   1   3   14.57    0.42
  -2  -1  -3   13.91    0.48
   2   1  -3   14.24    0.45
   2  -1   3   14.66    0.49
   2  -1   3   13.98    0.43
  -2  -1  -3   14.51    0.46
   2  -1   3   14.11    0.49
   2   1  -3   14.83    0.44
  -2   1  -3   14.41    0.50
   2  -1  -3   14.18    0.43
   2  -1  -3   14.57    0.44
  -2   1  -3   13.81    0.46
  -2  -1   3   14.01    0.45
   2   1   3   14.29    0.48
  -2   1  -3   15.17    0.50
   2   1   3   14.48    0.42
   2  -1  -3   14.62    0.42
  -2  -1   3   14.30    0.45
   2   1   3   14.65    0.48
   2   1  -4    4.34    0.29
  -2   1   4    4.59    0.24
   2  -1   4    4.79    0.25
  -2   1   4    4.81    0.27
  -2  -1  -4    4.61    0.33
   2  -1   4    4.63    0.34
  -2  -1  -4    4.92    0.29
  -2  -1  -4    4.94    0.33
   2   1  -4    4.95    0.29
   2  -1   4    5.01    0.34
  -2   1  -4    4.72    0.29
   2  -1  -4    4.86    0.27
  -2   1  -4    4.70    0.35
  -2   1  -4    4.53    0.34
   2   1   4    4.97    0.35
  -2  -1   4    4.52    0.27
   2   1   4    4.77    0.33
   2  -1  -4    4.68    0.26
  -2  -1  -5    8.87    0.48
   2  -1   5    8.15    0.56
   2  -1  -5    7.69    0.44
   3  -1   0  124.64    2.99
  -3  -1   0  121.94    3.02
   3   1   0  133.88    3.03
  -3   1   0  126.84    3.01
  -3  -1   0  119.46    3.06
  -3   1   0  134.32    3.06
   3   1   0  122.45    2.99
   3  -1   0  128.57    3.03
  -3  -1   0  122.10    2.99
  -3   1   0  125.18    3.01
  -3  -1   0  131.32    3.05
   3   1   0  125.14    3.02
  -3   1   0  125.44    3.06
   3   1   0  119.99    3.06
   3  -1   1   61.25    1.56
  -3   1   1   63.85    1.50
   3   1  -1   63.71    1.54
   3   1  -1   62.34    1.55
   3  -1   1   60.54    1.52
   3   1  -1   62.20    1.51
  -3  -1  -1   60.85    1.57
  -3  -1  -1   62.80    1.56
  -3  -1  -1   61.05    1.52
   3   1   1   62.50    1.58
   3   1   1   64.83    1.52
  -3   1  -1   63.78    1.53
  -3   1  -1   61.51    1.58
   3  -1  -1   64.00    1.50
  -3   1  -1   63.53    1.56
  -3  -1   1   62.25    1.49
   3   1   1   62.77    1.56
  -3  -1   1   61.51    1.53
  -3  -1   1   62.13    1.55
  -3  -1   1   62.83    1.48
   3  -1  -1   64.63    1.52
  -3  -1  -2   72.91    1.93
   3   1  -2   75.53    1.88
   3   1  -2   78.43    1.84
  -3   1   2   77.44    1.84
   3  -1   2   75.18    1.92
  -3  -1  -2   74.91    1.87
  -3   1   2   78.07    1.85
   3  -1   2   78.82    1.87
   3   1  -2   74.18    1.91
  -3  -1  -2   76.55    1.91
   3  -1  -2   77.89    1.84
  -3  -1   2   76.14    1.89
   3   1   2   73.09    1.91
  -3   1  -2   77.19    1.92
   3   1   2   74.87    1.86
  -3  -1   2   75.07    1.87
   3   1   2   75.91    1.94
  -3   1  -2   76.68    1.88
   3  -1  -2   76.36    1.81
  -3   1  -2   78.04    1.95
   3   1  -3   29.10    0.76
   3   1  -3   28.13    0.77
   3  -1   3   27.36    0.84
  -3   1   3   29.18    0.73
   3  -1   3   27.61    0.77
  -3  -1  -3   28.93    0.84
   3  -1   3   27.43    0.83
  -3  -1  -3   28.98    0.80
  -3  -1  -3   28.69    0.82
   3   1  -3   27.42    0.79
   3  -1  -3   27.78    0.76
   3   1   3   27.88    0.82
   3  -1  -3   28.32    0.75
  -3  -1   3   28.00    0.77
  -3   1  -3   28.45    0.84
  -3   1  -3   27.90    0.80
  -3  -1   3   27.97    0.77
   3   1   3   28.20    0.76
   3  -1  -3   28.57    0.74
   3   1   3   27.21    0.82
   3   1  -4   32.97    0.92
   3   1  -4   33.82    0.95
   3  -1   4   31.48    1.01
   3  -1   4   33.59    0.91
   3  -1   4   33.74    1.01
  -3  -1  -4   32.24    0.99
  -3  -1  -4   32.66    1.01
  -3  -1  -4   33.09    0.96
  -3   1   4   33.36    0.87
   3   1  -4   31.78    0.93
  -3   1  -4   32.62    1.02
   3  -1  -4   32.85    0.93
   3  -1  -4   32.69    0.90
   3   1   4   32.19    0.99
  -3   1  -4   33.89    0.97
   3  -1  -4   33.35    0.90
  -3  -1   4   31.73    0.92
  -3  -1   4   32.81    0.92
  -3   1  -4   31.98    1.01
   3   1   4   33.55    1.00
   3  -1   5   13.08    0.69
  -3  -1  -5   13.83    0.62
   3   1  -5   13.41    0.57
   3  -1  -5   14.16    0.56
  -3   1  -5   13.14    0.61
   3   1   5   13.89    0.70
   4  -1   0   64.89    1.52
   4   1   0   57.73    1.50
  -4   1   0   59.07    1.53
   4  -1   0   60.71    1.49
  -4   1   0   60.81    1.48
  -4  -1   0   63.89    1.49
   4   1   0   63.22    1.50
   4   1   0   62.00    1.53
  -4   1   0   62.36    1.49
   4   1   0   60.01    1.55
  -4  -1   0   60.16    1.51
   4   1   0   65.31    1.55
  -4   1   0   63.10    1.52
   4  -1   0   60.57    1.54
   4   1   0   63.98    1.53
  -4  -1  -1  156.23    3.67
   4   1  -1  154.52    3.70
  -4  -1  -1  144.77    3.67
   4  -1   1  159.46    3.73
   4   1  -1  145.94    3.65
  -4  -1  -1  151.62    3.72
  -4  -1  -1  152.59    3.77
   4  -1   1  149.76    3.77
   4  -1   1  158.87    3.67
   4   1  -1  154.59    3.75
   4   1   1  158.93    3.73
   4  -1  -1  156.93    3.63
  -4  -1   1  154.77    3.74
  -4  -1   1  149.66    3.63
  -4  -1   1  151.51    3.69
  -4  -1   1  152.21    3.64
  -4   1  -1  152.61    3.77
   4  -1  -1  162.14    3.63
   4   1   1  157.91    3.78
   4  -1  -1  157.99    3.72
   4  -1  -1  158.14    3.67
  -4   1  -1  147.88    3.66
   4   1   1  149.92    3.66
  -4   1  -1  151.43    3.72
  -4   1   2   40.95    0.98
   4   1  -2   41.58    1.01
   4  -1   2   39.82    1.08
  -4  -1  -2   40.34    1.08
  -4  -1  -2   41.35    1.09
   4   1  -2   39.09    1.05
   4  -1   2   41.27    1.04
   4  -1   2   39.69    1.10
  -4  -1  -2   39.32    1.04
   4   1  -2   39.70    1.03
  -4   1  -2   40.18    1.10
  -4   1  -2   38.84    1.05
   4  -1  -2   40.15    0.97
   4  -1  -2   40.43    0.99
  -4  -1   2   39.68    1.02
   4   1   2   40.77    1.04
  -4  -1   2   40.33    1.03
   4   1   2   37.71    1.07
   4  -1  -2   41.40    1.01
  -4   1  -2   41.43    1.09
   4  -1   3   80.69    1.97
   4  -1   3   79.40    2.04
  -4   1   3   79.24    1.92
   4   1  -3   79.94    1.94
  -4  -1  -3   75.07    2.02
   4   1  -3   78.68    1.96
   4  -1   3   80.71    2.07
  -4  -1  -3   77.69    1.98
   4   1  -3   78.41    2.00
  -4  -1  -3   79.84    2.06
   4  -1  -3   78.06    1.93
   4   1   3   77.73    1.95
  -4  -1   3   78.99    1.97
  -4   1  -3   79.15    1.99
  -4   1  -3   77.20    2.07
  -4   1  -3   80.54    2.05
  -4  -1   3   78.16    1.96
   4   1   3   73.74    2.06
   4   1   3   78.77    2.03
   4  -1  -3   80.09    1.91
   4  -1  -3   79.41    1.97
   4   1  -4   18.77    0.61
  -4  -1  -4   20.05    0.66
  -4  -1  -4   19.14    0.72
   4  -1   4   19.04    0.71
   4  -1   4   19.38    0.78
  -4  -1  -4   18.41    0.71
   4  -1   4   18.96    0.62
   4   1  -4   20.36    0.64
  -4   1   4   19.75    0.56
   4   1  -4   20.15    0.62
   4  -1  -4   20.30    0.61
  -4   1  -4   20.25    0.73
  -4   1  -4   19.71    0.67
   4  -1  -4   19.19    0.57
   4  -1  -4   19.54    0.59
   4   1   4   19.78    0.71
  -4  -1   4   19.89    0.60
  -4   1  -4   20.12    0.73
   4   1   4   18.61    0.70
   4  -1   5   31.84    1.12
  -4  -1  -5   31.94    1.05
   4   1  -5   32.24    0.99
   4  -1  -5   31.10    0.96
  -4   1  -5   31.19    1.03
   4   1   5   32.79    1.11
   5  -1   0    1.32    0.10
  -5   1   0    1.37    0.09
   5   1   0    1.29    0.09
  -5  -1   0    1.28    0.08
   5  -1   0    1.48    0.08
  -5   1   0    1.45    0.09
   5   1   0    1.50    0.09
   5   1   0    1.29    0.10
  -5   1   0    1.39    0.09
   5   1   0    1.33    0.10
   5  -1   0    1.30    0.08
  -5  -1   0    1.44    0.10
   5  -1   0    1.33    0.09
  -5   1   0    1.37    0.08
   5   1   0    1.29    0.09
   5   1   0    1.43    0.10
  -5  -1  -1    0.43    0.08
   5  -1   1    0.55    0.08
   5   1  -1    0.50    0.06
  -5  -1  -1    0.58    0.08
   5   1  -1    0.55    0.07
   5  -1   1    0.49    0.08
  -5  -1  -1    0.37    0.06
   5   1  -1    0.58    0.07
  -5  -1  -1    0.53    0.07
   5  -1   1    0.49    0.07
   5  -1  -1    0.44    0.05
   5   1   1    0.44    0.07
  -5  -1   1    0.51    0.05
  -5   1  -1    0.52    0.07
  -5   1  -1    0.55    0.08
   5  -1  -1    0.52    0.05
   5  -1  -1    0.44    0.05
  -5  -1   1    0.50    0.05
  -5  -1   1    0.57    0.07
  -5   1  -1    0.49    0.08
   5   1   1    0.59    0.09
   5   1   1    0.51    0.09
   5   1   1    0.48    0.08
   5  -1  -1    0.45    0.05
   5  -1  -1    0.45    0.05
  -5  -1   1    0.44    0.06
   5  -1  -1    0.47    0.05
  -5  -1  -2    1.01    0.12
   5  -1   2    0.87    0.11
   5  -1   2    0.73    0.11
   5   1  -2    1.05    0.10
   5   1  -2    0.98    0.11
  -5   1   2    1.03    0.06
  -5  -1  -2    0.89    0.12
  -5  -1  -2    1.13    0.12
   5   1  -2    1.00    0.10
  -5   1  -2    0.85    0.12
   5  -1  -2    1.10    0.09
   5  -1  -2    1.07    0.07
   5   1   2    0.91    0.12
  -5   1  -2    0.87    0.11
  -5  -1   2    0.94    0.09
   5   1   2    0.85    0.11
   5  -1  -2    0.87    0.07
  -5  -1   2    0.95    0.09
  -5  -1  -3    0.21    0.13
  -5  -1  -3    0.23    0.10
  -5   1   3    0.22    0.05
   5  -1   3    0.19    0.12
  -5  -1  -3    0.01    0.12
   5   1  -3    0.18    0.08
   5   1  -3    0.12    0.08
   5  -1   3    0.31    0.10
   5  -1   3    0.19    0.12
  -5   1  -3    0.19    0.12
  -5   1  -3    0.13    0.10
   5   1   3    0.27    0.11
   5   1   3    0.24    0.12
   5   1   3    0.33    0.12
  -5   1  -3    0.38    0.14
  -5  -1   3    0.15    0.07
   5  -1  -3    0.25    0.06
   5  -1  -3    0.32    0.07
   5   1  -4    0.60    0.15
   5  -1   4    0.40    0.21
   5  -1   4    0.27    0.19
   5   1  -4    0.13    0.13
   5  -1   4    0.48    0.18
  -5  -1  -4    0.95    0.26
   5   1  -4    0.34    0.14
  -5   1   4    0.54    0.09
   5   1   4    0.41    0.19
   5  -1  -4    0.53    0.13
  -5   1  -4    0.80    0.23
   5  -1  -4    0.41    0.10
  -5   1  -4    0.59    0.17
  -5  -1   4    0.63    0.11
  -5   1  -4    0.20    0.23
   5  -1  -4    0.45    0.12
   5   1   4    0.46    0.19
   5  -1   5    0.11    0.33
  -5  -1  -5   -0.03    0.24
   5   1  -5   -0.20    0.22
   5   1   5   -0.20    0.29
  -5   1  -5   -0.03    0.20
   5  -1  -5    0.39    0.19
  -6   1   0    7.23    0.24
   6   1   0    7.27    0.24
   6   1   0    7.06    0.25
  -6  -1   0    7.01    0.24
  -6   1   0    7.05    0.25
   6  -1   0    7.05    0.25
   6   1   0    7.02    0.26
  -6   1   0    7.23    0.25
  -6  -1   0    7.32    0.26
   6  -1   0    7.61    0.24
   6  -1   0    7.33    0.25
   6   1   0    7.55    0.26
  -6   1   0    7.12    0.23
   6   1   0    7.12    0.26
   6   1   0    7.69    0.27
   6  -1   0    6.90    0.24
   6  -1   1    6.93    0.28
  -6  -1  -1    6.64    0.27
   6   1  -1    6.89    0.24
   6  -1   1    6.85    0.25
   6   1  -1    6.81    0.25
   6   1  -1    6.88    0.25
  -6  -1  -1    6.92    0.28
  -6  -1  -1    6.99    0.25
   6  -1   1    7.13    0.28
   6   1   1    7.12    0.26
   6   1   1    7.27    0.28
  -6  -1   1    6.82    0.24
  -6  -1   1    6.76    0.23
   6   1   1    6.93    0.28
   6  -1  -1    6.89    0.21
  -6  -1   1    6.92    0.21
   6  -1  -1    6.74    0.23
   6  -1  -1    7.00    0.23
  -6   1  -1    6.84    0.28
   6   1   1    6.93    0.28
  -6   1  -1    7.02    0.25
   6  -1  -1    7.19    0.22
  -6  -1   1    6.48    0.19
   6  -1  -1    7.02    0.23
  -6   1  -1    6.88    0.27
  -6  -1  -2    5.06    0.25
   6  -1   2    5.34    0.27
  -6  -1  -2    5.30    0.27
   6  -1   2    5.32    0.27
   6   1  -2    5.02    0.22
   6   1  -2    5.11    0.22
   6   1  -2    4.87    0.21
  -6  -1  -2    5.11    0.24
  -6  -1   2    5.01    0.19
   6   1   2    4.75    0.26
   6  -1  -2    4.88    0.18
  -6   1  -2    5.47    0.25
   6   1   2    5.04    0.27
  -6  -1   2    5.21    0.19
   6  -1  -2    5.26    0.20
  -6   1  -2    5.03    0.27
   6  -1  -2    5.03    0.18
   6  -1   3    3.79    0.25
  -6  -1  -3    4.17    0.31
   6   1  -3    4.14    0.23
   6   1  -3    3.87    0.21
  -6  -1  -3    3.93    0.24
   6  -1   3    3.96    0.30
  -6  -1  -3    4.08    0.30
   6  -1   3    3.70    0.28
   6  -1  -3    3.70    0.15
   6  -1  -3    3.95    0.18
  -6   1  -3    3.58    0.31
   6  -1  -3    3.69    0.18
  -6   1  -3    3.76    0.25
   6   1   3    4.15    0.30
  -6  -1   3    3.73    0.17
  -6   1  -3    3.40    0.30
   6   1   3    4.15    0.26
   6   1   3    4.29    0.29
   6   1  -4    2.66    0.26
   6  -1   4    2.51    0.26
   6   1  -4    3.09    0.27
  -6  -1  -4    2.52    0.32
   6  -1   4    2.73    0.32
   6   1  -4    2.65    0.24
  -6  -1  -4    2.81    0.29
   6  -1   4    2.92    0.32
   6  -1  -4    2.64    0.23
   6   1   4    2.34    0.28
   6  -1  -4    2.89    0.16
  -6   1  -4    2.74    0.31
   6   1   4    2.09    0.27
  -6   1  -4    3.13    0.35
   6  -1  -4    2.81    0.20
  -6   1  -4    2.54    0.31
  -6  -1   4    2.74    0.20
  -6  -1  -5    1.72    0.31
   6   1  -5    1.92    0.30
   6   1   5    1.01    0.37
  -6   1  -5    1.47    0.27
   7   1   0   27.32    0.75
  -7   1   0   26.65    0.70
   7  -1   0   25.92    0.73
   7  -1   0   27.95    0.70
   7  -1   0   25.66    0.74
  -7   1   0   26.57    0.68
  -7  -1   0   26.79    0.70
   7   1   0   25.52    0.74
   7  -1   0   27.01    0.73
  -7  -1   0   26.10    0.72
   7   1   0   25.66    0.72
   7   1   0   25.62    0.73
   7  -1   0   25.76    0.72
   7   1   0   26.36    0.73
   7  -1   0   27.30    0.71
  -7  -1  -1   37.86    1.01
   7  -1   1   38.05    1.06
   7   1  -1   38.14    1.01
   7   1  -1   38.46    1.03
  -7  -1  -1   39.73    1.06
   7   1  -1   38.63    1.00
   7  -1   1   39.66    1.05
   7   1   1   39.71    1.07
   7  -1  -1   39.70    0.97
  -7  -1   1   38.01    1.00
   7  -1  -1   39.33    1.00
   7   1   1   37.40    1.07
   7  -1  -1   38.96    0.98
  -7  -1   1   38.20    0.95
   7  -1  -1   38.88    0.98
  -7   1  -1   38.64    1.02
  -7   1  -1   38.55    1.01
   7   1   1   35.87    1.04
   7  -1  -1   39.72    1.00
   7  -1  -1   38.81    1.01
   7   1   1   38.26    1.05
  -7  -1  -2   19.08    0.62
   7  -1   2   19.13    0.62
   7  -1   2   18.50    0.61
   7   1  -2   18.52    0.54
   7   1  -2   18.99    0.57
   7   1  -2   18.33    0.56
   7   1   2   19.61    0.63
   7  -1  -2   18.22    0.51
  -7  -1   2   18.90    0.52
   7   1   2   18.78    0.63
   7  -1  -2   18.65    0.50
   7  -1  -2   18.52    0.51
   7  -1  -2   19.09    0.54
  -7   1  -2   17.79    0.57
  -7  -1   2   18.87    0.52
  -7   1  -2   18.75    0.62
   7   1   2   18.77    0.62
   7  -1   3   21.63    0.75
   7   1  -3   22.03    0.65
  -7  -1  -3   21.54    0.69
   7  -1   3   21.68    0.69
   7   1  -3   21.77    0.66
  -7  -1  -3   21.35    0.75
   7   1  -3   21.85    0.63
   7  -1   3   21.64    0.73
  -7  -1  -3   22.10    0.75
  -7   1  -3   21.58    0.76
   7   1   3   21.64    0.68
   7  -1  -3   22.16    0.60
  -7   1  -3   22.11    0.69
  -7   1  -3   21.54    0.74
   7  -1  -3   21.63    0.61
  -7  -1   3   21.89    0.58
   7   1   3   21.53    0.75
   7   1   3   21.42    0.73
  -7  -1   3   20.88    0.59
   7  -1   4    9.51    0.57
   7   1  -4    9.09    0.37
   7  -1   4   10.14    0.54
  -7  -1  -4    9.81    0.47
  -7  -1  -4   10.37    0.60
  -7  -1  -4    9.29    0.58
   7   1  -4    9.39    0.43
   7   1  -4    9.66    0.41
   7   1   4    9.81    0.52
  -7  -1   4    9.78    0.34
   7  -1  -4    9.80    0.40
  -7   1  -4    9.36    0.62
   7  -1  -4    9.79    0.34
   7   1   4   10.60    0.57
  -7   1  -4    9.49    0.48
  -7  -1  -5   10.01    0.61
   7  -1   5    9.90    0.74
  -7   1  -5    9.40    0.58
   7   1   5    9.12    0.73
   8   1   0   31.27    0.90
   8  -1   0   32.65    0.87
   8  -1   0   34.17    0.90
   8  -1   0   32.87    0.90
   8  -1   0   32.79    0.87
   8   1   0   33.84    0.90
   8   1   0   32.89    0.92
   8   1   0   32.78    0.92
   8  -1   0   31.45    0.89
   8   1   0   33.13    0.89
  -8  -1   0   33.45    0.89
  -8  -1   0   33.44    0.86
   8  -1   0   32.49    0.91
  -8   1   0   33.69    0.87
  -8   1   0   32.69    0.84
   8   1  -1   36.64    1.01
   8  -1   1   37.08    1.03
   8   1  -1   37.62    0.99
  -8  -1  -1   36.29    0.99
   8  -1   1   37.31    1.05
   8   1  -1   37.14    0.98
   8   1  -1   37.73    1.01
   8   1  -1   37.80    1.00
  -8  -1  -1   38.10    1.02
   8  -1  -1   37.22    0.96
  -8  -1   1   37.91    0.92
   8  -1  -1   38.28    0.97
   8   1   1   37.42    1.05
   8   1   1   38.03    1.04
  -8   1  -1   37.26    1.00
  -8  -1   1   36.47    0.93
   8  -1  -1   37.63    0.98
   8   1   1   37.20    1.06
   8  -1  -1   37.33    0.99
   8  -1  -1   36.69    1.00
   8   1   1   37.16    1.04
  -8   1  -1   37.36    0.99
   8  -1  -1   38.55    0.95
   8  -1   2   25.41    0.79
  -8  -1  -2   25.97    0.75
  -8  -1  -2   24.66    0.80
   8   1  -2   25.95    0.71
   8   1  -2   25.28    0.73
   8   1  -2   25.54    0.75
   8  -1   2   26.38    0.81
   8  -1  -2   26.11    0.72
   8  -1  -2   25.61    0.69
  -8   1  -2   24.62    0.75
   8   1   2   25.27    0.80
   8  -1  -2   25.65    0.67
   8   1   2   26.04    0.81
  -8  -1   2   25.89    0.69
   8  -1  -2   25.53    0.68
  -8   1  -2   25.18    0.80
   8   1   2   25.98    0.80
   8  -1  -2   25.32    0.69
   8   1  -3   23.53    0.68
  -8  -1  -3   23.02    0.80
   8  -1   3   23.08    0.81
  -8  -1  -3   23.75    0.82
   8   1  -3   23.92    0.72
  -8  -1  -3   24.71    0.76
   8  -1   3   24.66    0.81
   8   1  -3   23.62    0.70
  -8   1  -3   23.15    0.75
  -8   1  -3   24.57    0.84
  -8   1  -3   22.21    0.81
   8  -1  -3   24.05    0.67
   8   1   3   22.36    0.75
   8  -1  -3   25.42    0.66
   8   1   3   22.89    0.78
   8   1   3   24.72    0.82
  -8  -1   3   23.36    0.64
   8   1  -4   15.00    0.52
   8   1  -4   13.93    0.48
  -8  -1  -4   14.79    0.60
   8   1  -4   14.48    0.56
   8  -1   4   14.53    0.71
   8  -1  -4   15.05    0.44
  -8   1  -4   14.54    0.62
  -8   1  -4   15.40    0.77
   8   1   4   14.49    0.69
   8  -1  -4   13.92    0.52
   8   1   4   15.22    0.67
   8  -1   5   10.62    0.80
  -8  -1  -5    9.51    0.66
   8   1   5   11.11    0.78
  -9   1   0    3.26    0.16
   9  -1   0    3.50    0.21
   9   1   0    3.11    0.21
  -9  -1   0    3.12    0.21
   9   1   0    3.41    0.19
  -9  -1   0    3.32    0.17
   9  -1   0    3.11    0.20
   9  -1   0    3.43    0.20
   9   1   0    3.08    0.21
   9  -1   0    3.32    0.18
  -9   1   0    3.24    0.19
   9   1   0    3.32    0.22
   9   1   0    3.22    0.20
   9   1  -1    3.49    0.20
   9   1  -1    3.41    0.21
   9  -1   1    3.25    0.22
  -9  -1  -1    3.24    0.20
   9   1  -1    3.27    0.19
  -9  -1  -1    3.24    0.23
   9   1  -1    3.25    0.20
   9   1  -1    3.53    0.21
   9  -1   1    3.80    0.23
   9   1   1    3.73    0.25
   9   1   1    3.37    0.23
  -9   1  -1    3.54    0.20
   9   1   1    3.42    0.24
  -9   1  -1    3.53    0.22
   9  -1  -1    3.49    0.18
   9  -1  -1    3.39    0.19
   9  -1  -1    3.15    0.18
   9   1   1    3.31    0.22
   9  -1  -1    3.16    0.18
   9  -1  -1    3.78    0.18
  -9  -1   1    3.46    0.15
   9  -1  -1    3.27    0.20
  -9  -1   1    3.37    0.14
   9   1  -2    2.64    0.19
   9   1  -2    2.51    0.21
   9  -1   2    2.91    0.26
   9  -1   2    3.03    0.25
   9   1  -2    2.76    0.22
  -9  -1  -2    3.10    0.28
  -9  -1  -2    3.00    0.22
  -9   1  -2    3.14    0.22
   9  -1  -2    2.94    0.16
  -9   1  -2    3.10    0.28
   9   1   2    2.73    0.26
   9  -1  -2    2.98    0.20
   9   1   2    2.54    0.26
   9  -1  -2    2.76    0.19
   9  -1  -2    2.94    0.16
   9  -1  -2    3.16    0.17
   9   1   2    2.88    0.30
   9  -1   3    2.85    0.31
   9   1  -3    2.79    0.23
  -9  -1  -3    2.86    0.26
   9   1  -3    2.73    0.27
  -9  -1  -3    1.89    0.26
   9  -1   3    2.04    0.24
   9   1  -3    3.08    0.24
   9   1   3    3.05    0.34
  -9   1  -3    2.25    0.26
   9  -1  -3    2.37    0.19
   9  -1  -3    2.45    0.15
   9  -1  -3    2.47    0.20
  -9   1  -3    2.29    0.32
   9   1   3    2.81    0.31
  -9  -1  -4    2.70    0.29
   9   1  -4    2.60    0.28
   9  -1   4    1.75    0.33
   9   1  -4    2.50    0.28
   9  -1   4    1.84    0.30
   9   1   4    2.43    0.34
   9   1   4    2.60    0.37
  -9   1  -4    2.25    0.28
   9  -1  -4    2.63    0.25
   9  -1  -4    1.99    0.16
  10   1   0   45.10    1.20
  10  -1   0   44.57    1.15
 -10   1   0   44.01    1.11
  10   1   0   42.77    1.21
  10   1   0   42.34    1.16
  10  -1   0   43.23    1.19
  10  -1   0   42.86    1.20
 -10   1   0   43.27    1.14
  10  -1   0   42.20    1.17
  10  -1   0   42.26    1.18
  10   1   0   43.98    1.15
  10   1   0   42.95    1.20
 -10  -1   0   44.15    1.12
  10   1   0   42.37    1.18
 -10  -1   0   43.55    1.16
  10  -1   1   13.11    0.49
  10  -1   1   13.73    0.50
  10   1  -1   13.56    0.48
 -10  -1  -1   13.97    0.49
  10   1  -1   13.69    0.45
 -10  -1  -1   13.10    0.45
  10   1  -1   13.69    0.47
  10  -1   1   13.22    0.52
  10   1  -1   13.47    0.45
  10   1  -1   13.24    0.46
 -10   1  -1   13.93    0.45
  10   1   1   13.52    0.50
  10  -1  -1   12.90    0.44
  10  -1  -1   13.69    0.44
 -10   1  -1   13.85    0.48
  10   1   1   13.66    0.52
 -10  -1   1   13.21    0.37
 -10  -1   1   12.97    0.38
  10  -1  -1   13.70    0.46
  10  -1  -1   13.29    0.46
  10  -1  -1   13.56    0.43
  10   1   1   13.51    0.51
  10  -1  -1   13.23    0.44
  10   1   1   13.85    0.51
  10  -1   2   33.82    1.01
 -10  -1  -2   32.63    1.03
 -10  -1  -2   34.56    0.96
  10   1  -2   33.66    0.93
  10   1  -2   33.16    0.96
  10   1  -2   32.48    0.91
  10   1  -2   33.09    0.96
  10  -1   2   32.86    1.02
  10  -1  -2   34.08    0.89
  10   1   2   33.50    1.01
  10  -1  -2   34.04    0.88
  10  -1  -2   33.54    0.94
 -10   1  -2   32.78    0.95
 -10   1  -2   33.11    1.03
  10   1   2   31.72    1.00
  10  -1  -2   32.93    0.90
  10  -1  -2   31.58    0.91
  10   1   2   34.36    1.03
  10   1   2   33.63    1.05
  10   1  -3    9.31    0.40
  10   1  -3    9.27    0.43
 -10  -1  -3    9.07    0.44
 -10  -1  -3    8.16    0.57
  10  -1   3    9.12    0.51
  10   1  -3    9.33    0.38
  10  -1   3    9.02    0.49
  10   1  -3    9.04    0.34
  10  -1  -3    9.45    0.36
  10  -1  -3    9.02    0.35
 -10   1  -3    9.35    0.57
 -10   1  -3   10.08    0.45
  10   1   3    9.22    0.52
  10   1  -4   17.21    0.51
  10   1  -4   19.18    0.63
  10  -1   4   19.72    0.86
  10   1  -4   17.82    0.67
  10   1   4   17.90    0.85
  10   1   4   18.26    0.80
  11   1   0    1.25    0.17
 -11   1   0    1.25    0.15
  11  -1   0    2.27    0.22
  11  -1   0    1.17    0.15
  11   1   0    1.15    0.17
  11  -1   0    1.32    0.16
  11   1   0    1.57    0.17
  11  -1   0    1.54    0.17
  11  -1   0    1.56    0.19
 -11  -1   0    1.48    0.18
  11   1   0    1.15    0.14
 -11   1   0    1.49    0.14
  11   1   0    1.45    0.19
 -11  -1   0    1.54    0.16
  11  -1   1    1.31    0.17
  11  -1   1    1.38    0.17
 -11  -1  -1    1.09    0.14
  11   1  -1    1.51    0.16
  11   1  -1    1.80    0.19
  11  -1   1    1.33    0.18
  11   1  -1    1.12    0.15
 -11  -1  -1    1.27    0.20
  11   1  -1    1.44    0.17
  11  -1   1    1.20    0.21
  11   1  -1    1.51    0.18
  11  -1  -1    1.56    0.16
  11  -1  -1    1.67    0.17
 -11   1  -1    1.65    0.17
  11  -1  -1    1.57    0.17
  11   1   1    1.49    0.21
 -11  -1   1    1.47    0.11
 -11  -1   1    1.36    0.12
 -11   1  -1    1.63    0.19
  11  -1  -1    1.94    0.21
  11  -1  -1    1.33    0.15
  11  -1  -1    1.42    0.15
  11   1   1    1.43    0.22
  11   1   1    1.58    0.20
  11   1   1    1.22    0.18
  11  -1   2    0.88    0.21
  11   1  -2    1.10    0.16
  11   1  -2    1.03    0.19
  11   1  -2    1.12    0.14
 -11  -1  -2    1.29    0.18
  11  -1   2    1.59    0.28
  11  -1  -2    1.10    0.13
  11   1   2    1.31    0.21
  11   1   2    0.97    0.20
  11   1   2    1.14    0.25
  11  -1  -2    1.14    0.17
  11  -1  -2    0.94    0.13
  11   1   2    1.25    0.24
  11  -1  -2    1.10    0.13
 -11   1  -2    1.14    0.17
  11  -1  -2    1.24    0.17
 -11  -1  -3    0.84    0.30
 -11  -1  -3    0.79    0.19
  11   1  -3    0.93    0.15
  11  -1   3    0.58    0.23
  11   1  -3    0.94    0.17
  11   1  -3    0.65    0.16
  11  -1   3    0.97    0.23
  11   1  -3    0.85    0.14
  11   1  -3    0.75    0.20
  11  -1  -3    0.83    0.15
  11  -1  -3    0.99    0.16
  11  -1  -3    0.82    0.11
 -11   1  -3    0.83    0.19
  11   1   3    0.74    0.23
  11   1   3    0.81    0.21
  11  -1   4    0.85    0.38
  11  -1   4    0.27    0.30
  11   1  -4    0.59    0.27
  11   1   4   -0.04    0.30
  11   1   4    0.54    0.37
  12  -1   0   13.23    0.53
 -12   1   0   12.70    0.46
 -12  -1   0   12.87    0.43
  12  -1   0   12.67    0.48
 -12  -1   0   12.91    0.49
  12   1   0   12.95    0.50
  12   1   0   12.87    0.50
  12   1   0   13.26    0.49
  12  -1   0   13.13    0.49
  12   1   0   12.68    0.53
  12  -1   0   13.08    0.51
  12  -1   0   12.64    0.49
  12   1   0   13.77    0.53
 -12   1   0   13.62    0.42
  12  -1   1   12.22    0.53
  12  -1   1   12.27    0.56
  12   1  -1   13.37    0.52
  12  -1   1   12.91    0.53
  12  -1   1   13.08    0.56
  12   1  -1   12.94    0.52
 -12  -1  -1   13.39    0.47
 -12  -1  -1   13.36    0.53
  12   1  -1   12.48    0.49
  12   1  -1   12.69    0.48
  12   1  -1   13.78    0.49
  12  -1  -1   13.65    0.51
  12  -1  -1   12.34    0.46
 -12  -1   1   12.20    0.37
  12   1   1   13.27    0.54
  12  -1  -1   12.48    0.46
  12   1   1   12.50    0.58
 -12  -1   1   13.33    0.36
 -12   1  -1   12.62    0.52
  12  -1  -1   12.76    0.46
  12  -1  -1   13.58    0.50
  12  -1  -1   12.76    0.46
 -12   1  -1   12.64    0.46
  12   1   1   12.26    0.53
  12   1   1   12.97    0.56
  12   1  -2   10.60    0.43
 -12  -1  -2   10.15    0.45
  12   1  -2   11.14    0.41
  12  -1   2   10.64    0.61
  12   1  -2   10.21    0.41
  12  -1   2   10.72    0.53
  12  -1   2   10.68    0.51
  12   1  -2   11.39    0.51
  12   1   2   10.79    0.60
  12  -1  -2   10.39    0.46
  12  -1  -2   11.03    0.39
  12  -1  -2    9.90    0.45
  12   1   2   10.67    0.53
 -12   1  -2   10.03    0.45
  12   1   2   10.78    0.52
  12  -1  -2   10.76    0.41
  12  -1   3    7.75    0.54
  12   1  -3    8.78    0.38
  12   1  -3    7.84    0.50
 -12  -1  -3    9.47    0.48
  12   1  -3    8.84    0.36
  12   1  -3    8.91    0.42
 -12   1  -3    8.19    0.48
  12  -1  -3    8.57    0.39
  12  -1  -3    8.62    0.32
  12   1   3    8.99    0.54
  12   1   3    8.23    0.58
  12  -1  -3    8.68    0.40
  12   1  -4    5.54    0.33
  12  -1   4    5.28    0.55
  12  -1   4    5.48    0.62
  12   1   4    5.01    0.51
 -13  -1   0   32.20    0.94
  13   1   0   31.86    0.97
  13   1   0   31.97    1.01
  13  -1   0   31.91    0.99
 -13   1   0   32.55    0.91
  13  -1   0   32.10    1.01
  13  -1   0   31.48    0.97
 -13   1   0   32.38    0.86
 -13  -1   0   31.50    0.88
  13   1   0   30.22    1.01
  13   1   0   32.33    0.99
  13   1  -1   38.58    1.17
  13  -1   1   40.35    1.18
  13   1  -1   39.82    1.18
  13  -1   1   39.92    1.21
 -13  -1  -1   39.77    1.10
  13  -1   1   38.70    1.19
  13   1  -1   40.20    1.12
  13   1  -1   39.56    1.14
 -13  -1  -1   39.78    1.17
 -13   1  -1   40.00    1.10
 -13   1  -1   38.85    1.14
  13  -1  -1   39.64    1.11
  13   1   1   41.11    1.25
  13   1   1   37.81    1.21
  13  -1  -1   39.50    1.17
  13  -1  -1   37.92    1.10
  13  -1  -1   40.45    1.13
 -13  -1   1   38.30    0.97
  13  -1  -1   38.57    1.15
  13  -1  -1   41.57    1.11
  13   1   1   38.70    1.18
  13   1  -2   25.81    0.89
  13   1  -2   26.39    0.82
 -13  -1  -2   26.72    0.85
  13  -1   2   26.26    0.93
  13  -1   2   27.15    0.91
  13  -1   2   24.67    1.00
  13   1  -2   26.62    0.81
  13  -1  -2   24.36    0.83
  13  -1  -2   26.78    0.77
 -13   1  -2   26.02    0.84
  13   1   2   27.61    0.93
  13   1   2   26.15    1.01
  13  -1  -2   25.81    0.78
  13  -1  -2   26.55    0.79
  13  -1  -2   26.87    0.87
  13   1   2   26.28    0.95
  13  -1   3   27.73    1.03
  13  -1   3   26.76    1.03
  13   1  -3   26.31    0.78
 -13  -1  -3   26.39    0.92
  13   1  -3   26.81    0.82
  13   1  -3   27.48    0.87
  13  -1  -3   26.89    0.77
  13   1   3   28.24    1.06
 -13   1  -3   28.30    0.95
  13  -1  -3   26.79    0.85
  13   1   3   28.06    1.01
  13  -1  -3   28.11    0.83
  14   1   0    0.70    0.26
  14   1   0    0.70    0.24
 -14  -1   0    0.88    0.21
 -14  -1   0    0.48    0.13
 -14   1   0    0.93    0.19
  14  -1   0    0.76    0.18
  14   1   0    0.83    0.18
  14  -1   0    0.78    0.23
  14  -1   0    0.90    0.17
  14   1   0    0.73    0.17
  14  -1   0    0.71    0.24
 -14   1   0    0.76    0.13
  14   1  -1   44.22    1.26
  14  -1   1   42.83    1.36
  14   1  -1   46.93    1.31
  14   1  -1   43.97    1.33
  14  -1   1   43.31    1.39
  14   1  -1   44.09    1.27
  14  -1   1   44.38    1.31
  14  -1   1   45.38    1.34
  14  -1  -1   43.71    1.24
 -14   1  -1   42.34    1.28
  14   1   1   45.02    1.32
 -14   1  -1   44.70    1.21
  14  -1  -1   44.04    1.31
  14  -1  -1   44.11    1.36
  14  -1  -1   43.90    1.26
  14   1   1   43.81    1.40
  14   1   1   43.32    1.34
  14  -1   2    0.61    0.24
  14   1  -2    1.38    0.20
 -14  -1  -2    0.98    0.20
  14  -1   2    1.26    0.25
  14   1  -2    0.67    0.19
 -14   1  -2    1.33    0.23
  14   1   2    0.51    0.24
  14   1   2    0.65    0.25
  14  -1  -2    0.93    0.17
  14  -1  -2    0.84    0.16
  14  -1  -2    1.09    0.20
  14  -1  -2    0.94    0.28
  14   1  -3   28.96    0.87
  14   1  -3   31.22    0.97
  14   1  -3   28.94    0.91
  14  -1   3   29.57    1.10
  14  -1   3   28.80    1.13
 -14  -1  -3   30.85    1.04
 -14   1  -3   31.56    1.04
  14   1   3   31.89    1.13
  14   1   3   30.02    1.17
  15   1   0    0.55    0.19
  15   1   0    0.59    0.20
 -15  -1   0    0.86    0.15
  15  -1   0    0.63    0.19
  15  -1   0    0.83    0.21
 -15   1   0    0.54    0.13
 -15  -1  -1    5.45    0.37
  15   1  -1    6.18    0.40
  15  -1   1    5.25    0.43
  15   1  -1    4.96    0.39
  15  -1   1    5.44    0.41
  15   1  -1    4.90    0.37
  15  -1  -1    4.73    0.35
  15  -1  -1    5.75    0.37
  15   1   1    4.86    0.44
  15   1   1    5.38    0.43
  15   1  -2    0.69    0.24
  15  -1   2    0.57    0.28
 -15  -1  -2    0.70    0.24
  15  -1   2    0.96    0.25
  15   1  -2    0.65    0.21
  15   1  -2    0.73    0.18
  15  -1  -2    0.27    0.18
  15   1   2    1.04    0.32
  15  -1  -2    0.46    0.19
  15  -1  -2    0.46    0.20
  15   1   2    0.72    0.27
 -15   1  -2    0.70    0.22
  15   1  -3    3.68    0.35
  15  -1   3    2.47    0.40
  15  -1   3    3.23    0.48
 -15  -1  -3    2.58    0.37
  15   1  -3    2.75    0.26
  15  -1  -3    3.16    0.29
 -15   1  -3    2.90    0.35
  15   1   3    3.02    0.44
  15   1   3    2.67    0.48
  16   1   0    3.84    0.41
  16   1   0    3.48    0.41
  16  -1   0    3.19    0.33
  16  -1   0    3.25    0.33
 -16  -1   0    2.96    0.29
  16   1  -1    2.30    0.30
  16   1  -1    2.10    0.26
  16   1  -1    2.04    0.29
 -16  -1  -1    1.89    0.26
  16  -1   1    1.83    0.29
  16  -1   1    1.79    0.29
  16   1   1    2.17    0.31
  16  -1  -1    1.82    0.24
  16   1   1    1.88    0.31
 -16   1  -1    1.94    0.23
  16  -1  -1    1.59    0.26
  16  -1   2    2.24    0.40
  16   1  -2    3.32    0.33
 -16  -1  -2    2.61    0.33
  16   1  -2    2.97    0.30
  16   1  -2    2.58    0.28
  16  -1   2    2.22    0.37
  16   1   2    2.37    0.39
 -16   1  -2    2.11    0.30
  16   1   2    2.08    0.37
  16  -1  -2    2.59    0.26
  16  -1  -2    2.67    0.27
  16  -1  -2    3.23    0.34
  17   1   0   -0.43    0.23
  17   1   0   -0.11    0.27
  17  -1   0   -0.32    0.23
  17  -1   0   -0.25    0.24
  17   1  -1   -0.01    0.22
  17   1  -1   -0.17    0.26
  17  -1   1    0.53    0.28
 -17  -1  -1    0.33    0.23
  17  -1   1   -0.02    0.25
 -17   1  -1    0.24    0.22
  17  -1  -1   -0.11    0.20
  17   1   1   -0.47    0.28
  17  -1  -1    0.02    0.24
  17   1   1   -0.08    0.28
   0   2   0    6.49    0.18
   0  -2   0    6.60    0.18
   0  -2   0    6.20    0.18
   0   2   0    6.29    0.18
   0   2   0    6.15    0.18
   0  -2   0    5.85    0.18
   0   2   1   13.67    0.35
   0   2   1   13.44    0.36
   0  -2  -1   13.40    0.36
   0   2  -1   13.87    0.38
   0  -2   1   12.80    0.38
   0  -2   1   13.43    0.38
   0  -2   1   12.57    0.36
   0   2   1   13.88    0.36
   0   2   1   13.19    0.35
   0   2  -1   13.77    0.38
   0  -2  -2    4.90    0.18
   0  -2   2    5.14    0.21
   0   2   2    5.00    0.18
   0  -2   2    5.07    0.18
   0  -2  -2    4.81    0.18
   0  -2  -2    5.05    0.17
   0   2  -2    4.72    0.21
   0   2   2    4.70    0.18
   0  -2   2    4.73    0.21
   0   2  -2    5.03    0.21
   0   2   2    4.51    0.18
   0   2  -2    4.71    0.19
   0   2   3    7.97    0.30
   0   2  -3    8.23    0.31
   0   2  -3    7.54    0.33
   0   2  -3    8.00    0.33
   0  -2  -3    8.13    0.29
   0  -2  -3    8.03    0.30
   0   2   3    7.95    0.29
   0  -2   3    7.48    0.32
   0  -2   3    7.93    0.33
   0  -2  -3    8.07    0.30
   0  -2   3    7.92    0.27
   0  -2  -4    3.19    0.25
   0   2  -4    3.54    0.26
   0  -2   4    3.06    0.26
   0  -2   4    3.19    0.30
   0   2  -4    3.19    0.28
   0  -2   4    3.04    0.18
   0   2  -4    2.81    0.29
   0  -2  -4    3.30    0.26
   0   2   4    3.60    0.24
   0   2  -5    5.04    0.39
  -1  -2   0    8.86    0.24
   1   2   0    9.30    0.25
  -1   2   0    8.75    0.24
  -1  -2   0    8.96    0.25
   1   2   0    8.87    0.24
   1  -2   0    8.98    0.24
  -1  -2   0    8.68    0.24
   1  -2   0    8.65    0.24
  -1   2   0    8.72    0.23
  -1   2   0    8.84    0.24
   1   2   0    8.27    0.24
   1  -2   0    8.85    0.23
   1  -2   1   16.85    0.44
  -1  -2  -1   17.49    0.43
  -1  -2  -1   16.33    0.44
  -1   2   1   17.67    0.42
  -1   2   1   17.31    0.42
  -1   2   1   17.62    0.42
  -1  -2  -1   17.02    0.45
   1  -2   1   15.40    0.46
   1   2  -1   16.69    0.46
   1   2  -1   16.04    0.46
  -1  -2   1   15.78    0.45
   1   2   1   16.83    0.45
  -1  -2   1   16.71    0.43
  -1   2  -1   16.39    0.46
   1  -2  -1   17.27    0.42
  -1  -2   1   16.58    0.46
  -1   2  -1   17.44    0.45
   1   2   1   17.12    0.44
   1   2   1   16.63    0.45
  -1   2  -1   16.19    0.47
   1  -2   2    5.94    0.22
  -1   2   2    6.72    0.21
   1  -2   2    5.87    0.25
  -1  -2  -2    6.55    0.22
   1   2  -2    6.54    0.24
   1  -2   2    6.54    0.25
  -1   2   2    6.51    0.21
   1   2  -2    6.20    0.24
   1   2  -2    6.84    0.23
  -1  -2  -2    6.47    0.23
  -1   2   2    6.43    0.22
  -1  -2  -2    6.44    0.23
   1   2   2    6.43    0.23
  -1   2  -2    6.29    0.25
  -1   2  -2    5.95    0.24
   1  -2  -2    6.44    0.21
   1  -2  -2    6.65    0.21
  -1  -2   2    6.51    0.21
  -1  -2   2    6.15    0.24
  -1   2  -2    6.53    0.24
   1  -2  -2    6.22    0.20
  -1  -2  -3    9.16    0.35
   1  -2   3    9.11    0.37
   1   2  -3    9.68    0.34
  -1   2   3    9.38    0.31
  -1  -2  -3    9.60    0.33
  -1   2   3    8.48    0.31
   1   2  -3    9.09    0.35
   1  -2   3    8.92    0.36
   1   2  -3    9.44    0.35
  -1  -2  -3    9.18    0.34
  -1   2  -3    9.81    0.37
  -1   2  -3    9.36    0.34
   1  -2  -3    9.33    0.32
   1  -2  -3    9.15    0.31
   1   2   3    8.93    0.33
  -1  -2   3    9.75    0.36
   1   2   3    9.36    0.35
  -1   2  -3    8.77    0.37
  -1  -2   3    9.00    0.28
   1  -2  -3    9.10    0.30
  -1  -2   3    9.40    0.35
   1  -2   4    4.00    0.31
   1  -2   4    3.79    0.30
  -1  -2  -4    3.98    0.30
  -1   2   4    4.07    0.24
   1   2  -4    4.57    0.32
   1  -2   4    4.26    0.23
   1   2  -4    3.95    0.26
  -1   2   4    3.68    0.24
  -1  -2  -4    3.67    0.26
  -1  -2  -4    4.30    0.29
   1   2  -4    3.71    0.29
   1  -2  -4    3.62    0.25
   1  -2  -4    4.35    0.26
   1   2   4    3.64    0.28
  -1   2  -4    3.87    0.32
  -1  -2   4    4.04    0.29
  -1  -2   4    3.96    0.31
  -1   2  -4    4.19    0.33
  -1   2  -4    4.11    0.28
   1   2   4    3.68    0.28
   1  -2  -4    4.17    0.25
  -1  -2  -5    4.99    0.41
   1  -2   5    5.35    0.52
   1   2  -5    4.75    0.39
   1  -2  -5    5.50    0.38
  -1   2  -5    4.72    0.40
   2  -2   0   15.28    0.41
  -2   2   0   15.74    0.40
   2  -2   0   16.11    0.42
  -2  -2   0   15.07    0.42
  -2  -2   0   15.25    0.43
   2   2   0   16.86    0.43
  -2  -2   0   16.54    0.43
   2  -2   0   15.96    0.40
  -2   2   0   16.35    0.41
  -2   2   0   16.19    0.41
  -2  -2  -1   16.02    0.44
   2  -2   1   17.45    0.47
  -2  -2  -1   17.31    0.46
  -2  -2  -1   16.63    0.44
   2   2  -1   16.41    0.46
   2  -2   1   16.91    0.45
  -2  -2  -1   17.47    0.46
   2  -2   1   15.75    0.47
   2   2  -1   16.60    0.46
   2   2   1   16.70    0.46
  -2   2  -1   16.10    0.45
   2   2   1   16.72    0.46
  -2  -2   1   16.91    0.43
  -2  -2   1   15.94    0.45
  -2   2  -1   16.37    0.46
   2   2   1   16.86    0.46
  -2   2  -1   16.56    0.47
  -2  -2  -2    9.07    0.32
   2   2  -2    9.17    0.32
   2   2  -2    9.68    0.30
   2   2  -2    9.53    0.32
  -2   2   2   10.01    0.26
   2  -2   2    9.01    0.33
  -2   2   2    9.88    0.25
  -2  -2  -2    9.58    0.30
   2  -2   2    9.20    0.30
  -2   2   2    9.65    0.27
   2  -2   2    9.49    0.33
  -2  -2  -2    9.25    0.32
   2  -2  -2    9.52    0.25
  -2  -2   2    9.12    0.31
   2  -2  -2    9.52    0.27
  -2   2  -2    9.22    0.33
   2   2   2    9.13    0.32
  -2  -2   2    9.40    0.27
   2  -2  -2    9.54    0.27
  -2   2  -2    9.22    0.31
  -2   2  -2    9.39    0.33
   2   2   2    9.55    0.32
  -2  -2  -3    8.28    0.30
   2   2  -3    7.74    0.32
   2   2  -3    7.76    0.31
  -2   2   3    7.81    0.25
  -2   2   3    8.11    0.26
  -2  -2  -3    7.70    0.32
   2  -2   3    7.98    0.34
   2  -2   3    8.05    0.29
  -2  -2  -3    7.89    0.32
   2  -2   3    7.26    0.33
   2   2  -3    7.78    0.29
   2  -2  -3    7.91    0.26
  -2   2  -3    8.00    0.34
  -2  -2   3    7.64    0.23
   2   2   3    7.99    0.32
   2  -2  -3    7.44    0.26
  -2   2  -3    7.59    0.34
  -2   2  -3    8.02    0.32
  -2  -2   3    7.76    0.31
  -2  -2  -4    4.14    0.31
  -2  -2  -4    5.31    0.33
   2   2  -4    4.32    0.27
   2  -2   4    4.59    0.33
   2  -2   4    4.66    0.26
   2   2  -4    4.77    0.30
  -2   2   4    4.61    0.23
   2  -2   4    4.86    0.34
   2   2  -4    4.28    0.30
  -2  -2  -4    4.67    0.29
   2  -2  -4    4.70    0.26
  -2   2  -4    4.70    0.29
  -2   2  -4    4.60    0.35
  -2  -2   4    4.46    0.28
   2   2   4    4.35    0.31
  -2  -2   4    4.53    0.30
   2   2   4    4.35    0.30
   2  -2  -4    4.67    0.26
  -2   2  -4    4.75    0.35
   2  -2  -4    4.53    0.25
   2  -2   5    3.83    0.38
   2   2  -5    3.11    0.35
  -2  -2  -5    3.33    0.31
   2  -2  -5    3.21    0.35
  -2   2  -5    3.23    0.32
  -3   2   0    6.21    0.19
   3   2   0    6.22    0.20
   3   2   0    6.23    0.20
  -3  -2   0    5.90    0.20
  -3   2   0    5.99    0.18
   3  -2   0    6.18    0.19
  -3   2   0    5.84    0.17
  -3  -2   0    5.97    0.20
   3  -2   0    6.04    0.18
  -3   2   0    5.86    0.17
   3   2  -1    8.38    0.27
  -3  -2  -1    8.39    0.28
  -3  -2  -1    8.16    0.27
   3   2  -1    7.97    0.26
   3  -2   1    8.22    0.28
  -3  -2  -1    8.62    0.26
   3  -2   1    8.41    0.28
  -3   2  -1    7.99    0.28
  -3   2  -1    8.14    0.28
  -3  -2   1    8.55    0.24
  -3  -2   1    8.19    0.26
   3   2   1    8.36    0.27
   3   2   1    8.22    0.28
   3   2   1    9.01    0.28
   3   2   1    8.29    0.28
   3   2   1    8.16    0.26
   3   2  -2    3.51    0.16
   3   2  -2    3.75    0.18
  -3   2   2    3.62    0.11
   3   2  -2    3.42    0.17
   3  -2   2    3.60    0.19
  -3  -2  -2    3.49    0.17
  -3  -2  -2    3.67    0.18
  -3  -2  -2    3.49    0.18
   3  -2   2    3.49    0.20
   3  -2  -2    3.51    0.11
   3   2   2    3.41    0.18
   3   2   2    3.34    0.15
  -3  -2   2    3.59    0.12
   3  -2  -2    3.54    0.12
  -3   2  -2    3.54    0.19
  -3  -2   2    3.53    0.16
  -3  -2   2    3.43    0.16
  -3   2  -2    3.38    0.19
  -3   2  -2    3.60    0.18
   3  -2  -2    3.47    0.11
   3   2   2    3.41    0.19
   3  -2   3    3.95    0.20
   3   2  -3    3.69    0.21
   3  -2   3    3.46    0.24
   3   2  -3    3.50    0.21
   3  -2   3    3.56    0.28
  -3  -2  -3    4.11    0.24
  -3  -2  -3    3.58    0.24
   3   2  -3    3.77    0.20
  -3   2   3    3.41    0.15
  -3  -2  -3    3.62    0.21
   3  -2  -3    3.90    0.17
  -3  -2   3    3.77    0.21
  -3  -2   3    3.89    0.21
   3  -2  -3    3.78    0.16
  -3   2  -3    4.29    0.26
   3   2   3    3.99    0.24
  -3   2  -3    3.81    0.23
   3  -2  -3    3.42    0.16
   3   2   3    3.65    0.22
  -3   2  -3    3.96    0.26
  -3  -2  -4    1.51    0.21
  -3  -2  -4    1.69    0.19
  -3   2   4    1.80    0.16
   3  -2   4    1.64    0.22
   3   2  -4    1.75    0.18
   3  -2   4    1.67    0.23
  -3  -2  -4    1.76    0.23
   3   2  -4    1.67    0.20
   3  -2   4    1.75    0.19
   3   2  -4    1.78    0.20
  -3   2  -4    1.56    0.24
  -3  -2   4    1.49    0.17
  -3   2  -4    1.39    0.19
   3   2   4    1.51    0.22
  -3   2  -4    1.81    0.25
   3  -2  -4    1.94    0.19
   3  -2  -4    1.54    0.15
   3  -2  -4    1.68    0.18
  -3  -2  -5    1.68    0.26
   3  -2   5    1.20    0.32
   3   2  -5    1.85    0.26
   3  -2  -5    1.90    0.25
  -3   2  -5    1.95    0.28
  -4  -2   0   18.70    0.50
   4  -2   0   19.88    0.50
   4  -2   0   19.45    0.51
   4   2   0   19.80    0.54
  -4  -2   0   19.49    0.52
  -4   2   0   19.61    0.49
  -4   2   0   19.14    0.52
  -4   2   0   19.25    0.51
   4   2   0   18.69    0.52
  -4   2   0   19.13    0.50
  -4  -2   0   19.44    0.54
   4  -2   0   19.25    0.52
   4  -2   1   57.70    1.53
   4   2  -1   60.86    1.50
  -4  -2  -1   61.40    1.49
   4  -2   1   62.10    1.52
   4   2  -1   60.07    1.52
   4  -2   1   62.64    1.49
   4   2  -1   58.37    1.48
  -4  -2  -1   61.99    1.54
  -4  -2  -1   60.53    1.48
  -4   2  -1   60.11    1.51
   4  -2  -1   60.23    1.46
  -4  -2   1   58.60    1.49
   4   2   1   58.34    1.51
   4  -2  -1   61.16    1.44
   4   2   1   58.06    1.54
   4   2   1   58.93    1.53
   4   2   1   61.55    1.51
   4   2   1   57.98    1.48
  -4   2  -1   62.97    1.54
  -4  -2   1   59.95    1.45
  -4   2  -1   58.69    1.48
   4  -2  -1   60.15    1.47
  -4  -2  -2   12.31    0.42
   4  -2   2   13.61    0.45
   4   2  -2   13.29    0.39
  -4  -2  -2   13.29    0.43
  -4  -2  -2   12.82    0.41
   4   2  -2   13.23    0.41
   4  -2   2   12.95    0.43
   4   2  -2   12.96    0.41
  -4  -2   2   12.63    0.33
  -4  -2   2   12.34    0.38
  -4   2  -2   12.84    0.44
   4   2   2   12.95    0.43
  -4  -2   2   12.55    0.39
  -4  -2   2   12.80    0.33
   4  -2  -2   13.36    0.34
  -4   2  -2   12.46    0.41
  -4  -2  -3   30.52    0.86
  -4  -2  -3   31.05    0.90
   4  -2   3   30.68    0.92
  -4  -2  -3   29.53    0.90
   4   2  -3   30.02    0.83
   4  -2   3   30.63    0.84
  -4   2   3   30.94    0.75
   4   2  -3   29.97    0.86
   4  -2   3   29.07    0.89
  -4   2  -3   31.67    0.87
  -4   2  -3   30.65    0.92
   4  -2  -3   30.30    0.77
  -4   2  -3   30.05    0.90
   4   2   3   31.32    0.89
   4  -2  -3   31.74    0.80
   4   2   3   28.91    0.89
  -4  -2   3   29.97    0.83
  -4  -2   3   30.29    0.83
  -4  -2  -4    6.36    0.41
   4   2  -4    6.37    0.34
   4   2  -4    6.47    0.33
  -4  -2  -4    6.72    0.35
  -4   2   4    6.41    0.23
   4  -2   4    6.29    0.36
   4  -2   4    6.27    0.43
  -4  -2  -4    6.71    0.41
   4   2  -4    6.31    0.34
   4  -2   4    6.66    0.41
  -4   2   4    6.49    0.23
  -4  -2   4    6.68    0.33
  -4  -2   4    6.30    0.31
   4  -2  -4    6.90    0.25
   4  -2  -4    6.67    0.28
   4   2   4    5.84    0.38
  -4   2  -4    6.82    0.45
   4  -2  -4    6.38    0.29
   4   2   4    7.30    0.39
  -4   2  -4    6.85    0.45
   4  -2   5   11.57    0.70
   4  -2  -5   12.06    0.51
  -4   2  -5   11.95    0.59
   4  -2  -5   12.00    0.51
  -5  -2   0   27.36    0.72
   5   2   0   27.08    0.72
  -5   2   0   27.91    0.71
   5  -2   0   26.80    0.69
  -5   2   0   26.33    0.68
   5  -2   0   26.98    0.71
  -5  -2   0   26.32    0.69
   5   2   0   25.64    0.73
  -5   2   0   26.54    0.70
  -5  -2   0   27.74    0.72
  -5  -2   0   24.39    0.72
  -5   2   0   27.48    0.68
   5   2   0   26.33    0.71
   5  -2   0   27.47    0.70
  -5  -2  -1   67.20    1.72
   5  -2   1   64.22    1.65
  -5  -2  -1   66.97    1.65
   5   2  -1   66.04    1.67
   5   2  -1   65.68    1.69
   5   2  -1   67.66    1.65
  -5  -2  -1   66.02    1.66
   5  -2   1   62.89    1.71
   5  -2   1   62.64    1.68
  -5   2  -1   70.04    1.72
   5   2   1   66.08    1.69
   5  -2  -1   68.29    1.64
   5  -2  -1   68.15    1.65
   5   2   1   65.82    1.71
  -5  -2   1   66.13    1.62
   5   2   1   66.71    1.72
   5  -2  -1   69.04    1.62
   5   2   1   69.45    1.65
  -5   2  -1   66.55    1.65
   5  -2  -1   67.21    1.60
   5   2   1   66.22    1.69
   5  -2  -1   67.92    1.62
   5  -2  -1   68.67    1.59
  -5  -2   1   64.76    1.66
  -5   2  -1   70.79    1.70
  -5  -2   1   68.01    1.61
   5  -2   2   20.69    0.63
   5   2  -2   20.62    0.58
  -5  -2  -2   19.93    0.59
   5   2  -2   20.33    0.60
  -5  -2  -2   18.91    0.62
   5  -2   2   21.12    0.64
   5   2  -2   20.59    0.60
  -5   2  -2   21.30    0.61
   5   2   2   20.06    0.58
   5   2   2   20.03    0.62
  -5  -2   2   20.15    0.57
   5  -2  -2   20.90    0.52
  -5  -2   2   20.86    0.57
  -5   2  -2   20.32    0.64
   5   2   2   20.68    0.63
   5   2  -3   28.31    0.84
  -5  -2  -3   29.44    0.89
   5  -2   3   28.62    0.83
   5   2  -3   29.02    0.82
   5  -2   3   29.68    0.90
  -5  -2  -3   30.37    0.89
   5  -2   3   29.18    0.91
  -5  -2  -3   29.59    0.85
   5   2  -3   29.96    0.83
   5  -2  -3   29.48    0.75
   5   2   3   29.42    0.82
  -5  -2   3   29.50    0.80
   5   2   3   29.33    0.90
   5   2   3   29.49    0.88
  -5  -2   3   29.59    0.81
  -5   2  -3   29.45    0.89
  -5   2  -3   29.81    0.86
   5  -2  -3   30.10    0.76
  -5   2  -3   28.99    0.91
   5   2  -4   11.19    0.44
  -5  -2  -4   11.70    0.54
   5  -2   4   10.38    0.47
   5  -2   4   11.36    0.53
   5   2  -4   10.96    0.46
   5  -2   4   11.59    0.56
   5   2  -4   10.84    0.45
  -5  -2  -4   11.62    0.55
  -5   2  -4   10.89    0.58
   5  -2  -4   11.00    0.38
   5  -2  -4   11.42    0.37
  -5   2  -4   11.47    0.48
   5   2   4    9.60    0.55
  -5  -2   4   11.38    0.42
  -5   2  -4   11.11    0.58
   5   2   4   11.31    0.52
   5  -2   5    7.43    0.63
  -5  -2  -5    7.65    0.51
  -5   2  -5    7.55    0.51
   5  -2  -5    6.99    0.42
   5  -2  -5    7.70    0.37
   5   2   5    7.01    0.61
   6  -2   0   15.64    0.42
  -6   2   0   15.50    0.41
  -6   2   0   14.85    0.44
  -6  -2   0   15.02    0.45
   6   2   0   15.29    0.46
   6  -2   0   14.74    0.44
  -6   2   0   15.22    0.44
   6   2   0   14.89    0.46
   6   2   0   15.42    0.46
  -6  -2   0   14.59    0.42
   6   2   0   14.29    0.45
   6  -2   0   14.82    0.44
  -6   2   0   15.50    0.42
   6  -2   1   18.22    0.54
  -6  -2  -1   18.27    0.52
   6  -2   1   17.24    0.54
   6   2  -1   17.44    0.53
   6   2  -1   18.07    0.52
   6   2  -1   17.72    0.52
  -6  -2   1   18.28    0.51
  -6   2  -1   17.59    0.54
   6  -2  -1   18.23    0.47
   6   2   1   17.80    0.55
   6  -2  -1   18.31    0.49
   6   2   1   18.63    0.55
   6   2   1   17.60    0.55
   6  -2  -1   18.50    0.49
  -6  -2   1   18.16    0.47
  -6  -2   1   17.82    0.49
   6   2   1   18.59    0.52
   6  -2  -1   18.24    0.48
  -6   2  -1   17.71    0.52
   6  -2  -1   18.49    0.48
   6  -2  -1   18.07    0.46
  -6  -2  -2    9.89    0.36
  -6  -2  -2   10.05    0.39
  -6  -2  -2   10.47    0.39
   6   2  -2    9.74    0.36
   6  -2   2   10.68    0.41
   6   2  -2   10.20    0.35
   6  -2   2    9.38    0.38
   6   2  -2   10.23    0.36
  -6   2  -2   10.30    0.37
  -6  -2   2   10.44    0.33
   6  -2  -2   10.20    0.29
   6  -2  -2   10.20    0.27
   6   2   2   10.41    0.39
   6   2   2    9.65    0.39
   6  -2  -2   10.18    0.28
  -6   2  -2    9.76    0.40
   6   2   2   10.45    0.40
   6   2   2   10.34    0.36
  -6  -2   2    9.68    0.32
  -6  -2  -3   11.45    0.43
   6  -2   3   12.40    0.49
  -6  -2  -3   11.74    0.48
   6   2  -3   11.67    0.41
   6  -2   3   11.56    0.48
   6   2  -3   12.18    0.42
   6   2  -3   11.97    0.43
   6  -2   3   11.09    0.43
  -6  -2  -3   11.49    0.48
  -6  -2   3   11.65    0.37
  -6   2  -3   11.21    0.44
   6   2   3   11.31    0.42
  -6  -2   3   11.45    0.38
   6   2   3   11.38    0.48
  -6   2  -3   11.73    0.50
   6   2   3   11.68    0.47
   6  -2  -3   11.90    0.33
  -6   2  -3   11.92    0.50
   6  -2  -3   11.23    0.35
   6  -2   4    2.31    0.28
  -6  -2  -4    2.64    0.32
   6  -2   4    2.67    0.32
  -6  -2  -4    2.55    0.28
   6   2  -4    2.10    0.21
   6   2  -4    2.49    0.28
  -6  -2  -4    2.28    0.30
   6   2  -4    2.33    0.23
  -6   2  -4    2.27    0.30
   6   2   4    2.42    0.28
  -6   2  -4    1.73    0.21
   6  -2  -4    2.62    0.20
  -6  -2   4    2.71    0.22
   6   2   4    2.50    0.30
  -6   2  -4    1.95    0.30
   6  -2  -4    2.21    0.16
  -6  -2  -5    6.87    0.55
   6  -2   5    6.28    0.64
   6   2   5    6.92    0.64
   6  -2  -5    6.84    0.31
  -6   2  -5    6.16    0.50
   7  -2   0   37.93    1.03
   7  -2   0   39.25    1.02
  -7   2   0   39.93    1.03
   7   2   0   38.82    1.02
   7   2   0   37.93    1.05
   7   2   0   37.34    1.03
   7   2   0   37.31    1.05
   7  -2   0   40.30    0.99
  -7  -2   0   39.68    1.02
   7   2   0   38.23    1.03
  -7   2   0   39.15    1.01
  -7   2   0   38.11    0.98
  -7  -2   0   38.62    0.99
  -7   2   0   39.52    0.97
   7  -2   1   39.80    1.11
   7   2  -1   39.59    1.09
   7   2  -1   40.02    1.07
  -7  -2  -1   41.19    1.06
   7   2  -1   40.38    1.06
   7  -2   1   41.67    1.10
   7   2   1   39.28    1.10
  -7   2  -1   40.66    1.06
   7  -2  -1   41.14    1.01
  -7  -2   1   39.71    1.02
   7  -2  -1   40.29    1.05
   7   2   1   38.37    1.11
  -7  -2   1   40.77    1.01
   7  -2  -1   40.67    1.04
   7  -2  -1   41.14    1.03
   7  -2  -1   41.53    1.03
  -7   2  -1   42.11    1.06
   7  -2  -1   41.52    1.01
   7   2   1   42.03    1.12
   7   2  -2   27.55    0.80
   7  -2   2   28.08    0.85
   7   2  -2   27.83    0.81
  -7  -2  -2   28.05    0.80
  -7  -2  -2   24.25    0.87
   7  -2   2   28.08    0.83
   7   2  -2   28.03    0.78
  -7  -2   2   28.05    0.76
   7   2   2   27.89    0.85
   7  -2  -2   27.55    0.71
  -7   2  -2   29.73    0.86
   7  -2  -2   28.71    0.74
   7   2   2   29.36    0.86
  -7  -2   2   28.29    0.76
  -7   2  -2   27.39    0.80
   7  -2  -2   28.98    0.70
   7  -2  -2   28.48    0.72
   7   2   2   28.68    0.84
   7  -2  -2   28.47    0.70
   7  -2  -2   28.13    0.69
  -7  -2  -3   23.98    0.79
   7  -2   3   22.96    0.77
   7  -2   3   22.98    0.79
   7   2  -3   23.65    0.70
  -7  -2  -3   23.68    0.73
  -7  -2  -3   22.16    0.78
   7   2  -3   23.52    0.70
   7  -2  -3   23.42    0.63
  -7   2  -3   24.08    0.81
  -7  -2   3   23.79    0.65
   7   2   3   23.25    0.79
  -7   2  -3   23.00    0.80
   7   2   3   22.80    0.71
  -7   2  -3   23.03    0.73
  -7  -2   3   23.86    0.66
   7   2   3   23.30    0.77
  -7  -2  -4   13.56    0.69
  -7  -2  -4   14.77    0.59
   7  -2   4   15.32    0.70
   7   2  -4   15.31    0.56
   7   2  -4   14.22    0.52
   7  -2   4   14.70    0.65
   7   2  -4   15.24    0.57
  -7  -2  -4   13.45    0.69
  -7  -2   4   15.34    0.48
   7  -2  -4   14.52    0.49
  -7   2  -4   14.71    0.60
  -7  -2   4   15.59    0.45
   7   2   4   14.09    0.64
  -7   2  -4   14.39    0.73
   7   2   4   15.22    0.68
  -7  -2  -5   11.51    0.67
   7  -2   5   14.00    0.84
  -7   2  -5   12.48    0.64
   7   2   5   10.85    0.75
   8  -2   0    1.67    0.14
   8   2   0    1.72    0.16
   8  -2   0    1.41    0.14
   8   2   0    1.52    0.15
  -8   2   0    1.30    0.12
   8  -2   0    1.56    0.13
   8   2   0    1.13    0.13
   8   2   0    1.39    0.14
  -8  -2   0    1.62    0.13
  -8   2   0    1.39    0.11
   8   2   0    1.35    0.15
   8   2  -1    2.11    0.17
  -8  -2  -1    2.00    0.15
   8  -2   1    1.86    0.18
   8   2  -1    1.85    0.16
   8  -2   1    2.06    0.18
   8   2  -1    1.59    0.16
   8  -2  -1    2.05    0.12
  -8   2  -1    2.34    0.17
   8   2   1    2.21    0.19
  -8  -2   1    2.12    0.14
  -8  -2   1    2.18    0.12
  -8   2  -1    2.09    0.16
   8  -2  -1    2.15    0.13
   8  -2  -1    1.94    0.13
   8  -2  -1    2.12    0.13
   8   2   1    2.00    0.19
   8   2   1    2.04    0.19
   8   2   1    2.07    0.17
   8  -2  -1    1.92    0.14
  -8  -2   1    2.16    0.16
   8  -2  -1    2.01    0.13
   8  -2   2    1.42    0.18
   8   2  -2    0.88    0.15
   8   2  -2    1.14    0.14
  -8  -2  -2    1.29    0.18
   8  -2   2    0.99    0.14
  -8  -2  -2    1.54    0.17
   8   2  -2    1.23    0.14
  -8   2  -2    1.01    0.13
   8  -2  -2    1.14    0.10
   8  -2  -2    0.93    0.09
   8   2   2    1.43    0.17
   8  -2  -2    1.17    0.12
   8   2   2    1.21    0.18
   8  -2  -2    1.11    0.10
  -8  -2   2    1.12    0.11
   8  -2  -2    1.19    0.09
  -8   2  -2    1.19    0.17
   8   2   2    0.86    0.15
  -8  -2   2    1.29    0.13
   8   2  -3    1.26    0.17
  -8  -2  -3    0.78    0.14
   8  -2   3    1.34    0.21
   8  -2   3    1.15    0.21
  -8  -2  -3    1.25    0.22
  -8  -2  -3    1.09    0.24
   8   2  -3    1.03    0.16
   8   2  -3    1.29    0.17
  -8   2  -3    1.25    0.24
  -8   2  -3    1.84    0.27
   8  -2  -3    1.13    0.12
   8   2   3    1.09    0.20
  -8   2  -3    1.09    0.17
   8   2   3    1.03    0.20
   8   2   3    0.85    0.18
   8  -2   4    0.63    0.26
   8   2  -4    0.98    0.21
   8   2  -4    0.82    0.20
  -8  -2  -4    0.02    0.17
   8  -2   4    0.95    0.28
  -8   2  -4    0.69    0.35
   8   2   4    0.78    0.28
  -8   2  -4    0.75    0.20
   8  -2  -4    0.61    0.16
   8   2   4    0.53    0.24
   8  -2   5    1.09    0.44
  -8  -2  -5    0.93    0.32
   8   2   5    0.86    0.44
   9  -2   0   -0.10    0.06
   9  -2   0   -0.06    0.08
   9   2   0    0.13    0.09
   9  -2   0    0.08    0.08
  -9   2   0   -0.02    0.05
  -9  -2   0    0.10    0.09
  -9   2   0    0.16    0.08
   9   2   0    0.00    0.09
  -9  -2   0    0.09    0.07
   9  -2   0    0.16    0.07
   9   2   0    0.04    0.08
   9   2   0   -0.02    0.07
   9  -2   0    0.06    0.08
   9   2   0   -0.09    0.08
   9   2  -1   24.01    0.71
  -9  -2  -1   24.09    0.69
   9  -2   1   22.89    0.73
  -9  -2  -1   24.93    0.73
   9   2  -1   23.97    0.69
   9   2  -1   23.84    0.69
   9   2  -1   24.17    0.71
   9  -2   1   24.76    0.73
   9   2  -1   23.13    0.71
   9   2   1   24.23    0.74
   9   2   1   23.73    0.74
   9  -2  -1   24.26    0.67
   9   2   1   24.67    0.76
   9  -2  -1   24.05    0.65
  -9  -2   1   22.58    0.64
   9   2   1   23.68    0.74
   9  -2  -1   23.12    0.67
  -9  -2   1   23.23    0.62
  -9   2  -1   23.73    0.68
   9  -2  -1   23.88    0.66
   9  -2  -1   23.51    0.68
  -9   2  -1   23.23    0.70
   9   2  -2    0.11    0.10
   9   2  -2    0.04    0.12
   9  -2   2    0.03    0.11
   9   2  -2    0.10    0.10
  -9  -2  -2   -0.18    0.13
   9  -2   2    0.16    0.12
  -9  -2  -2    0.16    0.09
   9  -2  -2    0.15    0.06
  -9   2  -2   -0.03    0.14
   9  -2  -2   -0.07    0.06
   9  -2  -2    0.19    0.08
   9  -2  -2    0.00    0.07
  -9  -2   2    0.06    0.08
  -9   2  -2    0.00    0.09
   9  -2  -2    0.10    0.06
   9   2   2    0.17    0.12
   9  -2  -2   -0.01    0.07
   9   2   2   -0.11    0.13
   9   2   2    0.03    0.14
  -9  -2  -3   13.70    0.62
   9  -2   3   14.43    0.62
   9   2  -3   14.08    0.55
  -9  -2  -3   13.49    0.53
   9   2  -3   14.34    0.51
   9  -2   3   15.07    0.58
   9   2  -3   14.46    0.51
   9   2   3   14.91    0.61
  -9   2  -3   13.55    0.65
  -9   2  -3   14.21    0.55
   9   2   3   13.90    0.58
   9  -2  -3   14.06    0.44
   9  -2   4    0.16    0.26
   9  -2   4    0.47    0.28
   9   2  -4    0.32    0.19
  -9  -2  -4    0.04    0.19
   9   2  -4    0.18    0.21
   9  -2  -4    0.09    0.17
   9   2   4   -0.46    0.25
  -9   2  -4    0.41    0.18
   9   2   4    0.10    0.28
  10   2   0    4.75    0.27
  10  -2   0    4.91    0.28
  10   2   0    4.93    0.27
 -10  -2   0    5.02    0.23
 -10   2   0    5.05    0.23
 -10  -2   0    5.18    0.28
  10  -2   0    4.62    0.25
  10  -2   0    4.94    0.27
  10   2   0    4.84    0.28
  10   2   0    5.07    0.29
  10  -2   0    4.73    0.24
  10   2   0    4.89    0.26
  10  -2   0    4.73    0.25
 -10   2   0    4.83    0.20
 -10  -2  -1    1.06    0.16
  10   2  -1    0.81    0.12
  10   2  -1    0.94    0.14
  10   2  -1    0.70    0.12
  10   2  -1    0.87    0.14
  10   2  -1    0.84    0.13
 -10  -2  -1    0.76    0.12
  10  -2   1    0.72    0.14
  10  -2   1    0.59    0.12
  10   2   1    0.84    0.14
 -10   2  -1    1.21    0.16
  10  -2  -1    0.82    0.12
  10  -2  -1    0.87    0.10
  10  -2  -1    0.75    0.12
  10  -2  -1    0.81    0.11
 -10   2  -1    0.77    0.11
 -10  -2   1    0.90    0.11
  10  -2  -1    0.87    0.11
 -10  -2   1    0.81    0.09
  10   2   1    0.74    0.18
  10   2   1    0.56    0.13
  10  -2  -1    0.98    0.11
  10   2   1    0.87    0.15
  10   2  -2    4.00    0.28
  10   2  -2    4.34    0.26
  10  -2   2    4.51    0.31
  10  -2   2    4.10    0.32
 -10  -2  -2    4.44    0.27
  10   2  -2    4.27    0.31
  10  -2  -2    4.25    0.24
  10   2   2    4.73    0.32
  10  -2  -2    4.47    0.21
 -10   2  -2    4.00    0.27
  10  -2  -2    4.44    0.20
  10  -2  -2    3.94    0.23
  10  -2  -2    4.63    0.20
  10   2   2    3.95    0.33
 -10   2  -2    4.89    0.35
  10   2   2    4.19    0.36
  10  -2   3    0.20    0.18
  10   2  -3    0.24    0.14
  10   2  -3    0.11    0.18
 -10  -2  -3    0.22    0.14
  10   2  -3    0.39    0.17
  10  -2   3    0.40    0.17
 -10  -2  -3   -0.31    0.24
  10   2   3    0.18    0.17
  10  -2  -3    0.20    0.08
 -10   2  -3    0.33    0.16
 -10   2  -3   -0.23    0.26
  10  -2  -3    0.19    0.06
  10  -2  -3    0.29    0.11
  10  -2   4    2.96    0.40
  10   2  -4    3.02    0.30
  10  -2   4    3.31    0.40
  10   2   4    3.19    0.43
  10   2   4    1.83    0.34
  11   2   0    6.52    0.31
 -11  -2   0    6.19    0.32
  11   2   0    6.32    0.32
  11   2   0    6.02    0.35
  11   2   0    5.71    0.34
  11  -2   0    6.09    0.30
 -11   2   0    5.93    0.27
  11  -2   0    6.48    0.33
  11  -2   0    6.38    0.31
  11  -2   0    5.85    0.32
 -11   2   0    6.42    0.24
 -11  -2   0    6.11    0.27
  11   2   0    6.20    0.33
  11  -2   0    6.13    0.29
  11   2  -1    2.25    0.22
  11  -2   1    2.28    0.23
  11   2  -1    2.50    0.25
 -11  -2  -1    2.57    0.21
  11   2  -1    2.50    0.25
  11  -2   1    2.50    0.26
  11   2  -1    2.36    0.22
  11   2  -1    2.56    0.22
 -11  -2  -1    2.70    0.28
  11  -2   1    2.15    0.24
  11  -2  -1    2.28    0.19
  11   2   1    2.34    0.24
 -11  -2   1    2.50    0.15
  11   2   1    3.05    0.32
  11  -2  -1    2.50    0.19
 -11  -2   1    2.46    0.18
 -11   2  -1    2.69    0.20
 -11   2  -1    2.60    0.23
  11   2   1    2.25    0.25
  11  -2  -1    2.24    0.19
  11  -2  -1    2.64    0.22
  11  -2  -1    2.64    0.19
  11  -2  -1    2.56    0.22
  11   2   1    2.50    0.25
  11   2  -2    5.25    0.30
  11   2  -2    5.50    0.34
  11   2  -2    5.22    0.37
  11   2  -2    5.21    0.29
  11  -2   2    5.30    0.37
  11   2   2    4.94    0.42
 -11   2  -2    5.33    0.32
  11  -2  -2    5.88    0.29
  11   2   2    5.02    0.38
  11  -2  -2    5.85    0.25
  11  -2  -2    5.35    0.25
  11  -2  -2    5.45    0.30
  11   2   2    5.58    0.38
  11   2  -3    0.71    0.23
  11   2  -3    0.75    0.18
  11   2  -3    1.09    0.21
 -11  -2  -3    1.01    0.19
  11  -2   3    0.78    0.23
  11   2  -3    0.70    0.15
  11  -2   3    1.05    0.24
  11   2   3    0.74    0.22
  11  -2  -3    0.70    0.11
  11  -2  -3    0.82    0.14
  11  -2  -3    0.79    0.09
 -11   2  -3    0.89    0.18
  11   2   3    1.23    0.26
  11  -2   4    4.07    0.52
  11  -2   4    3.33    0.43
  11   2  -4    4.13    0.44
  11   2  -4    3.18    0.27
  11   2   4    2.90    0.41
  12   2   0    1.37    0.20
  12   2   0    1.35    0.19
 -12  -2   0    1.51    0.20
  12   2   0    1.18    0.18
 -12   2   0    1.43    0.15
  12   2   0    1.22    0.22
 -12  -2   0    1.43    0.15
  12  -2   0    1.43    0.17
  12  -2   0    1.31    0.17
  12  -2   0    1.53    0.21
  12  -2   0    1.35    0.20
  12   2   0    1.42    0.19
  12  -2   0    1.34    0.17
  12  -2   1   30.91    0.99
 -12  -2  -1   31.23    0.89
  12   2  -1   30.31    0.95
 -12  -2  -1   30.41    0.94
  12  -2   1   30.71    0.96
  12   2  -1   30.08    0.90
  12  -2   1   29.93    0.95
  12   2  -1   30.83    0.90
  12   2  -1   31.65    0.94
  12  -2  -1   29.72    0.91
 -12   2  -1   30.46    0.91
 -12  -2   1   30.72    0.79
 -12   2  -1   30.63    0.87
  12   2   1   29.03    0.97
  12  -2  -1   29.13    0.89
  12   2   1   31.07    1.00
  12  -2  -1   30.97    0.90
  12   2   1   30.87    0.97
  12  -2  -1   31.10    0.87
  12  -2  -1   30.11    0.86
 -12  -2   1   29.47    0.81
  12   2  -2    1.32    0.21
  12   2  -2    1.49    0.17
  12   2  -2    1.78    0.25
  12  -2   2    1.13    0.28
  12  -2   2    1.35    0.23
  12  -2   2    1.28    0.25
 -12  -2  -2    1.31    0.18
  12   2  -2    1.26    0.18
  12   2  -2    1.56    0.19
  12  -2  -2    1.57    0.15
  12   2   2    1.35    0.23
  12  -2  -2    1.70    0.17
  12  -2  -2    1.43    0.14
 -12   2  -2    1.22    0.18
  12   2   2    1.48    0.31
  12   2   2    1.06    0.21
  12  -2  -2    1.39    0.19
  12  -2  -2    1.13    0.18
  12   2  -3   19.70    0.79
  12   2  -3   21.09    0.68
  12  -2   3   20.70    0.82
  12  -2   3   19.84    0.88
  12   2  -3   20.11    0.71
  12   2  -3   20.07    0.65
  12   2   3   21.88    0.84
  12  -2  -3   21.19    0.64
 -12   2  -3   20.46    0.75
  12   2   3   20.03    0.85
  12  -2  -3   20.85    0.61
  12  -2   4    1.44    0.46
  12  -2   4    1.11    0.39
  12   2  -4    1.52    0.22
  12   2   4    1.01    0.40
  13   2   0    8.32    0.42
  13  -2   0    8.10    0.39
 -13   2   0    8.17    0.30
  13   2   0    7.89    0.41
 -13  -2   0    7.94    0.33
 -13  -2   0    7.61    0.43
  13  -2   0    8.58    0.45
  13   2   0    7.71    0.41
  13   2   0    8.20    0.47
  13   2   0    8.55    0.46
  13  -2   0    8.13    0.44
 -13   2   0    8.27    0.36
  13  -2   1   10.16    0.46
 -13  -2  -1    9.88    0.42
  13  -2   1    9.42    0.55
  13   2  -1   10.47    0.45
  13  -2   1    9.12    0.45
  13   2  -1    9.82    0.44
  13   2  -1    9.38    0.48
  13   2  -1   10.08    0.43
  13  -2   1    9.81    0.54
  13  -2  -1   10.41    0.46
  13   2   1   10.29    0.57
  13  -2  -1    9.06    0.45
 -13  -2   1    9.51    0.34
  13  -2  -1    9.91    0.41
  13   2   1    9.74    0.47
 -13  -2   1    9.96    0.32
  13   2   1    9.99    0.55
 -13   2  -1    9.49    0.48
  13  -2  -1    9.20    0.43
 -13   2  -1    9.20    0.39
  13  -2  -1    9.73    0.40
  13   2  -2    7.27    0.56
  13  -2   2    7.32    0.61
  13   2  -2    6.84    0.36
  13  -2   2    6.40    0.43
  13  -2   2    6.45    0.46
  13   2  -2    7.08    0.36
  13   2  -2    6.58    0.37
  13   2  -2    6.58    0.45
 -13  -2  -2    6.84    0.40
 -13   2  -2    7.46    0.39
  13  -2  -2    5.88    0.38
  13  -2  -2    6.69    0.33
  13   2   2    7.49    0.63
  13  -2  -2    6.29    0.31
  13  -2  -2    6.95    0.40
  13  -2  -2    6.83    0.31
  13   2   2    6.70    0.47
  13   2  -3    6.82    0.37
  13   2  -3    6.81    0.38
  13  -2   3    7.31    0.53
 -13  -2  -3    6.29    0.46
  13  -2   3    6.66    0.57
  13   2  -3    7.41    0.46
  13   2   3    6.57    0.60
  13  -2  -3    6.57    0.37
  13   2   3    7.12    0.55
 -13   2  -3    7.01    0.45
  13  -2  -3    6.43    0.28
  13  -2  -3    6.89    0.34
  14   2   0    1.16    0.28
  14   2   0    1.18    0.29
  14  -2   0    0.02    0.22
 -14   2   0    0.80    0.12
  14   2   0    0.49    0.18
 -14   2   0    0.87    0.17
  14   2   0    0.85    0.19
 -14  -2   0    0.96    0.15
  14  -2   0    0.59    0.18
  14  -2   0    1.05    0.24
 -14  -2   0    0.73    0.22
  14  -2   0    0.56    0.17
  14   2  -1   -0.17    0.15
  14   2  -1    0.26    0.14
  14  -2   1    0.14    0.15
 -14  -2  -1   -0.27    0.14
  14   2  -1   -0.27    0.24
  14   2  -1   -0.10    0.20
  14  -2   1    0.31    0.17
  14  -2   1   -0.09    0.27
  14  -2  -1   -0.01    0.15
 -14   2  -1    0.06    0.24
  14  -2  -1    0.10    0.18
  14  -2  -1   -0.03    0.21
  14  -2  -1    0.04    0.12
 -14  -2   1   -0.08    0.09
  14   2   1   -0.07    0.28
  14   2   1   -0.30    0.29
  14   2   1    0.13    0.19
  14   2   1    0.11    0.17
 -14   2  -1    0.00    0.12
  14   2  -2    0.23    0.19
  14  -2   2    0.94    0.23
  14   2  -2    0.76    0.18
 -14  -2  -2    0.30    0.18
  14   2  -2    0.57    0.18
  14  -2   2    1.10    0.29
  14  -2  -2    0.58    0.14
  14  -2  -2    0.58    0.17
  14   2   2    0.87    0.27
 -14   2  -2    0.73    0.20
  14   2   2    0.54    0.24
  14  -2  -2    0.59    0.25
  14  -2   3    0.13    0.30
 -14  -2  -3   -0.06    0.21
  14   2  -3    0.00    0.19
  14  -2   3    0.39    0.35
  14   2  -3    0.13    0.25
  14   2  -3    0.08    0.18
  14  -2  -3    0.15    0.19
 -14   2  -3   -0.18    0.21
  14   2   3    0.05    0.30
  14   2   3    0.09    0.33
  14  -2  -3   -0.06    0.12
  15  -2   0    0.68    0.19
  15   2   0    0.94    0.22
 -15  -2   0    0.99    0.18
  15  -2   0    0.68    0.20
 -15   2   0    0.68    0.13
  15   2   0    0.82    0.22
  15   2  -1    0.62    0.19
  15  -2   1    0.83    0.22
  15   2  -1    0.48    0.21
 -15  -2  -1    0.75    0.19
  15  -2   1    0.76    0.24
  15   2  -1    0.78    0.19
  15  -2  -1    0.81    0.19
 -15   2  -1    0.77    0.18
  15   2   1    0.47    0.21
  15  -2  -1    0.60    0.18
  15   2   1    0.64    0.24
  15   2  -2    0.59    0.22
  15  -2   2    0.65    0.24
 -15  -2  -2    1.26    0.25
  15   2  -2    0.49    0.20
  15   2  -2    0.62    0.22
  15  -2   2    0.37    0.25
  15  -2  -2    0.97    0.22
  15  -2  -2    0.64    0.18
  15   2   2    0.89    0.27
  15   2   2    0.24    0.30
  15  -2  -2    0.43    0.16
 -15   2  -2    0.54    0.19
  15  -2   3    0.13    0.39
  15   2  -3    0.37    0.23
  15  -2   3    0.34    0.37
 -15  -2  -3   -0.02    0.28
  15   2  -3   -0.07    0.21
  15   2   3    0.08    0.34
  15   2   3    1.24    0.46
 -15   2  -3    0.33    0.25
  15  -2  -3    0.31    0.15
 -16  -2   0    6.10    0.37
  16   2   0    6.31    0.46
  16  -2   0    5.91    0.42
  16  -2   0    6.31    0.45
  16   2   0    5.39    0.49
  16  -2   1    5.24    0.50
  16   2  -1    5.28    0.42
  16   2  -1    4.93    0.46
  16   2  -1    5.42    0.45
  16  -2   1    6.24    0.48
 -16  -2  -1    5.27    0.42
  16   2   1    4.75    0.49
 -16   2  -1    5.13    0.36
  16  -2  -1    4.71    0.38
  16   2   1    4.73    0.51
  16   2  -2    5.33    0.49
  16  -2   2    6.29    0.61
  16   2  -2    5.41    0.47
  16  -2   2    4.73    0.46
 -16  -2  -2    4.60    0.47
  16   2  -2    4.83    0.42
  16  -2  -2    4.61    0.37
  16   2   2    4.37    0.48
 -16   2  -2    5.05    0.45
  16  -2  -2    5.36    0.37
  16   2   2    5.06    0.48
  17  -2   0   15.19    0.67
  17   2   0   14.11    0.70
  17   2   0   14.52    0.69
  17  -2   0   13.84    0.67
  17   2  -1    5.75    0.48
  17  -2   1    5.26    0.52
  17  -2   1    5.77    0.56
  17   2  -1    5.95    0.54
 -17  -2  -1    5.28    0.49
  17   2   1    6.20    0.58
  17  -2  -1    5.51    0.46
  17   2   1    6.12    0.53
  17  -2  -1    4.98    0.42
 -17   2  -1    5.53    0.43
   0  -3   0   -0.04    0.02
   0  -3   0   -0.07    0.02
   0  -3   0   -0.04    0.03
   0   3   0   -0.08    0.02
   0   3   0   -0.04    0.02
   0   3   0   -0.04    0.02
   0  -3  -1    0.00    0.03
   0  -3  -1   -0.03    0.03
   0   3  -1    0.02    0.04
   0   3   1   -0.01    0.02
   0  -3   1   -0.02    0.03
   0   3  -1   -0.02    0.04
   0  -3   1   -0.03    0.03
   0   3  -1   -0.04    0.03
   0   3   1    0.05    0.03
   0   3   1    0.01    0.02
   0  -3  -1   -0.06    0.02
   0   3   1   -0.04    0.03
   0   3  -2    0.01    0.05
   0   3  -2   -0.04    0.06
   0  -3   2    0.07    0.06
   0  -3  -2   -0.01    0.04
   0   3   2   -0.01    0.04
   0  -3   2   -0.01    0.04
   0   3   2   -0.01    0.04
   0  -3  -2    0.04    0.04
   0   3   2    0.01    0.04
   0   3   2    0.10    0.04
   0  -3   2   -0.05    0.06
   0  -3  -2    0.01    0.04
   0   3  -2    0.01    0.05
   0  -3  -3    0.03    0.07
   0   3  -3   -0.15    0.09
   0   3  -3   -0.06    0.09
   0   3   3   -0.07    0.07
   0  -3   3    0.05    0.06
   0   3  -3    0.02    0.07
   0  -3   3    0.02    0.09
   0  -3  -3    0.03    0.06
   0  -3  -3    0.03    0.06
   0  -3   3   -0.12    0.09
   0   3   3   -0.04    0.06
   0  -3   4    0.05    0.09
   0   3  -4    0.14    0.17
   0   3  -4    0.01    0.10
   0  -3  -4   -0.08    0.11
   0   3   4   -0.23    0.11
   0   3   4   -0.01    0.11
   0   3   4    0.29    0.11
   0  -3  -4    0.11    0.11
   0  -3   4    0.07    0.16
   0   3  -4   -0.13    0.14
   0  -3  -4   -0.18    0.11
   0   3  -5    0.13    0.19
   0  -3   5    0.41    0.29
   0  -3  -5   -0.11    0.19
   1  -3   0   22.81    0.56
   1  -3   0   22.49    0.57
  -1   3   0   22.77    0.58
   1   3   0   22.42    0.58
  -1  -3   0   22.91    0.58
  -1  -3   0   22.29    0.57
   1   3   0   21.10    0.57
   1  -3   0   21.85    0.58
  -1   3   0   21.77    0.56
   1   3   0   21.87    0.58
  -1   3   0   22.70    0.57
   1   3  -1   39.84    1.03
   1   3  -1   39.20    1.01
   1  -3   1   39.27    1.01
   1   3  -1   38.74    0.99
  -1  -3  -1   38.62    1.01
   1  -3   1   39.73    1.03
   1  -3   1   40.25    0.99
  -1   3   1   40.86    0.97
  -1  -3  -1   39.72    0.97
  -1   3   1   41.04    0.97
  -1   3   1   39.85    0.96
  -1  -3   1   38.65    1.02
   1   3   1   40.24    1.01
  -1  -3   1   39.54    0.98
   1  -3  -1   39.95    0.98
  -1   3  -1   41.46    0.99
   1   3   1   39.06    0.99
  -1   3  -1   38.77    1.03
  -1   3  -1   38.15    1.01
  -1  -3   1   38.14    1.01
   1   3   1   40.04    0.99
   1  -3   2   14.31    0.42
  -1   3   2   14.69    0.39
  -1  -3  -2   14.52    0.41
   1  -3   2   13.77    0.46
   1   3  -2   13.84    0.45
   1   3  -2   14.57    0.43
   1   3  -2   14.77    0.46
  -1   3   2   14.23    0.39
  -1  -3  -2   14.09    0.42
   1  -3   2   14.71    0.46
  -1  -3  -2   14.47    0.43
   1  -3  -2   14.06    0.40
   1   3   2   14.17    0.42
   1  -3  -2   14.62    0.38
   1   3   2   14.25    0.45
  -1   3  -2   15.27    0.46
  -1   3  -2   13.98    0.46
  -1  -3   2   14.63    0.41
   1   3   2   13.96    0.42
  -1   3  -2   14.75    0.43
  -1  -3   2   13.93    0.45
  -1  -3   2   14.77    0.45
   1   3   2   14.47    0.42
  -1   3   3   18.55    0.53
  -1  -3  -3   18.92    0.55
  -1   3   3   19.02    0.52
  -1   3   3   18.73    0.52
  -1  -3  -3   18.85    0.56
   1   3  -3   18.56    0.60
   1  -3   3   18.55    0.54
   1  -3   3   18.13    0.60
   1   3  -3   18.92    0.59
   1   3  -3   18.50    0.56
   1  -3   3   18.54    0.61
  -1   3   3   18.37    0.53
  -1  -3  -3   17.98    0.57
   1  -3  -3   18.99    0.55
   1  -3  -3   18.84    0.53
   1  -3  -3   19.03    0.52
  -1   3  -3   19.39    0.61
  -1  -3   3   19.02    0.60
  -1   3  -3   18.70    0.61
  -1   3  -3   19.20    0.58
  -1  -3   3   18.87    0.61
   1   3   3   18.54    0.56
  -1  -3   3   18.49    0.52
   1   3  -4    7.21    0.40
   1   3  -4    7.66    0.35
  -1   3   4    7.72    0.30
   1  -3   4    8.02    0.42
  -1  -3  -4    7.34    0.36
  -1   3   4    7.29    0.31
  -1  -3  -4    7.37    0.34
   1   3  -4    7.35    0.39
   1  -3   4    7.20    0.31
   1  -3   4    7.39    0.40
  -1  -3  -4    7.12    0.35
  -1   3   4    7.38    0.31
  -1  -3   4    7.80    0.40
   1  -3  -4    6.81    0.32
  -1   3  -4    7.25    0.41
   1  -3  -4    7.09    0.34
   1  -3  -4    7.46    0.32
  -1  -3   4    6.96    0.37
  -1   3  -4    7.39    0.36
  -1  -3   4    7.41    0.26
   1   3   4    7.48    0.35
  -1   3  -4    6.98    0.42
   1   3   4    7.64    0.37
   1  -3   5    8.71    0.60
   1   3  -5    8.28    0.47
  -1  -3  -5    8.44    0.48
   1  -3  -5    8.55    0.47
  -2   3   0   80.19    1.90
  -2  -3   0   77.72    1.92
  -2   3   0   83.23    1.93
  -2  -3   0   77.53    1.97
   2  -3   0   81.49    1.90
   2   3   0   80.56    1.97
  -2   3   0   78.46    1.95
   2   3   0   77.95    1.94
  -2   3   1   19.51    0.46
  -2   3   1   19.09    0.46
   2   3  -1   18.20    0.51
   2   3  -1   19.21    0.53
   2   3  -1   19.70    0.54
   2  -3   1   18.59    0.53
  -2  -3  -1   19.22    0.50
  -2  -3  -1   19.27    0.51
  -2  -3  -1   18.98    0.53
   2  -3  -1   19.26    0.47
  -2   3  -1   19.58    0.54
   2  -3  -1   19.61    0.48
  -2  -3   1   19.04    0.51
   2   3   1   19.18    0.53
   2   3   1   19.80    0.52
  -2   3  -1   19.44    0.53
  -2  -3   1   18.72    0.53
   2   3   1   19.22    0.53
  -2  -3   1   17.60    0.53
   2  -3   2   44.49    1.22
   2   3  -2   47.54    1.18
   2   3  -2   47.97    1.22
   2  -3   2   46.10    1.19
  -2  -3  -2   46.12    1.22
  -2   3   2   47.61    1.13
   2   3  -2   45.69    1.23
  -2  -3  -2   47.12    1.20
  -2  -3  -2   45.96    1.17
  -2   3   2   46.83    1.14
   2   3   2   45.41    1.20
  -2   3  -2   49.60    1.20
  -2  -3   2   46.99    1.16
   2   3   2   46.11    1.21
   2   3   2   48.36    1.20
   2   3   2   44.14    1.21
   2  -3  -2   47.81    1.12
  -2   3  -2   44.68    1.22
  -2   3  -2   48.37    1.25
  -2   3   3    8.53    0.27
   2  -3   3    8.16    0.36
   2  -3   3    8.35    0.32
   2   3  -3    8.43    0.35
  -2   3   3    8.71    0.25
   2   3  -3    8.54    0.32
  -2   3   3    8.68    0.26
  -2   3   3    8.87    0.26
  -2  -3  -3    8.30    0.32
  -2  -3  -3    8.33    0.33
   2   3  -3    7.76    0.34
  -2  -3  -3    8.44    0.34
  -2   3  -3    8.58    0.37
   2  -3  -3    8.75    0.29
  -2  -3   3    8.39    0.27
  -2  -3   3    8.76    0.35
   2   3   3    8.82    0.34
   2  -3  -3    8.83    0.28
  -2   3  -3    8.66    0.34
   2  -3  -3    8.16    0.27
  -2   3  -3    8.80    0.37
  -2  -3   3    7.87    0.33
   2  -3   4   19.24    0.70
   2   3  -4   19.49    0.68
   2  -3   4   20.57    0.71
  -2  -3  -4   20.05    0.64
   2  -3   4   20.56    0.61
  -2   3   4   19.52    0.58
   2   3  -4   19.71    0.64
  -2  -3  -4   19.11    0.66
  -2   3   4   19.76    0.57
   2   3  -4   19.24    0.68
  -2  -3  -4   19.36    0.66
  -2   3   4   20.81    0.55
  -2   3  -4   20.02    0.71
  -2   3  -4   19.24    0.71
   2  -3  -4   20.25    0.61
  -2   3  -4   20.10    0.66
  -2  -3   4   19.75    0.51
  -2  -3   4   18.97    0.65
  -2  -3   4   20.41    0.67
   2   3   4   20.19    0.67
   2  -3  -4   19.89    0.60
   2   3   4   18.86    0.65
  -2  -3  -5    5.00    0.40
   2  -3   5    5.24    0.54
   2   3  -5    4.57    0.39
  -2   3  -5    4.37    0.40
   2  -3  -5    4.85    0.37
  -3   3   0  135.19    3.18
   3   3   0  130.44    3.25
  -3   3   0  136.56    3.23
  -3  -3   0  133.46    3.25
  -3   3   0  133.81    3.17
   3  -3   0  132.89    3.18
   3   3   0  138.38    3.21
   3  -3   0  134.86    3.14
   3   3   0  122.68    3.16
   3  -3   0  137.67    3.23
  -3  -3   0  127.48    3.20
  -3  -3   0  126.00    3.17
   3  -3   1  383.67    8.56
   3  -3   1  349.73    8.73
   3   3  -1  317.39    8.57
  -3  -3  -1  338.20    8.47
   3  -3   1  368.90    8.67
   3   3  -1  328.40    8.45
  -3  -3  -1  345.78    8.62
  -3  -3  -1  355.95    8.35
   3   3  -1  357.76    8.54
  -3  -3   1  332.25    8.45
  -3   3  -1  365.39    8.52
   3   3   1  352.77    8.54
  -3  -3   1  351.55    8.78
   3   3   1  352.17    8.62
  -3   3  -1  374.54    8.61
  -3   3  -1  369.76    8.72
   3   3   1  364.93    8.65
   3   3   1  341.66    8.71
  -3  -3   1  362.48    8.43
   3  -3  -1  373.43    8.56
  -3  -3  -2   86.77    2.16
   3   3  -2   87.32    2.12
   3  -3   2   89.01    2.18
  -3  -3  -2   84.42    2.12
   3   3  -2   85.15    2.19
   3   3  -2   84.92    2.16
  -3  -3  -2   89.72    2.19
   3  -3   2   85.29    2.21
  -3   3  -2   88.60    2.14
   3   3   2   85.92    2.16
  -3   3  -2   86.87    2.18
   3   3   2   84.38    2.19
  -3  -3   2   86.66    2.08
   3  -3  -2   90.42    2.10
  -3   3  -2   84.53    2.20
   3   3   2   83.81    2.15
  -3  -3  -3  187.67    4.71
  -3  -3  -3  192.59    4.58
  -3   3   3  195.74    4.54
   3   3  -3  190.77    4.64
   3  -3   3  185.09    4.74
   3  -3   3  192.58    4.58
  -3  -3  -3  191.66    4.65
   3   3  -3  186.44    4.71
   3   3  -3  186.99    4.57
   3  -3   3  191.16    4.68
  -3  -3   3  188.11    4.69
   3  -3  -3  190.61    4.51
  -3   3  -3  193.57    4.60
  -3   3  -3  195.41    4.69
  -3   3  -3  185.71    4.74
  -3  -3   3  189.43    4.63
   3   3   3  186.47    4.71
   3   3   3  187.34    4.65
   3  -3  -3  197.27    4.63
  -3  -3   3  188.79    4.49
   3  -3   4   38.71    1.10
  -3  -3  -4   39.62    1.13
   3  -3   4   41.77    1.21
   3  -3   4   41.93    1.24
  -3   3   4   40.98    1.02
   3   3  -4   40.20    1.16
   3   3  -4   40.75    1.18
   3   3  -4   39.88    1.14
  -3   3   4   40.95    1.03
  -3  -3  -4   38.06    1.17
   3  -3  -4   40.80    1.08
   3  -3  -4   41.81    1.07
  -3   3  -4   40.75    1.16
  -3  -3   4   40.66    1.14
  -3  -3   4   40.79    1.14
  -3   3  -4   40.06    1.22
   3   3   4   41.08    1.17
  -3   3  -4   41.03    1.23
  -3  -3  -5   77.72    2.08
   3  -3   5   78.88    2.19
   3   3  -5   77.89    2.08
   3  -3  -5   80.21    2.02
  -3   3  -5   74.85    2.09
  -4  -3   0    2.31    0.13
  -4   3   0    2.24    0.11
  -4  -3   0    2.29    0.14
   4  -3   0    2.28    0.11
  -4   3   0    2.40    0.11
  -4   3   0    2.40    0.10
   4   3   0    2.13    0.13
  -4  -3   0    2.37    0.12
   4  -3   0    2.15    0.11
  -4  -3   0    2.35    0.13
   4   3   0    2.27    0.13
  -4   3   0    2.25    0.10
   4  -3   0    2.35    0.12
  -4  -3  -1    4.82    0.20
   4   3  -1    5.15    0.21
   4   3  -1    5.18    0.21
   4  -3   1    4.72    0.20
   4  -3   1    4.86    0.21
  -4  -3  -1    5.08    0.19
   4  -3   1    4.96    0.19
   4   3  -1    4.99    0.20
   4   3   1    4.71    0.21
  -4  -3   1    4.64    0.19
   4   3   1    4.76    0.20
  -4  -3   1    5.20    0.19
  -4  -3   1    4.97    0.20
  -4   3  -1    4.78    0.21
   4  -3  -1    5.08    0.14
   4   3   1    4.88    0.21
  -4   3  -1    4.71    0.20
   4   3  -2    1.55    0.15
   4   3  -2    1.44    0.13
   4   3  -2    2.01    0.14
   4  -3   2    1.57    0.16
   4  -3   2    1.72    0.16
  -4  -3  -2    1.45    0.14
  -4  -3  -2    1.49    0.13
  -4  -3  -2    1.44    0.15
   4   3   2    1.52    0.14
  -4  -3   2    1.89    0.10
  -4  -3   2    1.59    0.12
  -4   3  -2    1.56    0.16
  -4  -3   2    1.69    0.13
   4   3   2    1.51    0.14
   4   3  -3    2.74    0.20
   4   3  -3    2.95    0.21
  -4  -3  -3    2.67    0.22
   4   3  -3    2.49    0.21
   4  -3   3    2.77    0.26
   4  -3   3    3.19    0.22
   4  -3   3    2.65    0.25
  -4  -3  -3    2.87    0.20
   4  -3  -3    2.77    0.13
  -4   3  -3    2.38    0.24
  -4   3  -3    2.74    0.21
  -4  -3   3    2.67    0.18
   4   3   3    2.72    0.22
   4   3   3    2.94    0.24
  -4   3  -3    2.73    0.25
   4   3  -4    0.65    0.18
  -4  -3  -4    0.88    0.16
   4   3  -4    0.86    0.17
  -4  -3  -4    0.86    0.22
   4  -3   4    1.08    0.18
  -4  -3  -4    1.07    0.20
   4  -3   4    0.96    0.22
   4   3  -4    1.00    0.16
   4  -3   4    1.24    0.24
   4   3   4    0.93    0.19
   4   3   4    0.89    0.19
  -4  -3   4    0.70    0.15
  -4   3  -4    0.81    0.22
   4  -3  -4    1.13    0.12
   4  -3  -4    1.09    0.14
  -4   3  -4    1.12    0.17
  -4   3  -4    0.79    0.25
   4   3  -5    1.33    0.27
   4  -3   5    0.73    0.32
  -4  -3  -5    1.44    0.27
  -4   3  -5    1.32    0.27
   4  -3  -5    1.62    0.19
   4  -3  -5    1.75    0.24
  -5   3   0   12.01    0.34
   5  -3   0   12.17    0.36
  -5  -3   0   11.84    0.38
   5   3   0   12.28    0.39
  -5  -3   0   12.33    0.39
  -5  -3   0   12.06    0.36
   5  -3   0   12.16    0.36
  -5  -3   0   11.96    0.38
  -5   3   0   12.62    0.33
   5   3   0   11.82    0.38
  -5   3   0   12.87    0.36
  -5   3   0   11.99    0.36
   5  -3   0   12.07    0.35
   5   3  -1    0.67    0.09
   5   3  -1    0.78    0.10
   5   3  -1    0.42    0.07
   5  -3   1    0.47    0.08
  -5  -3  -1    0.59    0.08
   5  -3   1    0.62    0.09
  -5  -3   1    0.71    0.08
  -5  -3   1    0.65    0.08
   5  -3  -1    0.62    0.05
   5   3   1    0.69    0.11
   5   3   1    0.78    0.11
   5  -3  -1    0.71    0.06
  -5  -3   1    0.79    0.08
   5  -3  -1    0.60    0.06
   5  -3  -1    0.67    0.05
   5  -3  -1    0.57    0.05
  -5   3  -1    0.69    0.09
   5   3   1    0.79    0.10
  -5   3  -1    0.49    0.08
  -5  -3  -2    8.37    0.34
   5   3  -2    8.98    0.32
   5  -3   2    8.89    0.35
   5  -3   2    8.68    0.36
  -5  -3  -2    8.88    0.32
   5   3  -2    8.18    0.33
   5   3  -2    8.88    0.33
  -5   3  -2    9.03    0.36
  -5  -3   2    9.36    0.25
  -5  -3   2    8.52    0.25
  -5   3  -2    8.29    0.32
   5   3   2    8.35    0.34
  -5  -3   2    8.16    0.30
   5   3   2    8.77    0.35
  -5  -3   2    8.57    0.30
  -5  -3  -3    0.30    0.13
   5   3  -3    0.40    0.12
  -5  -3  -3    0.46    0.11
   5  -3   3    0.68    0.13
   5  -3   3    0.47    0.15
   5  -3   3    0.28    0.12
  -5  -3  -3    0.28    0.13
   5   3  -3    0.42    0.12
   5   3  -3    0.52    0.12
  -5  -3   3    0.43    0.11
   5   3   3    0.46    0.14
  -5   3  -3    0.52    0.12
   5  -3  -3    0.47    0.06
  -5  -3   3    0.51    0.10
   5  -3  -3    0.44    0.05
  -5   3  -3    0.19    0.15
   5  -3   4    4.71    0.38
  -5  -3  -4    3.30    0.37
   5  -3   4    4.27    0.42
   5   3  -4    4.27    0.31
   5   3  -4    5.02    0.34
   5  -3   4    4.44    0.34
   5   3  -4    4.50    0.32
  -5  -3  -4    5.12    0.42
  -5   3  -4    4.20    0.31
  -5   3  -4    4.28    0.45
  -5  -3   4    4.19    0.28
   5   3   4    4.29    0.36
   5  -3  -4    4.33    0.19
  -5  -3   4    4.04    0.28
   5   3   4    4.60    0.36
  -5   3  -4    3.92    0.44
   5  -3  -4    4.36    0.23
   5   3  -5    0.35    0.26
  -5   3  -5    0.50    0.25
  -6   3   0    9.85    0.28
  -6   3   0    9.49    0.31
   6  -3   0    9.78    0.32
  -6  -3   0    9.88    0.31
  -6   3   0    9.47    0.29
   6  -3   0    9.28    0.31
  -6  -3   0   10.36    0.34
  -6  -3   0    9.76    0.33
   6   3   0    9.56    0.33
   6   3   0    9.55    0.34
   6  -3   0    9.58    0.30
  -6   3   0    9.33    0.32
  -6  -3   0    9.38    0.34
   6   3   0    9.99    0.33
   6  -3   1    1.17    0.12
  -6  -3  -1    1.28    0.12
   6   3  -1    2.07    0.15
   6   3  -1    1.38    0.13
   6   3  -1    1.44    0.13
   6  -3   1    1.46    0.14
  -6  -3   1    1.50    0.12
   6  -3  -1    1.62    0.08
   6   3   1    1.37    0.15
   6   3   1    1.53    0.15
  -6  -3   1    1.40    0.12
  -6   3  -1    1.46    0.12
  -6  -3   1    1.34    0.09
  -6   3  -1    1.54    0.14
  -6  -3   1    1.48    0.12
   6  -3  -1    1.40    0.08
   6  -3  -1    1.27    0.09
   6  -3  -1    1.41    0.09
   6  -3  -1    1.37    0.08
   6   3   1    1.35    0.15
  -6  -3  -2    6.57    0.28
   6   3  -2    6.06    0.28
   6  -3   2    6.92    0.32
  -6  -3  -2    6.58    0.31
   6   3  -2    6.86    0.29
   6   3  -2    6.37    0.28
   6  -3   2    6.48    0.32
   6   3   2    6.39    0.31
  -6  -3   2    6.74    0.26
  -6  -3   2    6.82    0.27
  -6  -3   2    6.57    0.20
   6   3   2    6.66    0.31
  -6   3  -2    6.68    0.28
  -6   3  -2    6.74    0.32
  -6  -3  -3    0.67    0.18
   6  -3   3    0.89    0.14
  -6  -3  -3    0.84    0.14
   6  -3   3    0.53    0.15
   6   3  -3    0.59    0.13
   6   3  -3    0.70    0.13
   6  -3   3    0.71    0.17
   6   3  -3    0.77    0.14
   6   3   3    0.67    0.15
  -6  -3   3    0.71    0.11
  -6   3  -3    0.46    0.17
  -6  -3   3    0.56    0.11
  -6   3  -3    0.63    0.17
   6  -3  -3    0.62    0.07
  -6   3  -3    0.67    0.13
   6   3   3    0.54    0.14
   6  -3   4    2.40    0.29
   6   3  -4    2.79    0.30
   6   3  -4    2.78    0.29
  -6  -3  -4    2.27    0.29
  -6  -3  -4    2.47    0.25
   6  -3   4    3.37    0.36
   6   3   4    2.25    0.28
  -6   3  -4    2.05    0.33
   6   3   4    2.28    0.28
  -6  -3   4    2.48    0.26
   6  -3  -4    2.43    0.20
  -6   3  -4    2.57    0.29
  -6   3  -4    2.56    0.35
   6  -3   5    0.23    0.36
   6   3  -5    0.27    0.28
  -6  -3  -5    0.43    0.26
  -6   3  -5    0.24    0.24
  -7  -3   0   53.16    1.37
  -7   3   0   55.10    1.39
  -7  -3   0   54.04    1.42
   7   3   0   53.50    1.44
   7   3   0   57.03    1.43
  -7   3   0   54.88    1.35
   7   3   0   52.90    1.42
  -7  -3   0   55.77    1.44
  -7   3   0   56.06    1.34
   7   3   0   55.03    1.40
   7  -3   0   55.62    1.37
   7   3   0   52.67    1.44
   7  -3   0   54.46    1.41
   7  -3   0   54.54    1.39
  -7   3   0   55.59    1.41
   7  -3   1   59.84    1.54
   7  -3   1   59.87    1.52
   7   3  -1   58.23    1.49
   7   3  -1   58.72    1.53
  -7  -3  -1   57.95    1.48
   7   3  -1   57.82    1.51
   7  -3  -1   58.87    1.45
  -7   3  -1   58.08    1.47
   7  -3  -1   59.12    1.42
  -7   3  -1   56.67    1.47
  -7  -3   1   58.49    1.43
  -7  -3   1   59.06    1.49
   7  -3  -1   59.01    1.44
   7   3   1   57.63    1.53
   7  -3  -1   58.83    1.46
   7   3   1   56.66    1.55
   7  -3  -1   59.06    1.42
  -7  -3   1   56.60    1.46
  -7  -3   1   56.45    1.51
   7  -3  -1   58.62    1.47
   7   3   1   59.50    1.55
   7   3  -2   39.39    1.11
   7  -3   2   40.74    1.14
   7  -3   2   42.72    1.17
   7   3  -2   40.53    1.13
   7   3  -2   40.31    1.09
  -7  -3  -2   40.98    1.10
  -7   3  -2   40.51    1.10
  -7  -3   2   40.03    0.99
   7  -3  -2   39.43    0.99
  -7   3  -2   40.39    1.16
   7  -3  -2   42.10    1.02
   7  -3  -2   39.90    0.98
   7   3   2   40.02    1.15
  -7  -3   2   41.01    1.08
  -7  -3   2   41.47    1.08
   7  -3  -2   41.58    1.01
   7   3   2   41.15    1.15
   7  -3   3   34.83    1.07
   7   3  -3   34.04    1.01
   7  -3   3   34.38    1.05
   7   3  -3   34.27    1.00
   7   3  -3   34.47    0.99
  -7  -3  -3   35.11    1.09
  -7  -3  -3   33.82    0.99
  -7  -3   3   34.35    0.94
  -7  -3   3   34.61    0.94
   7   3   3   33.91    1.05
  -7   3  -3   35.15    1.07
   7   3   3   33.35    1.03
  -7   3  -3   33.92    1.05
   7  -3  -3   33.65    0.86
  -7   3  -3   35.84    1.00
   7  -3   4   21.79    0.83
   7   3  -4   21.05    0.71
  -7  -3  -4   20.54    0.85
   7   3  -4   23.22    0.77
   7  -3   4   22.03    0.86
   7   3  -4   22.73    0.75
  -7  -3  -4   21.46    0.75
   7   3   4   21.47    0.81
  -7   3  -4   19.85    0.88
  -7   3  -4   22.09    0.76
   7   3   4   21.29    0.83
   7  -3  -4   21.11    0.62
  -7  -3   4   22.72    0.66
  -7  -3   4   21.60    0.67
  -7  -3  -5   16.32    0.73
   7  -3   5   16.00    0.91
   7   3  -5   16.75    0.77
   8   3   0  161.21    3.95
   8   3   0  161.15    3.95
   8  -3   0  161.01    3.87
  -8   3   0  165.69    3.83
   8   3   0  151.12    3.90
   8   3   0  163.63    4.01
  -8  -3   0  157.20    3.87
  -8   3   0  161.06    3.85
   8  -3   0  163.46    3.92
  -8  -3   0  160.25    3.91
   8   3   0  164.98    4.02
   8  -3   0  162.53    3.98
   8   3  -1   52.71    1.42
   8   3  -1   53.78    1.39
  -8  -3  -1   52.57    1.38
   8  -3   1   51.76    1.43
   8  -3   1   52.37    1.41
   8   3  -1   54.15    1.41
   8  -3  -1   53.85    1.34
  -8  -3   1   52.41    1.41
   8   3   1   53.09    1.43
  -8  -3   1   55.63    1.33
   8  -3  -1   54.54    1.37
   8  -3  -1   55.24    1.33
  -8  -3   1   54.69    1.39
  -8   3  -1   54.15    1.38
   8  -3  -1   52.61    1.37
   8  -3  -1   54.78    1.32
  -8  -3   1   53.99    1.36
   8   3   1   51.74    1.45
  -8   3  -1   53.64    1.37
   8   3   1   52.28    1.45
   8   3   1   53.68    1.43
   8  -3  -1   53.99    1.35
   8   3  -2  116.53    2.99
  -8  -3  -2  112.92    2.92
   8  -3   2  125.37    3.05
   8  -3   2  118.59    2.99
   8   3  -2  114.28    2.95
   8   3  -2  116.14    2.91
  -8   3  -2  114.64    3.02
  -8   3  -2  119.44    2.92
   8   3   2  113.82    2.99
   8  -3  -2  121.44    2.81
   8   3   2  121.31    3.04
   8   3   2  118.58    3.04
   8  -3  -2  120.07    2.89
   8  -3  -2  120.54    2.88
  -8  -3   2  117.67    2.95
   8  -3   3   31.17    0.99
   8   3  -3   31.05    0.91
  -8  -3  -3   27.41    0.92
   8   3  -3   29.99    0.93
  -8  -3  -3   31.76    1.00
   8   3  -3   30.98    0.90
   8  -3   3   29.98    0.96
  -8   3  -3   31.43    1.01
   8   3   3   31.42    0.97
  -8  -3   3   31.72    0.85
  -8  -3   3   30.58    0.85
  -8   3  -3   27.71    0.99
   8   3   3   30.71    0.98
   8   3  -4   55.95    1.55
   8  -3   4   54.56    1.68
   8   3  -4   56.41    1.57
  -8  -3  -4   53.95    1.56
   8  -3   4   57.33    1.66
   8   3   4   56.34    1.63
   8   3   4   55.89    1.67
  -8   3  -4   55.90    1.79
   8  -3  -4   55.75    1.42
   8  -3   5   15.86    0.96
  -8  -3  -5   15.50    0.74
  -9  -3   0   12.70    0.44
  -9  -3   0   12.80    0.40
   9   3   0   11.67    0.45
   9   3   0   13.10    0.46
   9  -3   0   12.32    0.40
  -9   3   0   11.67    0.38
  -9   3   0   12.16    0.36
   9  -3   0   12.26    0.42
   9   3   0   11.91    0.44
   9  -3   0   12.58    0.42
   9   3   0   11.83    0.43
   9   3   0   11.95    0.45
  -9  -3  -1  221.64    5.43
   9   3  -1  219.73    5.58
   9  -3   1  222.75    5.51
   9  -3   1  233.60    5.60
   9   3  -1  225.86    5.44
  -9  -3  -1  222.26    5.46
   9   3  -1  229.06    5.51
  -9  -3   1  226.28    5.48
   9  -3  -1  231.12    5.38
   9  -3  -1  232.75    5.52
   9  -3  -1  226.14    5.45
   9  -3  -1  233.31    5.44
  -9   3  -1  226.43    5.43
  -9   3  -1  232.59    5.41
  -9  -3   1  222.84    5.36
   9  -3  -1  224.86    5.53
   9   3   1  226.04    5.53
   9  -3  -1  229.61    5.37
   9   3   1  230.28    5.62
   9   3   1  216.74    5.53
  -9  -3   1  219.07    5.40
  -9  -3   1  224.49    5.57
   9   3  -2   10.48    0.40
   9  -3   2   10.58    0.46
   9   3  -2   10.36    0.43
   9   3  -2   10.64    0.44
  -9  -3  -2   10.45    0.41
   9  -3   2   10.85    0.45
   9  -3  -2   10.76    0.35
  -9   3  -2   10.48    0.41
   9   3   2   10.38    0.47
   9  -3  -2   10.47    0.32
   9  -3  -2   10.19    0.32
  -9   3  -2   10.79    0.47
   9   3   2   10.92    0.46
   9  -3  -2   10.63    0.32
  -9  -3   2    9.98    0.37
   9   3   2   10.85    0.48
  -9  -3  -3  133.47    3.47
   9   3  -3  132.80    3.30
   9   3  -3  132.75    3.34
  -9  -3  -3  136.27    3.34
   9  -3   3  130.58    3.47
   9  -3   3  129.35    3.42
  -9  -3   3  132.60    3.30
   9   3   3  136.21    3.47
  -9  -3   3  132.57    3.27
   9   3   3  133.32    3.42
  -9   3  -3  132.40    3.48
  -9   3  -3  132.70    3.33
   9  -3  -3  136.60    3.19
   9   3  -4    7.36    0.48
  -9  -3  -4    8.10    0.48
   9  -3   4    8.25    0.62
   9  -3   4    7.86    0.54
   9   3   4    6.65    0.52
   9   3   4    7.77    0.61
  10   3   0    5.10    0.27
  10   3   0    5.62    0.29
  10   3   0    5.59    0.31
  10  -3   0    5.53    0.27
  10  -3   0    5.43    0.26
  10   3   0    5.10    0.29
 -10   3   0    5.61    0.24
 -10   3   0    5.82    0.22
  10  -3   0    5.34    0.27
 -10  -3   0    5.50    0.30
  10   3   0    6.15    0.32
 -10  -3   0    5.49    0.25
  10   3  -1    2.26    0.21
  10   3  -1    2.41    0.22
 -10  -3  -1    2.69    0.20
  10   3  -1    2.53    0.24
  10  -3   1    2.24    0.22
  10  -3   1    2.43    0.21
  10   3  -1    2.51    0.21
  10   3  -1    2.77    0.22
 -10  -3  -1    2.75    0.26
  10   3   1    2.56    0.28
  10  -3  -1    2.42    0.16
  10  -3  -1    2.18    0.18
  10  -3  -1    2.63    0.19
  10  -3  -1    2.58    0.17
 -10   3  -1    2.21    0.18
  10   3   1    2.42    0.24
 -10   3  -1    3.10    0.24
 -10  -3   1    2.45    0.15
  10  -3  -1    1.95    0.16
  10   3   1    2.40    0.24
  10  -3  -1    2.25    0.17
  10   3   1    2.29    0.25
 -10  -3   1    2.22    0.20
  10   3  -2    4.00    0.26
  10   3  -2    3.83    0.30
  10   3  -2    4.20    0.32
 -10  -3  -2    4.44    0.27
  10  -3   2    3.84    0.32
  10  -3   2    3.63    0.29
  10  -3  -2    3.71    0.19
 -10  -3   2    4.08    0.25
  10  -3  -2    4.09    0.20
  10   3   2    4.17    0.30
  10  -3  -2    4.00    0.22
  10  -3  -2    3.96    0.18
  10  -3  -2    3.70    0.16
  10   3   2    3.87    0.32
 -10   3  -2    3.78    0.26
  10   3   2    3.98    0.36
  10   3  -3    1.21    0.19
  10  -3   3    0.93    0.23
  10   3  -3    1.53    0.24
  10   3  -3    1.17    0.23
  10  -3   3    0.81    0.21
 -10  -3  -3    1.28    0.19
  10   3   3    1.11    0.25
 -10   3  -3    1.15    0.19
  10  -3  -3    1.15    0.13
 -10   3  -3    0.94    0.30
 -10  -3   3    1.53    0.16
  10  -3   4    1.68    0.32
  10  -3   4    1.84    0.38
  10   3  -4    1.49    0.28
  10   3   4    1.23    0.31
  10   3   4    2.55    0.44
 -11   3   0    0.35    0.08
  11  -3   0    0.35    0.13
  11   3   0    0.57    0.15
 -11  -3   0    0.50    0.16
  11   3   0    0.25    0.12
  11  -3   0    0.43    0.12
 -11   3   0    0.56    0.11
  11   3   0    0.36    0.13
  11  -3   0    0.13    0.10
 -11  -3   0    0.51    0.10
  11   3   0    0.46    0.15
  11  -3   0    0.29    0.11
  11  -3   0    0.41    0.11
  11   3   0    0.39    0.12
  11   3  -1    0.02    0.15
  11  -3   1   -0.06    0.10
  11   3  -1    0.07    0.11
 -11  -3  -1    0.01    0.09
  11   3  -1    0.36    0.13
  11   3  -1    0.12    0.12
  11  -3   1    0.03    0.11
 -11  -3  -1   -0.15    0.15
  11   3  -1    0.28    0.12
  11  -3  -1    0.28    0.09
  11  -3  -1    0.14    0.09
  11  -3  -1    0.23    0.10
  11   3   1    0.11    0.15
  11   3   1    0.13    0.11
  11  -3  -1    0.02    0.09
  11   3   1   -0.02    0.15
  11   3   1   -0.05    0.12
 -11   3  -1   -0.02    0.13
 -11   3  -1    0.04    0.08
  11  -3  -1   -0.03    0.10
 -11  -3   1    0.15    0.11
 -11  -3   1    0.13    0.08
  11   3  -2    0.19    0.15
  11  -3   2    0.18    0.16
  11  -3   2    0.31    0.17
 -11  -3  -2    0.15    0.11
  11   3  -2    0.41    0.19
  11   3   2    0.39    0.21
  11  -3  -2    0.27    0.10
 -11   3  -2    0.08    0.11
  11  -3  -2    0.32    0.11
  11  -3  -2    0.21    0.07
  11   3   2    0.12    0.16
  11  -3  -2    0.41    0.13
  11   3   2    0.25    0.17
  11  -3  -2    0.44    0.12
  11  -3  -2    0.27    0.09
  11   3  -3   -0.38    0.22
 -11  -3  -3    0.19    0.15
  11  -3   3    0.06    0.20
  11  -3   3   -0.15    0.19
  11   3  -3    0.02    0.17
  11   3   3    0.12    0.22
 -11   3  -3    0.09    0.15
  11   3   3    0.40    0.24
  11  -3  -3    0.07    0.11
  11  -3   4    0.13    0.31
  11   3   4   -0.25    0.31
  12   3   0    5.94    0.35
  12  -3   0    5.50    0.32
  12  -3   0    6.23    0.32
  12  -3   0    5.72    0.36
 -12  -3   0    6.24    0.29
  12  -3   0    6.16    0.32
  12  -3   0    6.34    0.36
 -12  -3   0    5.80    0.37
  12   3   0    5.62    0.39
 -12   3   0    6.40    0.25
  12   3   0    6.71    0.39
  12   3   0    5.95    0.33
  12   3   0    5.97    0.34
 -12   3   0    6.16    0.28
  12   3  -1    8.28    0.43
  12   3  -1    8.14    0.38
  12  -3   1    8.41    0.42
 -12  -3  -1    8.04    0.46
 -12  -3  -1    8.18    0.37
  12   3  -1    8.17    0.39
  12   3   1    8.57    0.44
  12   3   1    8.60    0.48
  12  -3  -1    8.63    0.36
 -12   3  -1    8.24    0.35
 -12  -3   1    8.73    0.30
  12  -3  -1    8.80    0.35
  12   3   1    8.53    0.48
  12  -3  -1    8.30    0.38
  12  -3  -1    8.44    0.38
 -12   3  -1    8.18    0.41
  12   3  -2    4.80    0.31
  12   3  -2    4.33    0.38
  12   3  -2    4.84    0.44
  12   3  -2    4.88    0.33
  12  -3   2    4.21    0.34
 -12  -3  -2    5.02    0.33
  12   3   2    6.41    0.53
  12  -3  -2    5.09    0.31
  12   3   2    5.00    0.41
  12  -3  -2    4.62    0.23
  12  -3  -2    4.68    0.28
  12   3   2    5.21    0.37
 -12   3  -2    4.61    0.31
  12  -3  -2    4.15    0.27
  12  -3  -2    4.76    0.22
  12  -3  -2    5.18    0.26
  12   3  -3    5.41    0.34
  12  -3   3    5.54    0.51
  12   3  -3    6.07    0.41
  12  -3   3    5.21    0.47
 -12   3  -3    5.39    0.39
  12   3   3    5.16    0.48
  12  -3  -3    5.55    0.30
  12   3   3    6.44    0.54
  12  -3   4    2.51    0.47
  12  -3   4    2.92    0.46
  12   3  -4    2.55    0.25
  12   3   4    2.08    0.43
 -13   3   0   55.14    1.42
 -13  -3   0   54.99    1.52
 -13  -3   0   55.35    1.45
  13   3   0   58.12    1.59
  13   3   0   54.34    1.57
  13  -3   0   55.57    1.57
  13  -3   0   53.61    1.53
  13   3   0   55.84    1.55
 -13   3   0   57.37    1.39
  13  -3   0   56.48    1.55
  13  -3   0   54.68    1.52
  13   3  -1   30.97    0.95
  13   3  -1   28.94    0.99
  13  -3   1   30.48    0.99
  13  -3   1   30.87    0.97
  13   3  -1   30.71    0.95
  13  -3   1   31.19    1.02
  13   3  -1   31.28    1.00
  13  -3   1   30.22    1.04
  13   3  -1   30.50    0.96
  13  -3  -1   31.08    0.91
 -13   3  -1   32.41    0.95
  13   3   1   31.59    1.01
 -13  -3   1   31.79    0.83
  13  -3  -1   32.72    0.91
  13  -3  -1   32.12    0.91
  13  -3  -1   32.17    0.94
  13   3   1   30.02    1.03
  13  -3  -1   31.22    0.95
  13   3   1   30.26    1.04
 -13   3  -1   31.16    0.89
  13   3  -2   45.51    1.37
 -13  -3  -2   47.52    1.30
  13  -3   2   44.15    1.35
  13  -3   2   43.57    1.38
  13   3  -2   45.83    1.28
  13   3  -2   46.62    1.29
  13   3  -2   45.45    1.30
  13  -3   2   45.12    1.47
  13  -3  -2   46.76    1.21
  13  -3  -2   42.09    1.22
 -13   3  -2   45.57    1.28
  13   3   2   45.98    1.39
  13  -3  -2   45.41    1.17
  13  -3  -2   46.12    1.22
  13  -3  -2   45.64    1.27
  13   3   2   43.51    1.47
  13   3  -3   23.41    0.77
  13   3  -3   22.75    0.75
  13  -3   3   22.42    0.94
  13  -3   3   23.03    0.92
 -13  -3  -3   22.60    0.83
 -13   3  -3   21.54    0.81
  13   3   3   22.85    0.96
  13   3   3   22.21    0.94
 -14  -3   0    7.39    0.48
  14   3   0    6.86    0.52
  14  -3   0    7.17    0.48
  14   3   0    7.29    0.41
  14   3   0    7.07    0.43
  14  -3   0    6.84    0.46
 -14   3   0    7.06    0.33
 -14   3   0    7.11    0.28
  14  -3   0    6.65    0.38
  14   3   0    6.66    0.51
  14   3   0    6.63    0.41
 -14  -3   0    7.06    0.34
  14  -3   0    7.63    0.39
  14   3  -1    0.94    0.19
  14  -3   1    1.08    0.22
  14  -3   1    0.79    0.30
  14  -3   1    0.75    0.33
  14   3  -1    1.38    0.28
  14   3  -1    1.25    0.20
  14  -3   1    1.15    0.21
 -14  -3  -1    1.06    0.18
  14   3  -1    1.53    0.29
  14   3  -1    1.02    0.21
  14   3   1    1.06    0.23
 -14   3  -1    1.15    0.17
  14  -3  -1    0.95    0.16
 -14   3  -1    1.04    0.24
  14  -3  -1    1.06    0.21
  14   3   1    1.01    0.23
  14  -3  -1    1.34    0.19
 -14  -3   1    1.15    0.14
  14   3   1    0.81    0.29
 -14  -3  -2    6.50    0.42
  14   3  -2    5.43    0.38
  14  -3   2    6.18    0.48
  14  -3   2    6.09    0.46
  14   3  -2    6.10    0.41
  14   3  -2    5.49    0.39
 -14   3  -2    6.19    0.39
  14   3   2    5.48    0.48
  14  -3  -2    5.57    0.30
  14   3   2    6.64    0.55
  14  -3  -2    5.52    0.30
  14  -3  -2    6.37    0.43
  14   3  -3    1.07    0.30
  14  -3   3    1.06    0.34
  14  -3   3    0.58    0.32
  14   3  -3    0.83    0.21
  14   3  -3    1.15    0.23
 -14  -3  -3    0.75    0.27
 -14   3  -3    1.07    0.26
  14   3   3    0.97    0.37
  14   3   3    0.51    0.34
  15  -3   0   17.82    0.66
  15  -3   0   16.85    0.66
 -15  -3   0   17.12    0.58
  15   3   0   15.92    0.69
  15   3   0   16.85    0.69
 -15   3   0   17.32    0.50
  15   3  -1   27.39    0.92
  15   3  -1   27.01    0.90
 -15  -3  -1   26.29    0.85
  15  -3   1   25.77    0.91
  15  -3   1   26.82    0.95
  15   3   1   26.29    0.97
 -15   3  -1   27.37    0.81
  15   3   1   26.38    0.95
  15  -3  -1   26.79    0.85
  15   3  -2   15.21    0.66
  15   3  -2   14.58    0.62
  15  -3   2   14.24    0.69
  15  -3   2   13.97    0.72
 -15  -3  -2   14.64    0.65
  15   3   2   15.23    0.77
  15  -3  -2   13.97    0.51
  15   3   2   13.88    0.72
  15  -3  -2   13.97    0.53
 -15   3  -2   15.40    0.61
  16  -3   0    0.23    0.22
  16   3   0   -0.04    0.22
  16   3   0    0.01    0.23
  16  -3   0    0.00    0.21
 -16  -3   0    0.10    0.17
  16  -3   1   -0.39    0.21
  16   3  -1   -0.03    0.24
  16  -3   1    0.16    0.24
  16   3  -1   -0.11    0.23
 -16  -3  -1    0.49    0.22
  16   3  -1    0.10    0.22
  16  -3  -1   -0.22    0.20
  16   3   1    0.22    0.26
  16   3   1   -0.08    0.27
  16  -3  -1   -0.34    0.17
  16   3  -2    0.24    0.25
  16   3  -2    0.06    0.22
 -16  -3  -2    0.35    0.27
  16   3  -2    0.29    0.29
  16  -3   2    0.28    0.27
  16  -3   2   -0.08    0.32
  16   3   2    0.43    0.32
  16  -3  -2    0.02    0.18
  16  -3  -2    0.26    0.20
  16   3   2    0.50    0.38
 -16   3  -2    0.17    0.23
  17  -3   0    2.26    0.32
  17  -3   0    2.85    0.34
  17   3   0    2.64    0.35
  17   3   0    2.69    0.37
  17   3  -1    1.87    0.33
  17  -3   1    1.49    0.31
 -17  -3  -1    1.94    0.30
  17  -3   1    1.74    0.33
  17   3  -1    3.19    0.39
  17   3  -1    2.10    0.30
  17  -3  -1    2.09    0.30
  17   3   1    1.50    0.36
  17  -3  -1    2.37    0.30
  17   3   1    1.31    0.33
   0   4   0   60.59    1.55
   0  -4   0   61.67    1.55
   0   4   0   66.26    1.57
   0  -4   0   63.51    1.54
   0  -4   1    6.61    0.25
   0   4   1    6.36    0.22
   0  -4   1    6.69    0.25
   0  -4  -1    6.96    0.21
   0   4   1    6.86    0.21
   0   4  -1    6.85    0.24
   0   4  -1    6.79    0.25
   0  -4   1    7.09    0.23
   0   4  -1    6.72    0.24
   0  -4  -1    6.78    0.22
   0   4   1    6.85    0.21
   0  -4  -1    7.08    0.22
   0  -4   2   37.58    1.02
   0  -4   2   37.30    0.97
   0   4  -2   39.04    1.02
   0   4   2   38.11    0.97
   0  -4  -2   38.56    0.95
   0  -4   2   37.91    1.03
   0   4  -2   38.36    1.04
   0   4  -2   37.72    0.99
   0   4   2   36.79    0.96
   0  -4  -2   36.50    0.98
   0   4  -3    2.78    0.23
   0  -4   3    2.59    0.22
   0   4  -3    2.78    0.19
   0   4   3    3.01    0.17
   0   4   3    2.92    0.16
   0  -4   3    2.75    0.17
   0  -4  -3    2.59    0.17
   0   4  -3    3.07    0.24
   0  -4  -3    2.88    0.16
   0  -4   3    2.87    0.24
   0   4   3    2.78    0.17
   0  -4   4   15.26    0.59
   0  -4   4   15.48    0.60
   0   4   4   14.62    0.50
   0   4   4   15.67    0.50
   0  -4  -4   14.59    0.52
   0   4  -4   15.55    0.60
   0   4  -4   14.79    0.55
   0  -4  -4   15.05    0.50
   0   4  -4   15.85    0.61
   0  -4   4   14.91    0.48
   0   4   4   15.28    0.51
   0   4  -5    2.42    0.31
   0  -4  -5    2.34    0.28
   0  -4   5    2.26    0.34
  -1  -4   0  114.28    2.67
   1  -4   0  112.97    2.65
   1   4   0  112.05    2.69
  -1   4   0  109.87    2.65
  -1  -4   0  108.02    2.69
  -1   4   0  112.48    2.72
   1   4   0  103.64    2.72
   1  -4   0  112.84    2.73
   1  -4   0  111.78    2.69
  -1   4   0  116.36    2.69
   1   4   0  107.25    2.66
  -1   4   1  285.15    6.61
  -1  -4  -1  284.00    6.51
   1   4  -1  257.80    6.48
   1   4  -1  254.94    6.57
  -1  -4  -1  276.12    6.59
   1  -4   1  247.32    6.47
   1  -4   1  273.46    6.51
  -1  -4  -1  269.53    6.66
   1   4  -1  266.37    6.49
  -1   4   1  283.72    6.52
   1  -4  -1  291.52    6.53
  -1   4  -1  270.21    6.48
  -1  -4   1  231.75    6.56
   1   4   1  285.65    6.67
  -1   4  -1  271.61    6.48
   1   4   1  283.32    6.58
   1  -4  -1  290.44    6.44
  -1  -4   1  259.25    6.39
  -1  -4   1  262.83    6.54
  -1   4  -1  251.37    6.57
   1  -4  -1  282.24    6.66
   1   4  -2   71.31    1.83
   1   4  -2   70.17    1.78
  -1   4   2   74.48    1.75
   1  -4   2   68.86    1.83
   1   4  -2   69.39    1.85
  -1   4   2   73.01    1.77
  -1  -4  -2   70.98    1.81
  -1  -4  -2   73.12    1.76
  -1   4  -2   73.30    1.86
  -1  -4   2   69.44    1.85
  -1  -4   2   73.22    1.83
   1   4   2   70.92    1.81
  -1   4  -2   73.60    1.79
  -1  -4   2   73.03    1.77
  -1   4  -2   74.12    1.83
   1   4   2   71.60    1.79
  -1   4   3  138.21    3.33
   1  -4   3  137.15    3.29
  -1   4   3  139.09    3.32
   1   4  -3  138.03    3.43
   1  -4   3  136.01    3.39
  -1  -4  -3  137.44    3.29
  -1  -4  -3  135.65    3.38
  -1   4   3  137.28    3.29
   1   4  -3  134.01    3.32
   1  -4   3  131.85    3.43
   1   4  -3  136.39    3.38
   1  -4  -3  136.16    3.26
  -1   4  -3  140.52    3.40
  -1   4  -3  134.44    3.32
  -1  -4   3  132.25    3.42
   1   4   3  139.28    3.32
  -1  -4   3  137.65    3.38
   1   4   3  128.62    3.33
  -1   4  -3  134.10    3.44
   1   4   3  133.94    3.37
  -1   4   4   33.68    0.89
   1  -4   4   32.38    0.91
   1   4  -4   32.99    0.96
   1  -4   4   32.34    1.02
  -1   4   4   34.24    0.89
   1  -4   4   33.42    1.02
  -1  -4  -4   32.28    0.97
   1   4  -4   33.17    1.01
   1   4  -4   32.87    1.02
   1   4   4   32.34    0.96
  -1   4  -4   33.89    1.05
   1  -4  -4   33.44    0.94
  -1   4  -4   32.15    0.97
  -1   4  -4   33.83    1.03
   1   4   4   32.95    0.95
   1  -4  -4   33.14    0.91
  -1  -4   4   33.53    1.01
   1  -4   5   55.15    1.65
   1   4  -5   53.50    1.55
  -1  -4  -5   56.41    1.54
   1  -4  -5   57.00    1.51
  -1   4  -5   53.67    1.56
  -2   4   0    0.25    0.04
   2   4   0    0.17    0.04
  -2  -4   0    0.22    0.05
   2  -4   0    0.29    0.05
   2  -4   0    0.30    0.05
   2  -4   0    0.19    0.04
  -2   4   0    0.25    0.04
  -2   4   0    0.11    0.04
  -2  -4   0    0.29    0.06
   2   4   0    0.24    0.05
   2   4   0    0.14    0.05
  -2  -4  -1    0.80    0.09
   2  -4   1    0.58    0.08
  -2   4   1    0.83    0.05
   2   4  -1    0.76    0.09
  -2   4   1    0.83    0.04
  -2  -4  -1    0.77    0.08
   2   4  -1    0.69    0.08
   2   4  -1    0.78    0.09
   2  -4   1    0.81    0.09
  -2  -4  -1    0.86    0.09
   2  -4   1    0.83    0.09
  -2  -4   1    0.89    0.08
   2   4   1    0.72    0.08
   2  -4  -1    0.93    0.06
   2   4   1    0.73    0.08
  -2   4  -1    0.80    0.09
   2  -4  -1    0.79    0.06
   2   4   1    0.91    0.08
  -2   4  -1    0.81    0.08
   2   4   1    0.76    0.08
  -2   4  -1    0.70    0.08
   2  -4  -1    0.90    0.04
  -2  -4   1    0.86    0.09
  -2  -4   1    0.85    0.10
  -2  -4  -2    0.16    0.06
  -2   4   2    0.13    0.03
   2  -4   2    0.04    0.05
   2   4  -2    0.20    0.08
   2   4  -2    0.11    0.07
  -2   4   2    0.11    0.03
  -2  -4  -2    0.03    0.06
  -2  -4  -2    0.15    0.06
   2  -4   2    0.01    0.07
   2   4  -2    0.02    0.06
   2  -4   2    0.09    0.08
  -2  -4   2    0.19    0.07
  -2   4  -2    0.19    0.09
  -2  -4   2    0.07    0.07
   2   4   2    0.19    0.07
  -2   4  -2    0.20    0.07
  -2  -4   2    0.01    0.05
  -2   4  -2    0.08    0.07
   2   4   2    0.14    0.06
   2   4  -3    0.42    0.13
  -2  -4  -3    0.32    0.10
  -2   4   3    0.59    0.06
  -2   4   3    0.56    0.07
   2  -4   3    0.57    0.11
  -2  -4  -3    0.49    0.09
   2  -4   3    0.60    0.14
   2   4  -3    0.63    0.13
   2  -4   3    0.27    0.11
  -2   4   3    0.56    0.07
   2   4  -3    0.30    0.10
   2   4   3    0.53    0.10
   2   4   3    0.57    0.11
   2   4   3    0.33    0.11
  -2  -4   3    0.62    0.12
  -2   4  -3    0.41    0.13
  -2  -4   3    0.61    0.13
   2  -4  -3    0.69    0.08
  -2   4  -3    0.46    0.13
  -2  -4   3    0.52    0.08
   2  -4  -3    0.51    0.07
  -2   4  -3    0.52    0.10
   2   4  -4    0.03    0.11
   2  -4   4    0.06    0.13
  -2  -4  -4   -0.15    0.14
  -2   4   4   -0.02    0.09
  -2  -4  -4   -0.11    0.11
   2   4  -4   -0.08    0.18
  -2   4   4   -0.02    0.09
   2  -4   4    0.07    0.17
   2   4  -4   -0.07    0.15
   2   4   4   -0.14    0.14
  -2  -4   4    0.03    0.14
  -2   4  -4   -0.19    0.19
   2  -4  -4    0.17    0.10
  -2  -4   4    0.23    0.16
  -2  -4   4    0.07    0.08
   2   4   4   -0.06    0.13
   2  -4  -4    0.17    0.11
  -2   4  -4    0.14    0.12
  -2   4  -4    0.10    0.18
   2   4  -5   -0.02    0.21
   2  -4   5    0.39    0.31
  -2  -4  -5    0.11    0.21
  -2   4  -5    0.06    0.20
   2  -4  -5    0.19    0.21
   3   4   0    0.51    0.07
   3  -4   0    0.63    0.07
  -3  -4   0    0.73    0.08
   3   4   0    0.67    0.08
   3  -4   0    0.55    0.07
  -3  -4   0    0.57    0.07
   3   4   0    0.46    0.07
   3  -4   0    0.67    0.07
  -3   4   0    0.58    0.07
  -3   4   0    0.60    0.07
  -3  -4  -1    0.40    0.07
   3   4  -1    0.30    0.07
  -3   4   1    0.39    0.03
  -3  -4  -1    0.45    0.07
   3  -4   1    0.26    0.06
   3   4  -1    0.31    0.06
   3  -4   1    0.38    0.07
  -3  -4  -1    0.36    0.07
   3   4  -1    0.39    0.07
  -3  -4  -1    0.51    0.06
   3  -4   1    0.43    0.08
   3  -4  -1    0.38    0.04
  -3  -4   1    0.23    0.06
   3   4   1    0.34    0.06
   3   4   1    0.49    0.08
  -3  -4   1    0.54    0.08
   3  -4  -1    0.47    0.05
   3   4   1    0.43    0.06
  -3   4  -1    0.31    0.06
   3   4   1    0.29    0.06
   3   4   1    0.37    0.06
  -3   4  -1    0.38    0.07
  -3   4  -1    0.28    0.06
  -3  -4   1    0.41    0.06
   3   4  -2    0.48    0.09
   3  -4   2    0.51    0.10
   3   4  -2    0.41    0.09
  -3  -4  -2    0.52    0.08
  -3  -4  -2    0.48    0.08
   3  -4   2    0.52    0.11
   3   4  -2    0.57    0.09
  -3   4  -2    0.36    0.09
   3   4   2    0.50    0.09
   3   4   2    0.52    0.09
  -3   4  -2    0.46    0.08
  -3   4  -2    0.45    0.09
  -3  -4   2    0.63    0.10
  -3  -4   2    0.64    0.07
  -3  -4   2    0.37    0.08
   3  -4   3    0.11    0.09
   3  -4   3    0.34    0.13
   3  -4   3    0.06    0.12
   3   4  -3    0.21    0.12
   3   4  -3    0.35    0.12
  -3  -4  -3    0.06    0.09
  -3  -4  -3    0.28    0.10
   3   4  -3    0.19    0.09
  -3  -4   3    0.19    0.11
  -3   4  -3    0.24    0.11
   3  -4  -3    0.20    0.06
  -3   4  -3    0.16    0.13
   3   4   3    0.14    0.11
  -3  -4   3    0.22    0.07
   3  -4  -3    0.26    0.06
  -3   4  -3    0.30    0.12
   3   4   3    0.25    0.10
  -3  -4  -4    0.28    0.13
   3  -4   4    0.12    0.19
   3  -4   4    0.23    0.15
   3   4  -4    0.20    0.13
  -3   4   4    0.32    0.08
  -3  -4  -4    0.29    0.16
   3   4  -4    0.27    0.17
   3   4  -4    0.41    0.19
  -3   4   4    0.62    0.08
   3  -4   4    0.44    0.20
  -3  -4   4    0.19    0.17
   3  -4  -4    0.39    0.11
   3   4   4    0.42    0.16
  -3  -4   4    0.36    0.06
  -3   4  -4    0.01    0.21
   3   4   4    0.39    0.15
  -3  -4   4    0.13    0.14
  -3   4  -4    0.24    0.20
   3  -4  -4    0.42    0.11
   3  -4   5    0.39    0.31
   3   4  -5    0.07    0.22
  -3  -4  -5   -0.01    0.22
   3  -4  -5    0.12    0.20
  -3   4  -5    0.04    0.20
  -4  -4   0    0.16    0.06
   4  -4   0    0.21    0.05
   4  -4   0    0.33    0.05
   4  -4   0    0.25    0.05
   4   4   0    0.27    0.07
  -4  -4   0    0.18    0.06
  -4   4   0    0.20    0.04
  -4   4   0    0.19    0.04
   4   4   0    0.24    0.06
   4   4   0    0.17    0.05
   4  -4   1    2.65    0.16
   4  -4   1    2.63    0.16
   4   4  -1    2.69    0.16
  -4   4   1    2.74    0.09
   4   4  -1    2.53    0.15
  -4  -4  -1    2.65    0.14
   4  -4   1    2.69    0.14
  -4  -4  -1    2.46    0.15
   4   4  -1    2.42    0.15
  -4  -4  -1    2.70    0.17
   4   4   1    2.60    0.15
   4  -4  -1    2.58    0.10
   4  -4  -1    2.77    0.10
   4  -4  -1    2.60    0.08
   4   4   1    2.64    0.17
  -4  -4   1    2.88    0.15
  -4  -4   1    2.40    0.15
   4   4   1    3.08    0.16
   4   4   1    2.67    0.16
  -4  -4   1    2.51    0.15
   4   4   1    2.84    0.17
  -4   4  -1    2.63    0.15
  -4   4  -1    2.65    0.15
   4  -4   2    0.14    0.09
  -4  -4  -2    0.17    0.06
   4   4  -2    0.13    0.07
   4  -4   2    0.20    0.10
   4   4  -2    0.14    0.07
   4   4  -2    0.15    0.09
   4   4   2    0.03    0.07
  -4   4  -2    0.10    0.09
  -4   4  -2    0.17    0.07
   4   4   2    0.15    0.08
  -4  -4   2    0.11    0.07
  -4  -4   2    0.20    0.05
  -4  -4  -3    1.40    0.17
  -4  -4  -3    1.54    0.16
   4  -4   3    1.07    0.17
   4   4  -3    1.68    0.18
   4  -4   3    1.71    0.20
  -4  -4  -3    1.57    0.16
   4  -4   3    1.86    0.20
   4   4  -3    1.37    0.17
   4   4  -3    1.65    0.17
   4  -4  -3    1.60    0.09
  -4   4  -3    1.51    0.21
   4   4   3    1.26    0.15
  -4   4  -3    1.23    0.15
  -4  -4   3    1.43    0.17
  -4  -4   3    1.26    0.11
  -4  -4   3    1.66    0.17
   4   4   3    1.49    0.17
  -4   4  -3    1.42    0.20
  -4  -4  -4   -0.01    0.16
   4  -4   4   -0.03    0.20
  -4  -4  -4    0.05    0.12
   4   4  -4    0.26    0.20
   4  -4   4   -0.01    0.15
   4  -4   4    0.05    0.19
   4   4  -4    0.03    0.14
  -4  -4   4    0.00    0.16
   4  -4  -4    0.09    0.09
   4   4   4   -0.11    0.16
  -4  -4   4   -0.04    0.13
  -4   4  -4    0.18    0.13
  -4   4  -4   -0.67    0.22
   4   4   4    0.03    0.16
  -4   4  -4    0.06    0.20
   4  -4   5    0.93    0.35
  -4  -4  -5    0.62    0.24
   4   4  -5    0.53    0.26
  -4   4  -5    0.90    0.26
   5  -4   0  435.13   10.22
   5   4   0  419.66   10.03
   5  -4   0  440.56   10.11
  -5   4   0  434.54   10.01
   5   4   0  356.49    9.74
  -5  -4   0  402.84    9.90
  -5   4   0  425.01    9.86
  -5  -4   0  406.62   10.09
  -5  -4   0  379.31    9.74
  -5   4   0  417.07    9.83
   5  -4   0  438.55    9.92
   5   4   0  384.02    9.99
  -5   4   0  424.83   10.07
   5  -4   1  178.52    4.38
   5  -4   1  166.30    4.30
  -5   4   1  182.31    4.22
   5   4  -1  176.67    4.31
  -5  -4  -1  174.91    4.26
  -5  -4  -1  171.30    4.38
   5   4  -1  173.77    4.37
   5   4  -1  169.49    4.26
  -5  -4  -1  173.92    4.24
   5  -4  -1  181.54    4.18
   5   4   1  172.72    4.26
   5   4   1  175.88    4.38
  -5  -4   1  177.50    4.30
   5   4   1  176.74    4.32
   5   4   1  184.18    4.38
   5  -4  -1  183.29    4.23
  -5   4  -1  184.55    4.24
  -5   4  -1  178.46    4.31
   5  -4  -1  185.41    4.29
   5  -4  -1  183.33    4.18
  -5  -4   1  175.10    4.36
  -5  -4   1  174.51    4.24
   5  -4   2  281.12    7.16
   5   4  -2  294.96    7.15
   5   4  -2  297.38    7.06
   5  -4   2  301.90    7.07
  -5  -4  -2  295.67    6.95
   5   4  -2  294.42    6.96
  -5  -4   2  298.20    6.90
  -5  -4   2  286.87    7.02
   5   4   2  294.84    7.06
   5   4   2  284.88    7.15
  -5   4  -2  289.49    6.96
  -5   4  -2  284.93    7.18
   5  -4   3   95.43    2.50
   5  -4   3   93.44    2.42
  -5  -4  -3   96.69    2.51
   5   4  -3   99.15    2.43
   5  -4   3  100.74    2.55
   5   4  -3   93.19    2.50
  -5  -4  -3  100.83    2.43
   5   4  -3   95.82    2.46
  -5   4  -3   95.70    2.51
  -5  -4   3   96.98    2.30
   5  -4  -3   97.63    2.30
  -5  -4   3   97.75    2.44
  -5  -4   3   97.26    2.46
  -5   4  -3   95.88    2.54
   5   4   3   97.20    2.48
  -5   4  -3   95.10    2.44
   5  -4   4  143.56    3.62
   5  -4   4  137.08    3.56
   5   4  -4  141.56    3.45
  -5  -4  -4  135.69    3.56
   5   4  -4  134.63    3.54
   5   4  -4  140.34    3.48
   5   4   4  135.69    3.56
  -5   4  -4  136.28    3.61
  -5  -4   4  134.59    3.47
   5  -4  -4  144.76    3.33
  -5   4  -4  129.88    3.55
   5   4   4  139.60    3.52
  -5   4  -4  141.36    3.48
  -5  -4   4  142.11    3.46
   5   4  -5   45.20    1.37
   5  -4   5   44.32    1.47
  -5  -4  -5   45.44    1.36
  -5   4  -5   45.06    1.37
  -6  -4   0   18.61    0.57
   6  -4   0   19.09    0.54
  -6  -4   0   19.25    0.54
  -6   4   0   19.18    0.50
  -6   4   0   18.81    0.51
   6   4   0   18.98    0.58
   6   4   0   19.46    0.57
  -6   4   0   19.11    0.54
  -6  -4   0   18.05    0.56
   6  -4   0   18.90    0.52
   6  -4   0   19.51    0.55
   6   4  -1   28.38    0.77
   6   4  -1   27.32    0.78
   6  -4   1   27.51    0.79
   6   4  -1   26.10    0.78
   6  -4   1   28.12    0.79
  -6  -4  -1   25.28    0.75
   6   4   1   28.08    0.80
   6  -4  -1   27.68    0.72
  -6   4  -1   28.90    0.79
  -6  -4   1   26.66    0.77
   6  -4  -1   27.53    0.69
  -6  -4   1   28.00    0.78
  -6  -4   1   27.77    0.72
   6   4   1   28.02    0.80
   6   4   1   26.63    0.77
  -6   4  -1   27.78    0.75
   6  -4  -1   27.61    0.69
   6  -4  -1   28.07    0.70
   6   4   1   28.28    0.81
  -6  -4   1   27.96    0.76
  -6  -4  -2   13.27    0.44
   6   4  -2   12.71    0.46
   6   4  -2   13.11    0.47
   6   4  -2   13.20    0.45
   6  -4   2   13.10    0.48
   6  -4   2   13.39    0.49
  -6  -4   2   12.84    0.43
   6   4   2   12.87    0.48
  -6  -4   2   13.41    0.37
  -6  -4   2   12.79    0.43
  -6   4  -2   13.30    0.49
  -6  -4   2   12.68    0.38
   6   4   2   13.69    0.48
   6  -4   3   14.49    0.59
   6   4  -3   14.82    0.55
   6  -4   3   14.79    0.56
   6   4  -3   14.61    0.52
  -6  -4  -3   14.79    0.52
   6   4  -3   14.85    0.54
  -6  -4  -3   14.36    0.56
   6   4   3   14.83    0.56
  -6   4  -3   14.91    0.59
  -6  -4   3   14.68    0.49
   6   4   3   14.38    0.56
  -6   4  -3   14.36    0.59
  -6   4  -3   14.26    0.52
  -6  -4   3   14.89    0.50
   6  -4   4    7.02    0.47
   6   4  -4    6.02    0.42
   6   4  -4    6.04    0.41
   6   4  -4    6.34    0.40
   6  -4   4    6.89    0.52
  -6  -4  -4    5.69    0.46
  -6  -4  -4    6.05    0.37
   6  -4  -4    6.73    0.26
   6   4   4    6.32    0.43
  -6  -4   4    6.40    0.36
   6   4   4    5.76    0.47
  -6   4  -4    6.15    0.39
  -6   4  -4    6.58    0.55
   6   4  -5    6.60    0.55
  -6  -4  -5    6.25    0.52
   6  -4   5    5.95    0.56
  -6   4  -5    6.45    0.50
   7   4   0   18.96    0.58
  -7  -4   0   19.29    0.59
  -7  -4   0   19.55    0.59
  -7  -4   0   18.35    0.54
  -7  -4   0   18.85    0.58
   7  -4   0   19.50    0.54
  -7   4   0   19.55    0.51
   7   4   0   18.62    0.57
   7   4   0   19.20    0.59
  -7   4   0   18.84    0.52
   7  -4   0   18.96    0.55
   7  -4   0   18.86    0.56
   7   4  -1   34.45    0.97
   7   4  -1   36.53    0.99
   7  -4   1   36.26    1.01
   7   4  -1   36.10    1.01
  -7  -4  -1   35.91    0.96
   7  -4   1   34.51    0.99
   7   4   1   36.38    1.02
   7  -4  -1   37.24    0.93
  -7  -4   1   36.50    0.96
  -7   4  -1   35.59    0.95
  -7  -4   1   36.80    0.93
   7  -4  -1   36.27    0.90
   7  -4  -1   36.29    0.92
   7   4   1   34.92    1.02
  -7  -4   1   37.37    0.98
   7   4   1   36.39    1.01
   7  -4  -1   36.11    0.92
  -7  -4   1   36.64    0.99
   7   4   1   34.32    0.98
   7  -4   2   16.04    0.54
   7   4  -2   14.57    0.50
   7   4  -2   14.16    0.52
   7  -4   2   14.76    0.54
  -7  -4  -2   14.72    0.49
   7   4  -2   14.59    0.52
  -7  -4   2   14.83    0.41
  -7  -4   2   14.91    0.48
   7   4   2   16.21    0.55
   7   4   2   14.39    0.53
  -7   4  -2   14.51    0.54
  -7  -4   2   15.45    0.49
  -7   4  -2   14.80    0.49
  -7  -4   2   14.10    0.41
   7  -4   3   22.05    0.76
   7   4  -3   22.31    0.70
  -7  -4  -3   21.20    0.70
   7   4  -3   21.62    0.73
   7   4  -3   23.06    0.73
   7  -4   3   22.58    0.79
   7   4   3   22.03    0.76
   7   4   3   22.05    0.76
  -7  -4   3   22.70    0.67
  -7   4  -3   20.99    0.80
  -7   4  -3   21.15    0.70
  -7   4  -3   20.95    0.78
   7   4  -4    9.03    0.47
  -7  -4  -4    8.53    0.45
   7  -4   4    9.20    0.59
  -7   4  -4    8.75    0.47
   7   4   4    8.63    0.50
  -7   4  -4    8.64    0.64
   7  -4  -4    8.68    0.32
  -7  -4   4    9.11    0.41
   7   4   4    9.46    0.56
   7   4  -5    9.91    0.67
   7  -4   5    9.65    0.81
  -7  -4  -5    9.85    0.62
   8   4   0    0.14    0.08
   8   4   0    0.22    0.09
  -8   4   0    0.15    0.08
   8  -4   0    0.01    0.06
  -8  -4   0    0.30    0.10
  -8  -4   0    0.16    0.09
   8  -4   0    0.21    0.07
   8   4   0    0.11    0.08
  -8  -4   0    0.18    0.09
  -8  -4   0    0.19    0.07
  -8   4   0    0.23    0.07
   8   4   0    0.21    0.09
   8  -4   0    0.18    0.06
  -8   4   0    0.20    0.05
   8   4   0    0.10    0.09
   8  -4   1    2.09    0.19
   8   4  -1    1.95    0.18
   8  -4   1    1.72    0.17
  -8  -4  -1    1.73    0.16
   8   4  -1    2.01    0.19
   8   4  -1    1.82    0.18
   8  -4  -1    1.97    0.13
  -8  -4   1    1.86    0.13
   8  -4  -1    1.88    0.12
   8   4   1    2.06    0.19
  -8  -4   1    1.86    0.16
   8   4   1    1.71    0.20
  -8  -4   1    1.64    0.18
  -8   4  -1    1.93    0.16
   8  -4  -1    1.92    0.13
  -8  -4   1    1.80    0.18
   8   4   1    1.78    0.18
   8  -4  -1    1.91    0.13
  -8   4  -1    2.12    0.16
   8   4   1    2.03    0.21
   8   4  -2    0.12    0.11
   8  -4   2    0.17    0.12
   8  -4   2    0.08    0.10
   8   4  -2    0.07    0.12
  -8  -4  -2    0.19    0.09
   8   4  -2    0.13    0.10
   8  -4  -2    0.20    0.05
   8  -4  -2    0.19    0.05
  -8  -4   2    0.06    0.06
  -8  -4   2    0.16    0.06
   8   4   2    0.13    0.13
   8  -4  -2    0.18    0.04
  -8  -4   2    0.04    0.09
   8  -4  -2    0.12    0.04
   8   4   2    0.14    0.11
  -8  -4   2    0.11    0.09
   8   4   2    0.17    0.13
  -8   4  -2    0.16    0.12
  -8   4  -2    0.17    0.10
   8  -4   3    1.03    0.22
   8  -4   3    1.16    0.22
   8   4  -3    0.89    0.19
   8   4  -3    1.08    0.21
  -8  -4   3    1.21    0.15
  -8   4  -3    0.84    0.15
   8   4   3    0.90    0.22
  -8   4  -3    0.94    0.24
   8   4   3    0.75    0.19
   8  -4   4   -0.03    0.22
  -8  -4  -4   -0.02    0.19
   8   4  -4   -0.14    0.20
   8  -4   4   -0.02    0.26
   8   4   4    0.17    0.22
   8  -4  -4    0.19    0.13
   8   4   4    0.28    0.27
   9   4   0    1.75    0.19
  -9  -4   0    1.17    0.12
   9   4   0    1.18    0.15
  -9   4   0    1.15    0.13
   9  -4   0    1.29    0.14
  -9   4   0    1.21    0.10
   9   4   0    1.11    0.14
  -9   4   0    1.26    0.14
  -9  -4   0    1.20    0.15
   9  -4   0    1.13    0.13
   9  -4   0    1.35    0.13
   9   4   0    1.20    0.15
   9   4   0    0.86    0.13
   9   4  -1   25.31    0.77
   9  -4   1   24.23    0.76
   9   4  -1   25.17    0.75
   9   4  -1   24.87    0.81
  -9  -4  -1   24.82    0.73
   9  -4   1   25.16    0.77
   9   4   1   25.13    0.80
   9  -4  -1   25.24    0.69
   9  -4  -1   25.79    0.68
   9   4   1   25.55    0.79
  -9   4  -1   24.83    0.71
   9   4   1   25.88    0.80
   9   4   1   25.82    0.76
  -9  -4   1   25.16    0.75
   9  -4  -1   24.68    0.70
   9  -4  -1   25.47    0.69
  -9  -4   1   24.81    0.68
  -9  -4   1   24.50    0.74
  -9   4  -1   25.90    0.73
   9   4   1   23.74    0.77
   9   4  -2    1.00    0.19
   9  -4   2    1.32    0.19
   9  -4   2    1.03    0.17
  -9  -4  -2    0.92    0.15
   9   4  -2    1.18    0.17
   9   4  -2    1.20    0.16
   9   4   2    0.78    0.16
   9   4   2    1.09    0.18
   9  -4  -2    1.21    0.10
   9   4   2    1.05    0.19
  -9  -4   2    1.07    0.14
   9  -4  -2    1.13    0.11
  -9  -4   2    1.37    0.16
  -9  -4   2    1.15    0.11
  -9   4  -2    1.06    0.14
  -9   4  -2    1.25    0.20
   9  -4  -2    1.00    0.11
  -9  -4   2    1.06    0.10
   9   4  -3   15.06    0.61
   9   4  -3   15.53    0.58
   9  -4   3   15.41    0.66
  -9  -4  -3   15.02    0.56
   9   4  -3   15.00    0.60
   9   4   3   14.40    0.62
  -9  -4   3   14.86    0.51
  -9   4  -3   15.21    0.57
  -9   4  -3   14.90    0.69
   9   4   3   15.65    0.66
   9  -4   4    0.97    0.30
  -9  -4  -4    1.41    0.26
   9  -4   4    0.65    0.30
   9   4  -4    0.59    0.25
  -9   4  -4    1.33    0.25
   9   4   4    1.26    0.31
   9   4   4    1.21    0.32
  10   4   0   66.44    1.80
  10  -4   0   67.87    1.78
  10  -4   0   68.48    1.76
  10   4   0   66.49    1.77
 -10   4   0   67.83    1.69
  10   4   0   69.28    1.83
 -10  -4   0   68.59    1.78
 -10   4   0   67.97    1.76
  10  -4   0   69.69    1.73
 -10   4   0   70.07    1.67
  10   4   0   69.30    1.83
 -10  -4   0   66.88    1.72
  10   4   0   66.02    1.80
  10   4  -1   15.82    0.55
  10  -4   1   16.59    0.58
  10   4  -1   15.95    0.58
  10  -4   1   15.40    0.55
 -10  -4  -1   16.65    0.54
 -10  -4  -1   17.15    0.59
  10   4  -1   16.52    0.58
  10   4   1   16.08    0.58
  10   4   1   16.06    0.60
 -10  -4   1   15.48    0.55
 -10  -4   1   17.19    0.55
  10  -4  -1   16.41    0.49
  10  -4  -1   15.98    0.50
  10   4   1   16.10    0.59
 -10   4  -1   16.40    0.51
 -10  -4   1   16.74    0.54
  10  -4  -1   16.48    0.51
  10  -4  -1   16.10    0.49
  10   4   1   16.65    0.61
 -10   4  -1   16.36    0.54
 -10  -4   1   16.44    0.48
  10   4  -2   51.60    1.43
  10  -4   2   50.54    1.46
  10   4  -2   50.69    1.38
 -10  -4  -2   51.36    1.39
  10  -4   2   51.40    1.44
  10   4  -2   50.66    1.44
 -10  -4   2   51.56    1.37
  10  -4  -2   52.61    1.28
  10  -4  -2   51.16    1.29
  10   4   2   50.05    1.47
  10  -4  -2   52.99    1.28
 -10   4  -2   47.65    1.38
  10  -4  -2   52.09    1.32
 -10  -4   2   49.82    1.24
  10   4   2   49.72    1.48
 -10   4  -2   51.72    1.38
 -10  -4   2   51.41    1.38
 -10  -4   2   51.43    1.24
  10   4   2   50.12    1.46
 -10  -4  -3   11.02    0.47
  10  -4   3    9.79    0.53
  10   4  -3    9.17    0.54
  10  -4   3    9.77    0.55
  10   4  -3    9.14    0.51
  10   4  -3    9.51    0.47
 -10  -4   3    9.69    0.40
  10   4   3   10.04    0.56
  10  -4  -3   10.32    0.32
 -10   4  -3    9.99    0.46
  10  -4   4   23.99    0.96
 -10  -4  -4   25.59    0.91
  10  -4   4   24.66    1.03
  10   4   4   25.96    0.99
 -11  -4   0  103.90    2.64
  11   4   0  100.44    2.64
 -11  -4   0  104.14    2.58
  11  -4   0  104.50    2.60
  11  -4   0  106.39    2.64
 -11   4   0  105.60    2.54
  11  -4   0  105.85    2.67
  11   4   0  104.91    2.68
  11   4   0  104.53    2.69
  11   4   0  102.89    2.71
 -11   4   0  107.33    2.52
  11   4   0  102.79    2.72
  11   4  -1  138.89    3.66
  11  -4   1  143.66    3.62
  11   4  -1  146.13    3.61
 -11  -4  -1  146.62    3.55
  11  -4   1  143.52    3.67
 -11  -4  -1  143.16    3.59
  11   4  -1  139.16    3.67
  11   4  -1  148.38    3.63
  11   4  -1  141.83    3.57
 -11   4  -1  146.85    3.54
 -11  -4   1  138.22    3.52
  11  -4  -1  144.58    3.59
  11   4   1  143.36    3.65
  11   4   1  146.57    3.71
  11  -4  -1  149.46    3.50
  11   4   1  146.65    3.66
  11  -4  -1  150.47    3.54
 -11   4  -1  146.41    3.51
 -11  -4   1  144.53    3.48
  11   4   1  141.99    3.70
  11  -4  -1  140.97    3.55
 -11  -4  -2   84.98    2.19
  11  -4   2   83.50    2.25
  11   4  -2   83.75    2.25
  11   4  -2   83.60    2.18
  11  -4   2   85.46    2.29
  11   4  -2   81.49    2.26
  11  -4  -2   84.21    2.07
  11  -4  -2   85.89    2.14
  11  -4  -2   83.43    2.05
  11   4   2   86.12    2.31
  11   4   2   81.93    2.31
 -11   4  -2   84.55    2.17
 -11  -4   2   85.35    2.17
  11  -4  -2   88.41    2.08
  11  -4  -2   83.88    2.11
  11  -4  -2   84.22    2.07
  11   4  -3   90.88    2.51
  11  -4   3   97.42    2.57
  11   4  -3   92.78    2.40
  11  -4   3   91.71    2.50
 -11  -4   3   85.47    2.37
 -11   4  -3   90.98    2.41
  11   4   3   93.09    2.52
  11   4   3   92.79    2.55
  11  -4  -3   97.67    2.25
  11   4  -4   49.71    1.47
  11  -4   4   48.38    1.62
  11  -4   4   47.97    1.57
  11   4   4   48.52    1.56
 -12  -4   0    7.14    0.32
  12  -4   0    6.93    0.34
 -12   4   0    6.65    0.28
  12   4   0    6.40    0.38
  12  -4   0    6.51    0.37
  12  -4   0    6.80    0.38
  12   4   0    7.02    0.42
  12   4   0    6.82    0.42
  12  -4   0    7.37    0.35
 -12  -4   0    7.17    0.41
  12   4   0    7.25    0.36
 -12   4   0    6.94    0.26
  12   4  -1    0.21    0.14
  12   4  -1    0.44    0.18
  12   4  -1    0.40    0.14
  12  -4   1    0.16    0.13
  12   4  -1    0.47    0.19
 -12  -4  -1    0.39    0.13
  12   4   1    0.19    0.13
  12  -4  -1    0.39    0.13
 -12  -4   1    0.14    0.15
 -12   4  -1    0.31    0.11
  12   4   1    0.28    0.19
  12   4   1    0.15    0.16
 -12  -4   1    0.49    0.10
 -12   4  -1    0.49    0.16
  12  -4  -1    0.27    0.12
  12  -4  -1    0.37    0.14
  12  -4  -1    0.23    0.11
  12   4   1    0.23    0.21
  12   4  -2    4.89    0.41
  12   4  -2    4.87    0.47
  12  -4   2    5.09    0.39
  12  -4   2    5.16    0.37
  12   4  -2    5.05    0.33
 -12  -4  -2    5.01    0.34
  12   4  -2    5.45    0.38
 -12   4  -2    5.20    0.33
  12  -4  -2    4.81    0.22
  12  -4  -2    4.93    0.30
  12  -4  -2    4.95    0.30
  12   4   2    4.41    0.51
  12  -4  -2    4.99    0.26
  12   4   2    4.83    0.42
  12  -4  -2    4.89    0.24
  12  -4  -2    4.56    0.28
  12   4   2    4.90    0.43
  12  -4   3    0.27    0.26
 -12  -4  -3    0.17    0.19
  12   4  -3    0.26    0.21
  12  -4   3   -0.01    0.22
  12   4   3    0.29    0.29
 -12   4  -3    0.28    0.19
  12  -4  -3    0.06    0.13
  12   4   3    0.67    0.25
  12  -4   4    2.22    0.48
  12  -4   4    1.55    0.43
  12   4  -4    2.85    0.39
  12   4   4    3.40    0.47
  13   4   0    5.58    0.37
  13  -4   0    5.05    0.32
  13   4   0    5.10    0.34
 -13  -4   0    5.92    0.30
 -13   4   0    5.82    0.23
  13   4   0    5.72    0.44
 -13   4   0    4.83    0.26
  13   4   0    5.83    0.38
  13  -4   0    5.30    0.33
  13  -4   0    4.89    0.37
 -13  -4   0    5.72    0.43
  13   4   0    4.90    0.44
 -13  -4  -1    6.84    0.36
  13   4  -1    6.27    0.46
  13   4  -1    6.32    0.39
  13   4  -1    6.08    0.38
  13  -4   1    6.42    0.39
  13  -4   1    6.34    0.37
  13   4  -1    6.85    0.40
  13   4  -1    7.68    0.49
  13  -4  -1    6.97    0.32
 -13  -4   1    6.92    0.37
 -13   4  -1    6.68    0.41
  13  -4  -1    6.50    0.33
 -13   4  -1    6.87    0.32
 -13  -4   1    6.86    0.29
  13  -4  -1    6.24    0.38
  13   4   1    6.61    0.42
  13  -4  -1    6.04    0.36
  13   4   1    5.90    0.51
  13   4  -2    4.27    0.35
  13  -4   2    4.86    0.42
  13   4  -2    3.81    0.35
 -13  -4  -2    4.66    0.35
  13  -4   2    4.90    0.40
  13   4   2    6.43    0.67
  13  -4  -2    4.67    0.34
  13  -4  -2    4.72    0.34
 -13   4  -2    4.44    0.34
  13  -4  -2    4.75    0.26
  13  -4  -2    3.86    0.23
  13   4   2    4.41    0.44
  13   4  -3    4.53    0.45
 -13  -4  -3    5.10    0.43
  13   4  -3    5.00    0.40
  13   4  -3    5.38    0.41
  13  -4   3    4.67    0.53
  13  -4   3    4.40    0.43
  13   4   3    5.27    0.54
  13   4   3    3.32    0.41
 -13   4  -3    4.94    0.44
  14   4   0    0.86    0.20
  14  -4   0    0.54    0.17
 -14  -4   0    0.85    0.28
  14   4   0    1.37    0.31
 -14  -4   0    0.82    0.17
  14   4   0    0.85    0.21
  14   4   0    1.07    0.31
  14  -4   0    0.73    0.17
 -14   4   0    0.90    0.12
  14  -4   0    0.57    0.22
  14  -4   0    0.81    0.25
  14   4   0    0.62    0.21
  14  -4   1    0.15    0.17
  14   4  -1    0.26    0.16
  14   4  -1   -0.08    0.17
 -14  -4  -1    0.39    0.16
  14  -4   1    0.23    0.28
  14  -4   1   -0.15    0.16
  14   4  -1    0.33    0.20
  14   4  -1    0.50    0.31
  14   4   1   -0.10    0.19
 -14   4  -1   -0.29    0.22
  14   4   1    0.13    0.19
 -14   4  -1    0.22    0.13
  14  -4  -1    0.43    0.15
 -14  -4   1    0.14    0.12
  14   4   1    0.42    0.33
  14  -4  -1    0.26    0.14
  14   4  -2    0.82    0.21
  14  -4   2    0.65    0.24
  14   4  -2    0.85    0.23
  14   4  -2    0.48    0.21
  14  -4   2    0.63    0.24
 -14  -4  -2    0.65    0.22
  14   4   2    1.03    0.29
  14  -4  -2    0.78    0.15
  14   4   2    0.44    0.28
  14  -4  -2    0.43    0.14
  14  -4  -2    0.75    0.22
 -14   4  -2    0.89    0.19
  14   4  -3   -0.03    0.22
  14   4  -3    0.18    0.28
  14  -4   3    0.34    0.31
  14  -4   3    0.26    0.31
  14   4  -3    0.65    0.23
  14   4   3   -0.32    0.35
 -14   4  -3    0.06    0.23
  14   4   3   -0.12    0.34
  15  -4   0   41.57    1.24
  15   4   0   39.74    1.25
 -15  -4   0   41.15    1.14
  15   4   0   40.96    1.28
  15   4   0   39.96    1.26
  15  -4   0   41.32    1.21
  15  -4   1   19.30    0.76
 -15  -4  -1   19.60    0.69
  15   4  -1   19.19    0.75
  15  -4   1   19.02    0.74
  15   4  -1   19.70    0.75
  15   4  -1   18.61    0.73
  15   4   1   19.08    0.79
  15  -4  -1   19.54    0.67
  15   4   1   18.61    0.80
 -15  -4   1   19.60    0.58
 -15   4  -1   18.76    0.63
  15  -4  -1   18.11    0.67
 -15  -4  -2   32.71    1.07
  15  -4   2   33.07    1.14
  15  -4   2   34.32    1.19
  15   4  -2   34.13    1.08
  15   4  -2   33.31    1.09
  15   4  -2   33.58    1.06
  15   4   2   33.14    1.18
  15   4   2   33.16    1.22
  15  -4  -2   32.70    0.96
 -15   4  -2   33.16    1.02
  16  -4   0   16.87    0.68
  16  -4   0   17.24    0.70
 -16  -4   0   16.56    0.61
  16   4   0   16.54    0.73
  16   4   0   16.26    0.74
  16  -4   1    1.65    0.29
  16  -4   1    1.34    0.29
 -16  -4  -1    1.13    0.25
  16   4  -1    1.48    0.27
  16   4  -1    1.10    0.27
  16   4  -1    0.67    0.26
  16   4   1    1.53    0.31
 -16   4  -1    1.36    0.22
  16  -4  -1    1.63    0.24
  16   4   1    1.01    0.32
  16  -4  -1    0.78    0.23
  16  -4   2   13.13    0.78
  16   4  -2   14.74    0.69
  16   4  -2   14.82    0.72
  16  -4   2   13.63    0.73
 -16  -4  -2   12.86    0.69
  16  -4  -2   13.60    0.54
  16   4   2   14.85    0.84
  16  -4  -2   12.24    0.53
  16   4   2   11.88    0.78
 -16   4  -2   13.70    0.62
  17   4   0   18.26    0.84
  17  -4   0   17.43    0.76
  17   4   0   18.45    0.81
  17  -4   0   19.20    0.78
  17  -4   1   32.47    1.15
  17  -4   1   32.13    1.18
 -17  -4  -1   33.71    1.07
  17   4  -1   33.67    1.15
  17   4  -1   34.08    1.15
  17  -4  -1   32.95    1.11
  17  -4  -1   32.51    1.05
  17   4   1   32.93    1.24
   0  -5   0   -0.15    0.04
   0  -5   0   -0.17    0.04
   0   5   0   -0.17    0.03
   0   5   0   -0.15    0.03
   0   5   0   -0.19    0.04
   0  -5   0   -0.13    0.04
   0  -5  -1   -0.13    0.04
   0   5  -1   -0.03    0.05
   0   5   1   -0.12    0.03
   0  -5   1   -0.09    0.04
   0  -5   1   -0.14    0.05
   0   5   1   -0.16    0.03
   0  -5  -1   -0.11    0.03
   0   5  -1   -0.10    0.05
   0  -5  -1   -0.13    0.03
   0   5  -1   -0.13    0.04
   0  -5   1   -0.14    0.04
   0   5  -2   -0.01    0.07
   0   5   2   -0.04    0.04
   0   5  -2   -0.05    0.06
   0  -5   2   -0.03    0.08
   0  -5   2   -0.08    0.05
   0   5  -2   -0.08    0.06
   0   5   2   -0.10    0.04
   0  -5  -2   -0.02    0.05
   0  -5   3    0.01    0.12
   0   5  -3    0.09    0.09
   0   5   3   -0.02    0.07
   0  -5  -3    0.05    0.07
   0  -5   3    0.06    0.10
   0   5   3    0.06    0.07
   0   5   3    0.08    0.06
   0  -5   3   -0.01    0.08
   0   5  -3    0.13    0.12
   0   5  -3   -0.01    0.11
   0   5  -4    0.14    0.13
   0  -5   4    0.18    0.17
   0   5   4   -0.03    0.12
   0   5   4    0.15    0.12
   0   5   4    0.06    0.12
   0  -5  -4    0.13    0.11
   0  -5   4    0.25    0.17
   0   5  -4   -0.07    0.19
   0  -5   4    0.16    0.12
   0   5  -4    0.05    0.18
   0  -5  -5   -0.06    0.22
   0  -5   5   -0.20    0.28
   0   5  -5   -0.36    0.20
   1   5   0   33.51    0.91
  -1   5   0   35.56    0.91
  -1  -5   0   35.99    0.92
  -1   5   0   35.07    0.88
   1   5   0   33.76    0.90
  -1  -5   0   34.77    0.91
   1  -5   0   33.47    0.91
   1   5   0   35.89    0.90
   1  -5   0   35.83    0.89
  -1  -5   0   34.17    0.90
  -1   5   0   34.61    0.89
   1  -5   0   35.01    0.90
   1  -5   1   84.03    2.11
   1   5  -1   86.03    2.11
   1   5  -1   83.19    2.14
  -1   5   1   86.66    2.05
   1   5  -1   82.08    2.07
  -1  -5  -1   84.62    2.11
  -1   5   1   84.00    2.08
  -1  -5  -1   82.59    2.08
  -1  -5  -1   83.72    2.05
   1  -5   1   86.47    2.07
   1  -5   1   83.64    2.14
   1   5   1   84.06    2.07
   1   5   1   86.21    2.11
  -1   5  -1   82.78    2.07
   1  -5  -1   85.47    2.09
   1  -5  -1   87.09    2.03
  -1   5  -1   84.87    2.11
  -1  -5   1   85.63    2.07
   1   5   1   81.46    2.04
  -1  -5   1   85.72    2.11
  -1   5  -1   87.57    2.14
   1  -5  -1   86.02    2.06
  -1   5   2   23.16    0.59
   1   5  -2   22.67    0.64
   1  -5   2   22.45    0.68
   1  -5   2   22.33    0.67
   1  -5   2   22.31    0.63
   1   5  -2   22.17    0.67
  -1   5   2   23.26    0.59
  -1  -5  -2   22.68    0.60
   1   5  -2   22.79    0.68
  -1  -5  -2   22.78    0.61
   1   5   2   21.78    0.62
  -1  -5   2   21.54    0.66
  -1   5  -2   21.67    0.66
   1   5   2   21.93    0.62
  -1   5  -2   21.43    0.67
  -1   5  -2   22.53    0.64
  -1  -5   2   22.51    0.67
   1  -5   3   41.27    1.20
   1   5  -3   40.73    1.19
   1  -5   3   42.13    1.19
  -1   5   3   41.94    1.07
   1   5  -3   41.57    1.14
   1  -5   3   42.27    1.12
  -1  -5  -3   41.80    1.10
  -1   5   3   43.34    1.07
  -1   5   3   41.38    1.07
  -1  -5   3   40.29    1.18
  -1  -5   3   43.53    1.18
  -1   5  -3   43.62    1.19
  -1  -5   3   42.31    1.10
   1   5   3   42.16    1.12
   1  -5  -3   43.08    1.07
   1   5   3   41.84    1.13
  -1   5  -3   42.59    1.21
   1   5   3   41.88    1.11
  -1   5  -3   42.86    1.15
   1   5  -4    9.23    0.49
   1  -5   4   10.97    0.43
  -1   5   4   10.49    0.35
   1  -5   4   10.67    0.53
  -1   5   4   11.24    0.38
  -1  -5  -4   11.06    0.41
   1   5  -4   10.38    0.45
   1   5  -4   10.25    0.51
  -1   5  -4   10.50    0.52
  -1   5  -4   10.90    0.53
  -1  -5   4   12.03    0.51
  -1  -5   4    9.69    0.47
   1   5   4   10.67    0.41
  -1  -5   4   10.36    0.38
  -1   5  -4   10.82    0.46
   1  -5  -4   11.26    0.39
  -1  -5  -5   16.92    0.67
   1   5  -5   16.24    0.71
   1  -5   5   18.58    0.83
  -1   5  -5   18.09    0.71
   1  -5  -5   17.62    0.65
   2  -5   0   22.95    0.62
  -2   5   0   22.64    0.61
   2  -5   0   22.46    0.62
   2   5   0   23.05    0.63
   2   5   0   23.02    0.62
   2  -5   0   22.54    0.60
  -2  -5   0   22.57    0.63
  -2  -5   0   21.34    0.62
   2   5   0   22.23    0.62
  -2   5   0   23.53    0.62
  -2  -5   0   23.44    0.64
  -2   5   0   23.21    0.60
   2   5  -1   62.25    1.61
  -2  -5  -1   66.24    1.65
  -2  -5  -1   67.03    1.63
   2  -5   1   64.95    1.61
   2   5  -1   66.32    1.64
   2  -5   1   62.87    1.66
   2   5  -1   66.11    1.66
  -2   5   1   64.71    1.57
  -2   5   1   67.50    1.59
   2  -5   1   64.38    1.64
  -2  -5  -1   65.11    1.60
   2  -5  -1   66.92    1.55
   2   5   1   63.84    1.64
   2  -5  -1   65.33    1.58
   2   5   1   62.60    1.59
  -2   5  -1   64.30    1.66
  -2  -5   1   66.42    1.61
  -2   5  -1   60.86    1.63
  -2  -5   1   65.00    1.66
  -2  -5   1   64.70    1.64
   2  -5  -1   64.44    1.61
  -2   5  -1   62.81    1.60
   2   5   1   64.41    1.62
   2   5  -2   15.55    0.48
   2  -5   2   14.80    0.51
   2   5  -2   15.33    0.51
  -2   5   2   15.26    0.40
   2  -5   2   16.10    0.51
  -2  -5  -2   15.07    0.45
   2   5  -2   15.66    0.51
  -2   5   2   15.41    0.40
  -2   5  -2   15.47    0.48
   2   5   2   15.55    0.47
  -2  -5   2   15.49    0.50
  -2   5  -2   14.89    0.51
  -2  -5   2   14.38    0.49
  -2  -5   2   15.37    0.45
  -2   5  -2   14.66    0.49
  -2   5   3   33.32    0.85
   2  -5   3   33.16    0.99
  -2  -5  -3   34.58    0.92
   2  -5   3   32.62    0.92
   2   5  -3   32.80    0.98
  -2   5   3   34.59    0.85
   2   5  -3   33.70    0.99
  -2  -5  -3   33.38    0.91
   2   5  -3   33.29    0.94
   2  -5   3   33.98    1.01
  -2  -5   3   33.14    0.89
   2   5   3   34.15    0.92
  -2   5  -3   33.88    0.99
   2   5   3   32.99    0.94
  -2  -5   3   32.75    0.97
  -2   5  -3   33.21    1.00
  -2   5  -3   32.46    0.94
  -2  -5   3   34.72    0.97
   2   5   3   34.07    0.94
  -2   5   4    8.26    0.29
   2  -5   4    8.26    0.39
   2   5  -4    8.15    0.40
   2   5  -4    7.97    0.44
   2  -5   4    7.59    0.49
  -2   5   4    7.82    0.28
   2  -5   4    8.38    0.48
   2   5  -4    7.92    0.45
   2   5   4    8.10    0.40
   2  -5  -4    7.67    0.32
  -2  -5   4    8.40    0.44
  -2   5  -4    7.43    0.46
   2   5   4    7.54    0.38
  -2   5  -4    7.45    0.49
   2   5  -5   14.82    0.67
   2  -5   5   15.27    0.78
  -2  -5  -5   14.38    0.63
  -2   5  -5   14.51    0.65
   2  -5  -5   15.38    0.59
  -3  -5   0   36.66    1.02
  -3   5   0   38.42    0.96
   3  -5   0   38.06    1.00
  -3   5   0   38.73    0.98
  -3  -5   0   38.89    1.00
   3   5   0   38.91    1.00
  -3   5   0   38.22    1.00
   3   5   0   38.12    1.02
   3  -5   0   38.86    0.99
   3  -5   0   39.65    0.98
   3   5   0   39.12    1.01
   3  -5   1   59.53    1.48
   3   5  -1   59.60    1.54
  -3  -5  -1   58.73    1.48
  -3  -5  -1   59.61    1.53
   3  -5   1   60.93    1.54
  -3   5   1   59.10    1.43
  -3  -5  -1   59.40    1.50
   3   5  -1   58.43    1.51
  -3   5   1   60.43    1.44
   3   5  -1   56.68    1.49
   3  -5   1   59.92    1.52
  -3   5  -1   60.97    1.51
   3   5   1   59.89    1.52
   3  -5  -1   60.82    1.45
   3   5   1   56.32    1.52
  -3   5  -1   58.32    1.53
   3  -5  -1   58.72    1.47
  -3  -5   1   59.75    1.53
   3   5   1   55.23    1.49
  -3  -5   1   60.04    1.49
   3  -5  -1   59.30    1.42
  -3  -5   1   60.49    1.51
   3   5   1   57.41    1.48
  -3   5  -1   58.38    1.47
   3   5  -2   30.06    0.83
   3  -5   2   28.93    0.84
   3   5  -2   28.80    0.80
   3   5  -2   27.67    0.83
  -3  -5  -2   29.65    0.78
   3  -5   2   29.04    0.85
  -3   5  -2   28.49    0.80
   3   5   2   28.45    0.81
  -3   5  -2   28.58    0.84
  -3  -5   2   29.00    0.77
  -3  -5   2   27.88    0.82
   3   5   2   28.89    0.81
  -3  -5   2   27.76    0.82
   3   5  -3   25.66    0.81
   3  -5   3   25.68    0.81
   3   5  -3   25.05    0.75
  -3  -5  -3   26.16    0.74
   3  -5   3   25.80    0.82
   3  -5   3   24.43    0.74
   3   5  -3   25.92    0.79
  -3  -5  -3   25.29    0.73
  -3  -5   3   25.83    0.77
  -3  -5   3   25.39    0.77
  -3  -5   3   24.80    0.69
  -3   5  -3   25.05    0.80
   3  -5  -3   25.06    0.65
  -3   5  -3   24.64    0.76
   3   5   3   25.92    0.77
  -3   5  -3   25.62    0.82
   3   5  -4   15.95    0.59
  -3  -5  -4   15.92    0.56
   3  -5   4   16.73    0.65
   3   5  -4   15.79    0.63
   3  -5   4   15.22    0.57
   3  -5   4   15.55    0.67
   3  -5  -4   16.21    0.49
   3   5   4   15.81    0.60
  -3  -5   4   15.92    0.46
  -3  -5   4   15.60    0.60
  -3   5  -4   15.56    0.58
  -3   5  -4   15.11    0.68
  -3  -5   4   15.62    0.61
   3   5   4   15.67    0.58
  -3  -5  -5    6.31    0.48
   3   5  -5    6.19    0.51
   3  -5   5    6.35    0.63
   3  -5  -5    5.48    0.40
  -3   5  -5    5.98    0.48
   4  -5   0    0.64    0.08
  -4  -5   0    0.88    0.10
   4  -5   0    0.99    0.09
  -4   5   0    0.88    0.08
  -4   5   0    0.70    0.08
   4   5   0    0.83    0.10
   4  -5   0    0.68    0.08
  -4  -5   0    0.55    0.08
  -4   5   0    0.96    0.08
   4   5   0    0.66    0.09
  -4  -5   0    0.83    0.10
   4   5  -1    9.28    0.34
  -4  -5  -1    9.41    0.34
  -4   5   1    9.60    0.25
  -4  -5  -1    9.42    0.34
   4  -5   1    9.26    0.34
  -4  -5  -1    9.48    0.31
   4   5  -1    9.67    0.34
   4   5  -1    8.97    0.33
  -4   5   1    9.12    0.26
   4  -5   1    9.35    0.34
   4   5   1    9.03    0.32
  -4  -5   1    9.74    0.33
   4  -5  -1    9.44    0.27
  -4   5  -1    9.81    0.31
  -4  -5   1    9.31    0.33
  -4  -5   1    9.81    0.34
  -4   5  -1    9.59    0.33
   4  -5  -1    9.33    0.27
   4  -5  -1    9.34    0.26
   4   5   1    9.12    0.34
   4  -5   2    0.54    0.12
  -4  -5  -2    0.56    0.10
   4   5  -2    0.55    0.11
   4  -5   2    0.58    0.12
   4   5  -2    0.42    0.09
   4   5   2    0.44    0.10
  -4   5  -2    0.55    0.10
  -4  -5   2    0.43    0.11
  -4  -5   2    0.29    0.07
  -4  -5   2    0.38    0.09
  -4   5  -2    0.61    0.12
   4   5   2    0.40    0.09
   4  -5   3    5.70    0.35
   4   5  -3    5.61    0.33
   4  -5   3    5.29    0.34
   4   5  -3    5.67    0.30
  -4  -5  -3    5.58    0.28
  -4  -5  -3    5.40    0.30
   4   5  -3    5.41    0.32
   4  -5   3    5.10    0.29
  -4  -5   3    6.04    0.31
  -4   5  -3    5.23    0.35
   4   5   3    5.66    0.31
  -4   5  -3    7.15    0.38
  -4   5  -3    6.18    0.30
  -4  -5   3    5.45    0.23
   4  -5  -3    5.59    0.18
   4   5   3    6.56    0.31
   4  -5   4   -0.02    0.20
   4   5  -4   -0.16    0.17
   4   5  -4    0.08    0.15
   4  -5   4   -0.03    0.22
  -4  -5  -4    0.22    0.13
   4   5  -4   -0.04    0.21
   4   5   4   -0.07    0.16
  -4  -5   4    0.06    0.17
  -4  -5   4    0.02    0.14
   4  -5  -4    0.29    0.11
  -4  -5   4    0.08    0.06
  -4   5  -4    0.12    0.13
  -4   5  -4    0.09    0.24
  -4   5  -4   -0.33    0.24
  -4  -5  -5    3.32    0.35
   4   5  -5    3.50    0.37
   4  -5   5    3.35    0.44
  -4   5  -5    3.44    0.35
  -5  -5   0   29.63    0.82
   5  -5   0   29.55    0.80
  -5   5   0   29.23    0.79
  -5  -5   0   30.10    0.84
   5   5   0   31.66    0.82
  -5   5   0   29.56    0.75
   5  -5   0   29.84    0.77
   5   5   0   29.33    0.83
  -5   5   0   28.73    0.78
   5  -5   0   29.14    0.79
   5   5   0   28.98    0.81
  -5  -5  -1   23.10    0.65
   5  -5   1   23.14    0.67
  -5  -5  -1   22.95    0.68
   5  -5   1   21.87    0.67
   5   5  -1   22.29    0.66
   5   5  -1   23.69    0.68
  -5  -5  -1   22.18    0.67
  -5   5   1   22.76    0.57
  -5   5   1   22.38    0.57
  -5  -5  -1   23.03    0.64
   5   5  -1   23.46    0.67
  -5   5  -1   23.11    0.63
   5   5   1   22.75    0.67
   5   5   1   22.02    0.65
  -5  -5   1   22.52    0.66
   5  -5  -1   22.57    0.60
   5   5   1   21.75    0.68
  -5   5  -1   22.29    0.66
  -5  -5   1   22.06    0.66
   5   5   1   22.87    0.68
  -5  -5   1   23.10    0.65
   5  -5  -1   22.55    0.59
   5  -5  -1   22.77    0.58
   5  -5   2   20.58    0.65
   5   5  -2   20.56    0.65
   5  -5   2   20.11    0.66
   5   5  -2   20.33    0.65
  -5  -5  -2   20.77    0.61
   5   5  -2   20.62    0.63
   5   5   2   20.37    0.64
  -5  -5   2   20.32    0.62
  -5   5  -2   21.19    0.66
  -5  -5   2   19.67    0.57
   5   5   2   20.08    0.64
  -5  -5   2   20.24    0.62
  -5   5  -2   20.33    0.61
   5  -5   3   12.23    0.52
   5   5  -3   11.76    0.49
   5   5  -3   12.34    0.47
   5   5  -3   12.21    0.50
  -5  -5  -3   12.23    0.45
   5  -5   3   12.38    0.51
   5   5   3   12.18    0.48
  -5  -5   3   11.78    0.36
  -5  -5   3   12.56    0.46
  -5   5  -3   12.25    0.52
  -5   5  -3   12.09    0.46
   5   5   3   12.61    0.49
  -5  -5   3   12.34    0.45
  -5   5  -3   12.20    0.53
   5   5  -4    9.41    0.46
   5  -5   4    8.91    0.56
   5  -5   4    9.74    0.54
   5   5  -4   10.04    0.51
   5   5  -4    8.88    0.50
  -5  -5  -4    9.15    0.43
  -5  -5   4    8.65    0.44
  -5   5  -4    9.34    0.44
   5   5   4   10.15    0.50
   5  -5  -4    9.57    0.33
  -5  -5   4    9.09    0.43
  -5   5  -4    7.90    0.60
   5   5   4    9.10    0.48
  -5   5  -4    8.39    0.57
  -5  -5  -5    5.34    0.50
   5   5  -5    5.12    0.53
   5  -5   5    4.87    0.52
  -5   5  -5    5.08    0.48
  -6   5   0    3.38    0.17
   6   5   0    3.68    0.20
  -6   5   0    3.09    0.17
   6  -5   0    3.43    0.17
  -6  -5   0    3.38    0.21
   6  -5   0    3.28    0.17
   6  -5   0    3.31    0.17
  -6  -5   0    3.10    0.17
  -6  -5   0    3.35    0.20
  -6   5   0    3.46    0.15
  -6  -5   0    3.47    0.20
   6   5   0    3.66    0.21
  -6   5   0    3.25    0.14
  -6   5   1    0.45    0.06
   6  -5   1    0.40    0.09
   6   5  -1    0.45    0.10
  -6  -5  -1    0.26    0.08
  -6  -5  -1    0.29    0.09
   6   5  -1    0.33    0.09
   6  -5   1    0.37    0.08
   6   5  -1    0.35    0.09
  -6   5  -1    0.59    0.09
   6  -5  -1    0.28    0.05
  -6  -5   1    0.28    0.09
   6   5   1    0.45    0.12
  -6  -5   1    0.49    0.09
   6   5   1    0.51    0.09
  -6  -5   1    0.36    0.09
   6   5   1    0.56    0.12
   6  -5  -1    0.28    0.05
   6  -5  -1    0.37    0.06
   6   5  -2    2.72    0.22
   6  -5   2    2.91    0.23
   6   5  -2    2.48    0.21
  -6  -5  -2    2.67    0.19
   6  -5   2    2.49    0.22
   6   5  -2    2.26    0.21
  -6   5  -2    2.35    0.18
  -6   5  -2    2.65    0.23
  -6  -5   2    2.46    0.16
   6   5   2    2.39    0.22
   6   5   2    2.59    0.23
  -6  -5   2    2.43    0.20
  -6  -5   2    2.64    0.19
   6  -5   3    0.34    0.16
   6   5  -3    0.41    0.14
   6  -5   3    0.33    0.18
   6   5  -3    0.60    0.18
  -6  -5  -3    0.24    0.11
   6   5  -3    0.29    0.13
  -6  -5   3    0.22    0.06
   6   5   3    0.33    0.15
  -6  -5   3    0.34    0.07
  -6   5  -3    0.30    0.18
   6   5   3    0.22    0.15
  -6  -5   3    0.19    0.12
  -6   5  -3    0.32    0.11
  -6   5  -3    0.34    0.16
  -6  -5   3    0.24    0.12
  -6  -5  -4    1.28    0.21
   6  -5   4    1.30    0.29
   6   5  -4    1.20    0.25
   6   5  -4    1.62    0.24
   6  -5   4    1.71    0.32
   6  -5  -4    1.71    0.17
  -6   5  -4    1.54    0.36
  -6   5  -4    1.13    0.21
  -6  -5   4    1.11    0.23
   6   5   4    1.28    0.24
   6   5  -5    0.09    0.30
   6  -5   5    0.01    0.37
  -6   5  -5    0.27    0.26
  -7   5   0   10.83    0.32
  -7  -5   0   11.37    0.40
   7   5   0   10.73    0.39
  -7   5   0   10.84    0.32
  -7  -5   0   10.36    0.35
   7  -5   0   10.59    0.36
  -7  -5   0   11.22    0.40
   7   5   0   10.78    0.40
  -7  -5   0   10.47    0.40
   7  -5   0   10.45    0.36
   7   5   0   10.77    0.40
   7   5  -1    6.07    0.28
   7  -5   1    5.16    0.26
  -7  -5  -1    5.07    0.24
   7   5  -1    5.38    0.27
   7  -5   1    5.14    0.27
   7   5  -1    5.29    0.26
   7  -5  -1    5.26    0.20
  -7  -5   1    5.32    0.26
   7   5   1    5.01    0.26
  -7  -5   1    5.28    0.26
  -7  -5   1    5.36    0.27
   7   5   1    5.32    0.29
   7   5   1    5.28    0.28
  -7  -5   1    5.19    0.22
   7  -5  -1    5.33    0.20
   7   5   1    5.61    0.29
   7   5   1    5.38    0.29
  -7   5  -1    5.43    0.23
   7  -5  -1    5.33    0.20
   7  -5   2    8.52    0.38
   7   5  -2    8.52    0.39
   7   5  -2    9.04    0.37
   7  -5   2    8.65    0.40
  -7  -5  -2    9.19    0.36
   7   5  -2    9.09    0.39
  -7   5  -2    9.07    0.40
  -7  -5   2    8.54    0.29
   7   5   2    9.15    0.41
   7   5   2    8.60    0.38
  -7  -5   2    8.47    0.30
   7   5   2    8.59    0.40
  -7   5  -2    8.80    0.35
  -7  -5   2    8.63    0.35
   7  -5   3    3.95    0.33
   7   5  -3    4.08    0.35
  -7  -5  -3    4.10    0.28
   7  -5   3    3.63    0.34
   7   5  -3    4.10    0.33
   7   5  -3    4.30    0.31
  -7   5  -3    3.74    0.38
  -7   5  -3    4.15    0.28
   7   5   3    4.37    0.33
   7   5   3    4.19    0.34
  -7  -5   3    3.94    0.28
  -7  -5   3    4.12    0.28
   7  -5   4    5.04    0.46
   7   5  -4    5.38    0.42
   7  -5   4    5.77    0.54
   7   5  -4    5.86    0.52
  -7  -5  -4    4.84    0.37
   7  -5  -4    4.71    0.23
  -7   5  -4    5.57    0.61
  -7  -5   4    5.28    0.38
   7   5   4    5.22    0.45
   7   5   4    5.00    0.50
   7   5  -5    2.47    0.40
  -7  -5  -5    2.35    0.36
   7  -5   5    2.17    0.50
  -8  -5   0    1.13    0.14
  -8  -5   0    1.35    0.16
   8   5   0    1.40    0.16
  -8   5   0    1.27    0.14
   8  -5   0    1.19    0.13
  -8   5   0    1.47    0.11
   8  -5   0    1.24    0.14
   8   5   0    1.64    0.18
   8  -5   0    1.63    0.14
  -8  -5   0    1.31    0.16
  -8   5   0    1.06    0.11
  -8  -5   0    0.96    0.11
   8   5   0    1.12    0.15
  -8  -5  -1   12.22    0.42
   8  -5   1   12.16    0.44
   8   5  -1   12.26    0.46
   8   5  -1   12.30    0.45
   8   5  -1   12.44    0.45
   8  -5   1   12.16    0.45
   8  -5  -1   12.51    0.38
  -8   5  -1   12.02    0.40
  -8  -5   1   12.08    0.44
   8  -5  -1   12.59    0.37
  -8  -5   1   12.24    0.44
  -8  -5   1   12.01    0.38
   8   5   1   11.37    0.44
  -8   5  -1   11.80    0.41
   8   5   1   11.99    0.47
   8   5   1   11.70    0.47
  -8  -5   1   12.09    0.44
   8  -5  -1   12.00    0.37
   8   5   1   12.44    0.47
   8   5  -2    1.32    0.17
   8   5  -2    1.37    0.19
   8  -5   2    1.19    0.17
   8   5  -2    1.16    0.18
  -8  -5  -2    0.97    0.14
  -8  -5   2    1.04    0.10
   8  -5  -2    1.21    0.08
   8   5   2    1.42    0.19
   8   5   2    1.49    0.20
   8  -5  -2    1.09    0.09
  -8   5  -2    1.54    0.17
  -8  -5   2    1.21    0.16
  -8   5  -2    1.64    0.21
   8   5   2    1.07    0.17
  -8  -5   2    1.12    0.11
   8   5  -3    8.44    0.43
   8   5  -3    8.73    0.46
   8  -5   3    8.85    0.49
   8  -5   3    8.39    0.46
   8   5  -3    8.22    0.47
  -8  -5  -3    8.42    0.40
   8   5   3    8.73    0.48
  -8   5  -3    8.55    0.41
  -8  -5   3    8.67    0.39
  -8   5  -3    9.47    0.53
  -8  -5   3    8.64    0.40
   8   5   3    9.18    0.47
   8  -5   4    2.27    0.37
   8  -5   4    1.79    0.29
  -8  -5  -4    1.51    0.25
   8   5  -4    1.74    0.31
   8   5   4    1.72    0.30
   8   5   4    1.79    0.39
  -9  -5   0   34.12    0.95
   9  -5   0   32.02    0.92
  -9   5   0   32.28    0.90
   9   5   0   30.59    0.94
   9   5   0   33.46    0.97
   9  -5   0   32.80    0.89
  -9   5   0   31.97    0.84
  -9  -5   0   32.17    0.89
  -9   5   0   32.09    0.83
   9   5   0   32.77    0.95
   9   5   0   32.20    0.97
  -9  -5   0   34.34    0.97
   9   5   0   31.21    0.93
  -9  -5   0   33.01    0.95
   9  -5   0   32.70    0.90
   9  -5   1    6.14    0.31
   9   5  -1    5.69    0.32
  -9  -5  -1    6.11    0.28
   9   5  -1    5.69    0.30
   9  -5   1    6.13    0.30
  -9  -5   1    6.14    0.31
   9   5   1    6.12    0.34
  -9   5  -1    5.97    0.28
   9  -5  -1    6.23    0.24
  -9  -5   1    6.19    0.31
   9   5   1    6.07    0.33
   9   5   1    5.77    0.31
  -9  -5   1    5.76    0.24
   9  -5  -1    5.90    0.24
  -9   5  -1    5.88    0.26
   9  -5  -1    5.88    0.24
  -9  -5   1    6.07    0.30
   9   5   1    5.69    0.33
   9   5   1    5.92    0.34
   9   5  -2   26.40    0.84
  -9  -5  -2   25.53    0.79
   9   5  -2   27.08    0.85
   9  -5   2   25.61    0.83
   9   5  -2   26.52    0.81
   9  -5   2   26.81    0.86
   9   5   2   26.64    0.87
  -9   5  -2   26.46    0.78
   9   5   2   25.80    0.84
  -9  -5   2   25.74    0.69
  -9  -5   2   24.59    0.70
   9  -5  -2   25.89    0.67
  -9  -5   2   26.37    0.79
   9   5   2   25.51    0.86
   9  -5  -2   26.90    0.68
   9  -5  -2   25.80    0.67
  -9  -5   2   26.96    0.79
   9   5  -3    4.56    0.39
   9   5  -3    4.46    0.43
   9  -5   3    4.86    0.39
  -9  -5  -3    5.11    0.33
   9  -5   3    5.42    0.43
   9   5  -3    4.76    0.36
   9   5   3    5.32    0.42
  -9   5  -3    5.09    0.50
  -9   5  -3    4.97    0.33
   9   5   3    5.77    0.41
  -9  -5   3    5.08    0.34
  -9  -5   3    4.66    0.31
   9   5  -4   15.30    0.70
   9  -5   4   16.74    0.83
  -9  -5  -4   14.47    0.64
   9  -5   4   14.76    0.75
   9   5   4   14.83    0.74
  10   5   0    6.27    0.33
 -10   5   0    6.41    0.23
 -10   5   0    6.87    0.31
  10   5   0    6.50    0.35
  10   5   0    6.01    0.34
  10   5   0    6.18    0.32
 -10   5   0    6.38    0.24
 -10  -5   0    6.55    0.36
  10  -5   0    6.08    0.29
 -10  -5   0    6.10    0.28
  10   5   0    6.99    0.36
  10  -5   0    6.26    0.29
  10  -5   0    6.28    0.29
  10  -5   1    0.27    0.12
  10  -5   1    0.20    0.12
  10   5  -1    0.33    0.13
 -10  -5  -1    0.24    0.09
  10   5  -1    0.42    0.16
  10   5  -1    0.36    0.14
  10   5   1    0.35    0.13
 -10  -5   1    0.22    0.08
  10   5   1    0.34    0.17
 -10   5  -1    0.32    0.10
  10   5   1    0.18    0.12
  10  -5  -1    0.26    0.08
  10  -5  -1    0.19    0.09
  10  -5  -1    0.33    0.09
 -10  -5   1    0.40    0.11
  10  -5  -1    0.28    0.09
  10   5   1    0.10    0.14
  10   5   1    0.43    0.15
 -10   5  -1    0.29    0.11
 -10  -5   1    0.11    0.15
 -10  -5   1    0.13    0.13
  10  -5   2    5.03    0.35
  10   5  -2    4.97    0.36
  10   5  -2    5.39    0.33
  10  -5   2    4.96    0.37
  10   5  -2    5.07    0.39
 -10   5  -2    5.51    0.29
  10   5   2    5.36    0.37
  10  -5  -2    4.85    0.20
  10  -5  -2    5.26    0.22
 -10  -5   2    5.04    0.31
  10   5   2    5.35    0.42
 -10  -5   2    4.84    0.29
 -10  -5   2    5.10    0.21
  10  -5  -2    5.44    0.23
 -10  -5   2    5.06    0.22
  10   5   2    5.30    0.37
  10  -5   3    0.68    0.25
 -10  -5  -3    0.32    0.15
  10   5  -3    0.36    0.18
  10   5  -3    0.19    0.22
  10  -5   3    0.45    0.22
  10   5  -3   -0.09    0.27
 -10  -5   3    0.34    0.16
  10   5   3    0.37    0.23
 -10   5  -3    0.22    0.15
 -10  -5   3    0.45    0.18
  10  -5   4    2.82    0.41
 -10  -5  -4    2.81    0.33
  10   5  -4    3.24    0.38
  10   5   4    2.47    0.39
  11  -5   0    0.68    0.13
  11  -5   0    0.29    0.11
 -11  -5   0    0.47    0.17
 -11   5   0    0.57    0.09
  11   5   0    0.44    0.13
 -11   5   0    0.48    0.10
  11   5   0    0.33    0.16
 -11  -5   0    0.52    0.12
  11  -5   0    0.51    0.12
  11   5   0    0.51    0.16
  11   5   0    0.27    0.13
  11   5   0    0.48    0.14
  11   5  -1    0.47    0.17
  11   5  -1    0.31    0.16
 -11  -5  -1    0.35    0.13
  11   5  -1    0.51    0.15
  11  -5   1    0.47    0.15
  11  -5   1    0.25    0.13
 -11  -5   1    0.24    0.10
 -11  -5   1    0.47    0.15
  11   5   1    0.60    0.19
  11  -5  -1    0.29    0.10
  11   5   1    0.23    0.14
 -11   5  -1    0.53    0.14
  11   5   1    0.53    0.16
 -11  -5   1    0.32    0.16
 -11  -5   1    0.54    0.15
  11  -5  -1    0.38    0.12
  11  -5  -1    0.64    0.13
  11  -5  -1    0.28    0.10
 -11   5  -1    0.29    0.11
  11   5   1    0.43    0.17
  11  -5  -1    0.33    0.12
  11   5  -2    0.28    0.23
 -11  -5  -2    0.30    0.13
  11   5  -2    0.30    0.19
  11  -5   2    0.34    0.17
  11  -5   2    0.53    0.17
  11   5  -2    0.42    0.15
  11  -5  -2    0.38    0.08
  11  -5  -2    0.43    0.11
 -11  -5   2    0.33    0.15
 -11  -5   2    0.33    0.09
 -11  -5   2    0.38    0.16
 -11  -5   2    0.43    0.08
  11  -5  -2    0.30    0.10
  11   5   2    0.32    0.19
 -11   5  -2    0.30    0.13
  11   5   2    0.31    0.24
  11   5  -3    0.47    0.20
  11  -5   3    0.42    0.24
  11  -5   3    0.18    0.24
 -11   5  -3    0.23    0.18
 -11  -5   3    0.39    0.19
  11   5   3    0.19    0.25
  11  -5  -3    0.39    0.10
  11   5   3    0.46    0.28
  11   5  -4    0.68    0.30
  11  -5   4   -0.29    0.34
  11  -5   4   -0.43    0.36
  11   5   4    0.07    0.37
 -12   5   0    0.08    0.09
  12   5   0    0.31    0.16
  12   5   0    0.41    0.18
 -12  -5   0    0.18    0.12
  12   5   0    0.38    0.16
  12   5   0    0.21    0.14
  12  -5   0    0.11    0.12
  12  -5   0    0.24    0.13
 -12  -5   0    0.29    0.19
  12  -5   0    0.57    0.16
 -12   5   0    0.27    0.08
  12   5   0    0.38    0.19
  12  -5   1    0.03    0.12
  12   5  -1    0.23    0.14
  12   5  -1    0.24    0.20
  12  -5   1    0.08    0.13
  12   5  -1   -0.04    0.13
  12   5  -1   -0.12    0.17
  12   5  -1    0.00    0.14
  12   5   1    0.19    0.17
  12  -5  -1    0.11    0.10
 -12  -5   1    0.13    0.10
  12   5   1    0.42    0.22
  12   5   1    0.09    0.21
  12  -5  -1   -0.06    0.13
  12  -5  -1   -0.07    0.09
  12   5   1    0.16    0.17
  12  -5  -1   -0.07    0.13
 -12   5  -1    0.08    0.16
 -12   5  -1    0.12    0.11
 -12  -5   1   -0.01    0.17
  12  -5  -1    0.40    0.14
  12   5  -2    0.24    0.18
  12   5  -2    0.23    0.22
  12  -5   2    0.25    0.19
  12   5  -2    0.46    0.27
 -12  -5  -2    0.80    0.18
  12  -5   2    0.13    0.19
  12  -5  -2    0.36    0.13
  12   5   2    0.05    0.18
 -12  -5   2    0.45    0.09
  12  -5  -2    0.36    0.10
 -12   5  -2    0.01    0.12
  12   5   2   -0.12    0.17
 -12  -5   2    0.16    0.17
  12   5   2    0.24    0.28
 -12  -5   2    0.25    0.08
  12  -5  -2    0.30    0.14
  12  -5   3    0.42    0.24
 -12  -5  -3   -0.02    0.18
  12  -5   3   -0.04    0.25
  12   5  -3    0.53    0.23
  12   5   3    0.02    0.28
  12   5   3    0.30    0.29
 -12   5  -3    0.18    0.18
  12  -5   4    0.31    0.48
 -13  -5   0    6.51    0.34
  13   5   0    7.97    0.51
  13   5   0    6.99    0.43
  13  -5   0    6.21    0.45
 -13   5   0    6.55    0.27
  13  -5   0    7.30    0.43
 -13  -5   0    6.80    0.48
 -13   5   0    7.14    0.25
  13   5   0    6.25    0.50
  13  -5   0    6.64    0.36
  13   5   0    6.91    0.41
  13   5   0    6.98    0.40
  13  -5   0    6.43    0.36
  13   5  -1    2.76    0.30
  13   5  -1    3.26    0.33
  13   5  -1    2.81    0.31
  13   5  -1    2.42    0.31
 -13  -5  -1    3.47    0.29
  13   5  -1    3.27    0.34
  13  -5   1    2.60    0.29
  13  -5   1    3.01    0.33
 -13  -5   1    3.34    0.35
  13  -5  -1    3.33    0.32
  13  -5  -1    2.92    0.24
  13   5   1    3.19    0.36
  13  -5  -1    3.25    0.25
  13   5   1    2.78    0.38
  13   5   1    3.30    0.34
 -13   5  -1    2.87    0.27
  13  -5  -1    2.68    0.25
 -13  -5   1    3.11    0.23
  13  -5  -1    2.53    0.25
 -13   5  -1    2.55    0.23
  13  -5   2    5.64    0.47
  13   5  -2    5.78    0.40
  13   5  -2    5.63    0.40
  13  -5   2    5.61    0.42
 -13  -5  -2    5.54    0.38
  13   5  -2    5.95    0.42
  13   5   2    5.76    0.49
  13  -5  -2    5.07    0.23
  13  -5  -2    5.56    0.27
  13  -5  -2    5.20    0.27
  13  -5  -2    5.45    0.34
 -13   5  -2    5.34    0.36
 -13  -5  -3    1.06    0.25
  13   5  -3    1.90    0.31
  13   5  -3    1.10    0.26
  13  -5   3    1.85    0.35
  13  -5   3    0.94    0.28
  13   5   3    1.46    0.41
  13   5   3    1.52    0.37
 -13   5  -3    1.14    0.24
  14   5   0    0.29    0.19
  14  -5   0    0.19    0.15
  14   5   0    0.39    0.22
  14   5   0    0.41    0.29
 -14  -5   0    0.38    0.31
  14  -5   0    0.05    0.16
  14  -5   0    0.06    0.23
  14   5   0   -0.02    0.16
 -14  -5   0    0.37    0.16
  14  -5   1   31.19    1.04
  14  -5   1   31.69    1.02
  14   5  -1   31.93    1.03
  14   5  -1   30.95    1.03
  14   5  -1   32.23    1.02
 -14  -5  -1   31.17    0.97
  14   5   1   32.47    1.07
 -14   5  -1   31.81    0.91
 -14  -5   1   31.54    0.88
  14  -5  -1   31.99    1.01
  14  -5  -1   31.74    0.95
  14   5   1   31.93    1.08
  14  -5   2    0.32    0.24
  14   5  -2    0.29    0.23
  14   5  -2    0.71    0.22
  14  -5   2    0.32    0.24
 -14  -5  -2    0.12    0.19
  14   5  -2    0.20    0.22
  14  -5  -2    0.32    0.12
  14   5   2    0.28    0.26
  14  -5  -2    0.35    0.14
  14   5   2    0.38    0.28
  14  -5  -2    0.19    0.21
 -14   5  -2    0.12    0.17
  14  -5   3   23.46    1.02
  14   5  -3   21.68    0.80
  14   5  -3   20.11    0.81
  14  -5   3   21.27    0.93
  14   5  -3   21.41    0.87
  14   5   3   21.55    0.98
  14   5   3   20.83    1.03
 -14   5  -3   21.00    0.82
  15  -5   0   37.80    1.18
  15   5   0   38.80    1.21
  15   5   0   39.13    1.26
 -15  -5   0   38.15    1.10
  15  -5   0   38.20    1.16
  15   5   0   38.81    1.23
 -15  -5  -1    5.97    0.41
  15   5  -1    5.08    0.43
  15  -5   1    6.09    0.46
  15   5  -1    6.26    0.47
  15  -5   1    6.02    0.45
  15   5  -1    6.60    0.48
  15   5   1    5.52    0.51
  15  -5  -1    6.08    0.38
  15  -5  -1    5.44    0.37
 -15   5  -1    5.94    0.35
 -15  -5   1    6.10    0.34
  15   5   1    5.83    0.49
 -15  -5  -2   31.85    1.04
  15  -5   2   33.06    1.15
  15   5  -2   30.97    1.06
  15   5  -2   31.36    1.05
  15   5  -2   32.06    1.06
  15  -5   2   31.52    1.10
  15  -5  -2   27.80    0.84
  15  -5  -2   30.78    0.91
  15   5   2   32.83    1.21
  15   5   2   32.45    1.17
 -15   5  -2   31.25    0.99
  16   5   0   -0.12    0.24
  16   5   0    0.48    0.26
 -16  -5   0    0.75    0.22
  16  -5   0    0.88    0.24
  16  -5   0    0.41    0.21
 -16  -5  -1    0.87    0.24
  16   5  -1    0.82    0.27
  16  -5   1    0.84    0.27
  16   5  -1    1.12    0.30
  16  -5   1    1.09    0.28
  16   5   1    1.08    0.32
  16  -5  -1    0.93    0.22
  16  -5  -1    0.99    0.24
  16   5   1    0.98    0.32
  16   5  -2    0.46    0.33
  16   5  -2    0.74    0.32
  16  -5   2    0.84    0.32
 -16  -5  -2    0.58    0.30
 -16   5  -2    0.19    0.24
  16   5   2    0.16    0.40
  16   5   2    0.91    0.39
  17  -5   0   -0.04    0.25
  17   5   0   -0.34    0.26
  17   5   0   -0.42    0.29
  17  -5   0   -0.03    0.26
 -17  -5   0    0.24    0.24
  17   5   1    0.92    0.36
   0  -6   0   42.09    1.03
   0  -6   0   38.90    1.04
   0  -6   0   39.48    1.06
   0   6   0   39.91    1.02
   0   6   0   41.01    1.04
   0   6   0   38.28    1.04
   0   6   1   59.98    1.48
   0   6  -1   59.93    1.52
   0   6  -1   59.04    1.54
   0   6  -1   59.30    1.49
   0  -6  -1   60.76    1.49
   0  -6  -1   57.39    1.51
   0   6   1   60.60    1.50
   0  -6   1   56.41    1.54
   0  -6  -1   60.26    1.46
   0  -6   1   58.76    1.49
   0  -6   1   59.41    1.53
   0  -6   2   30.22    0.82
   0   6   2   30.16    0.80
   0   6   2   30.22    0.79
   0   6   2   29.18    0.79
   0   6  -2   29.40    0.83
   0  -6  -2   29.61    0.82
   0  -6   2   30.07    0.87
   0  -6   2   29.70    0.88
   0  -6  -2   30.61    0.78
   0   6  -2   30.14    0.88
   0   6  -3   25.51    0.81
   0  -6  -3   26.27    0.71
   0   6   3   26.45    0.71
   0  -6   3   25.51    0.81
   0  -6   3   25.09    0.74
   0   6  -3   24.29    0.81
   0   6   3   25.78    0.71
   0   6   3   25.26    0.71
   0  -6   3   25.65    0.82
   0  -6  -3   25.91    0.71
   0   6  -3   26.06    0.77
   0   6  -4   16.04    0.68
   0   6   4   15.84    0.53
   0  -6   4   16.11    0.65
   0   6  -4   15.42    0.67
   0  -6   4   16.40    0.55
   0   6   4   16.26    0.51
   0  -6  -4   16.19    0.55
   0  -6  -4   15.69    0.53
   0   6   4   15.94    0.52
   0   6  -5    5.62    0.48
   0  -6   5    6.73    0.60
   1   6   0    9.62    0.32
   1   6   0   10.07    0.32
   1  -6   0   10.29    0.33
   1  -6   0    9.86    0.32
  -1   6   0   10.06    0.31
  -1  -6   0    9.93    0.33
   1   6   0    9.78    0.32
  -1   6   0    9.64    0.32
   1  -6   0    9.99    0.33
  -1   6   1   36.48    0.93
   1  -6   1   37.45    1.01
  -1  -6  -1   36.43    0.98
   1   6  -1   35.41    1.00
   1   6  -1   36.67    0.99
  -1   6   1   37.07    0.94
   1   6  -1   34.73    0.97
  -1  -6  -1   36.80    0.97
  -1  -6  -1   37.80    0.94
   1  -6   1   36.91    0.96
   1  -6   1   35.78    0.99
   1   6   1   35.72    0.93
  -1   6  -1   38.33    0.99
  -1   6  -1   36.65    1.00
   1  -6  -1   37.44    0.95
  -1  -6   1   37.74    0.97
   1   6   1   37.38    0.95
   1   6   1   37.40    0.97
  -1  -6   1   37.07    0.99
   1  -6  -1   37.00    0.92
   1  -6  -1   37.60    0.96
  -1   6  -1   34.57    0.96
  -1   6   2    7.05    0.23
  -1  -6  -2    6.88    0.25
   1  -6   2    7.12    0.32
   1   6  -2    7.24    0.32
   1   6  -2    6.98    0.32
   1   6  -2    6.65    0.29
   1  -6   2    7.25    0.32
   1  -6  -2    6.68    0.25
  -1  -6   2    6.62    0.27
   1   6   2    6.79    0.26
   1  -6  -2    7.09    0.22
  -1   6  -2    6.82    0.32
   1   6   2    6.69    0.26
  -1   6  -2    6.78    0.28
  -1  -6   2    7.12    0.32
  -1  -6   2    6.91    0.30
  -1   6  -2    6.88    0.31
  -1   6   3   20.08    0.55
   1   6  -3   19.77    0.68
   1   6  -3   19.91    0.63
  -1  -6  -3   20.39    0.58
   1  -6   3   20.25    0.68
  -1  -6  -3   19.69    0.58
   1   6  -3   19.59    0.67
   1  -6   3   20.29    0.68
  -1   6   3   19.57    0.54
  -1   6   3   19.88    0.54
   1  -6   3   19.03    0.60
  -1   6  -3   20.02    0.67
  -1  -6   3   20.01    0.67
  -1   6  -3   19.20    0.68
  -1   6  -3   19.13    0.63
   1   6   3   19.69    0.59
  -1  -6   3   20.08    0.60
   1   6   3   19.81    0.59
   1   6   3   19.45    0.60
   1  -6  -3   20.07    0.56
   1  -6   4    3.69    0.39
   1  -6   4    4.55    0.31
  -1   6   4    4.10    0.24
   1  -6   4    4.44    0.41
  -1  -6  -4    3.77    0.27
  -1   6   4    4.41    0.24
  -1   6   4    4.15    0.20
   1   6  -4    3.87    0.42
   1   6  -4    4.31    0.32
   1   6  -4    4.60    0.39
  -1  -6  -4    4.32    0.31
  -1   6  -4    3.77    0.41
  -1  -6   4    3.70    0.34
   1   6   4    4.03    0.28
  -1  -6   4    4.68    0.39
   1   6   4    3.55    0.29
  -1   6  -4    4.60    0.43
  -1  -6   4    4.96    0.29
  -1   6  -4    4.32    0.31
   1  -6  -4    3.98    0.26
   1  -6   5    9.63    0.69
  -1  -6  -5    9.92    0.52
  -1   6  -5    9.00    0.56
   1  -6  -5    9.44    0.49
   2   6   0   32.34    0.88
   2   6   0   33.10    0.88
  -2  -6   0   31.39    0.89
   2  -6   0   33.67    0.88
  -2   6   0   33.22    0.85
   2  -6   0   34.32    0.89
   2   6   0   33.27    0.90
  -2   6   0   34.41    0.87
   2  -6   0   33.11    0.86
  -2   6   0   33.59    0.88
  -2  -6   0   33.75    0.88
  -2  -6   0   32.30    0.90
   2  -6   1   34.82    0.94
  -2   6   1   33.51    0.85
   2  -6   1   31.91    0.92
  -2  -6  -1   34.01    0.92
  -2   6   1   34.64    0.86
  -2  -6  -1   33.52    0.88
   2   6  -1   31.93    0.92
   2   6  -1   34.09    0.92
   2   6  -1   33.28    0.91
  -2  -6  -1   33.93    0.90
  -2  -6   1   32.90    0.90
  -2   6  -1   34.02    0.89
  -2   6  -1   34.19    0.93
   2  -6  -1   34.38    0.87
  -2  -6   1   32.47    0.93
  -2   6  -1   35.02    0.92
   2  -6  -1   34.06    0.88
   2  -6  -1   34.36    0.85
   2   6   1   33.26    0.88
   2   6   1   34.84    0.92
  -2  -6   1   32.73    0.92
  -2  -6  -2   22.14    0.62
   2   6  -2   21.36    0.65
   2  -6   2   22.40    0.70
  -2  -6  -2   21.84    0.62
   2   6  -2   22.13    0.69
   2  -6   2   21.70    0.68
  -2   6   2   22.59    0.56
  -2   6   2   22.00    0.57
  -2   6   2   22.64    0.56
  -2   6   2   22.16    0.57
   2   6  -2   22.52    0.68
  -2  -6   2   21.02    0.63
   2  -6  -2   21.94    0.59
  -2  -6   2   20.84    0.67
   2  -6  -2   22.40    0.57
  -2   6  -2   22.32    0.65
   2   6   2   21.60    0.64
  -2   6  -2   22.88    0.69
  -2   6   3   17.39    0.48
  -2   6   3   18.02    0.48
   2   6  -3   18.03    0.63
   2  -6   3   17.24    0.57
   2   6  -3   18.69    0.64
  -2  -6  -3   17.56    0.55
   2   6  -3   18.30    0.59
   2  -6   3   17.29    0.63
   2  -6   3   18.86    0.65
  -2  -6  -3   18.06    0.55
   2   6   3   17.84    0.56
  -2  -6   3   17.08    0.61
  -2   6  -3   16.90    0.63
  -2  -6   3   17.97    0.61
  -2   6  -3   18.09    0.63
  -2   6  -3   17.72    0.58
   2   6   3   17.59    0.57
   2   6   3   18.01    0.57
   2  -6  -3   17.50    0.49
  -2  -6   3   17.63    0.54
   2   6  -4   11.91    0.57
   2   6  -4    9.64    0.53
  -2   6   4   11.03    0.34
  -2  -6  -4    9.86    0.43
  -2  -6  -4   10.43    0.46
   2  -6   4   10.68    0.55
   2  -6   4   10.56    0.46
   2   6  -4   10.91    0.49
   2  -6   4   11.15    0.55
  -2   6   4   10.05    0.33
   2   6   4   10.17    0.44
  -2  -6   4   11.53    0.52
   2  -6  -4   10.94    0.39
   2   6   4   10.45    0.46
  -2   6  -4   10.56    0.46
  -2  -6   4   10.82    0.40
  -2   6  -4   10.85    0.58
  -2  -6   4   10.64    0.49
  -2  -6  -5    8.69    0.52
   2  -6   5    8.86    0.71
   2   6  -5    8.65    0.58
   2  -6  -5    8.06    0.47
  -2   6  -5    7.62    0.51
   3  -6   0    0.36    0.06
  -3  -6   0    0.33    0.07
   3  -6   0    0.42    0.07
   3   6   0    0.23    0.06
   3   6   0    0.27    0.06
  -3   6   0    0.36    0.06
  -3  -6   0    0.27    0.07
  -3   6   0    0.35    0.06
  -3  -6   0    0.46    0.09
  -3   6   0    0.38    0.07
   3   6   0    0.22    0.06
   3  -6   0    0.34    0.07
   3   6  -1   -0.05    0.06
   3   6  -1    0.26    0.08
   3   6  -1    0.04    0.06
  -3  -6  -1   -0.06    0.06
   3  -6   1   -0.04    0.06
  -3   6   1    0.01    0.03
  -3  -6  -1    0.01    0.06
   3  -6   1   -0.04    0.06
   3  -6   1   -0.03    0.06
  -3  -6   1    0.02    0.06
  -3   6  -1    0.00    0.05
   3  -6  -1    0.02    0.04
  -3  -6   1   -0.15    0.06
  -3   6  -1    0.08    0.07
   3  -6  -1    0.03    0.04
   3  -6  -1    0.01    0.05
   3   6   1   -0.06    0.06
   3   6   1   -0.06    0.05
  -3  -6   1    0.06    0.08
   3   6  -2    0.47    0.11
   3   6  -2    0.34    0.10
  -3  -6  -2    0.41    0.09
   3  -6   2    0.25    0.10
   3  -6   2    0.26    0.11
  -3  -6  -2    0.34    0.08
   3   6  -2    0.19    0.10
   3   6   2    0.26    0.08
  -3  -6   2    0.24    0.11
  -3  -6   2    0.29    0.09
  -3  -6   2    0.27    0.07
   3  -6  -2    0.33    0.04
   3  -6  -2    0.29    0.05
  -3   6  -2    0.25    0.07
   3   6   2    0.39    0.10
  -3   6  -2    0.33    0.09
   3   6  -3    0.01    0.12
   3  -6   3    0.00    0.13
   3   6  -3   -0.02    0.11
  -3  -6  -3    0.00    0.08
  -3  -6  -3   -0.01    0.11
   3  -6   3    0.07    0.10
   3  -6   3   -0.06    0.13
   3  -6  -3   -0.04    0.06
  -3   6  -3    0.13    0.15
  -3  -6   3    0.04    0.12
  -3   6  -3   -0.12    0.14
   3   6   3    0.10    0.11
  -3  -6   3    0.06    0.12
  -3   6  -3   -0.17    0.08
  -3  -6   3    0.04    0.08
   3   6  -4    0.02    0.19
   3  -6   4    0.04    0.21
   3   6  -4    0.09    0.15
   3  -6   4    0.12    0.19
   3   6  -4    0.00    0.23
   3  -6   4    0.18    0.24
  -3  -6  -4   -0.07    0.13
   3   6   4    0.17    0.16
   3   6   4    0.18    0.17
  -3  -6   4    0.09    0.11
  -3   6  -4    0.01    0.14
  -3   6  -4    0.33    0.26
  -3  -6   4    0.18    0.19
  -3   6  -4    0.49    0.24
   3  -6  -4    0.35    0.10
   3   6  -5   -0.35    0.24
  -3  -6  -5    0.22    0.24
  -3   6  -5    0.33    0.24
  -4   6   0    0.70    0.08
   4  -6   0    0.68    0.09
  -4  -6   0    0.82    0.11
   4   6   0    0.69    0.10
  -4   6   0    0.82    0.09
   4   6   0    0.85    0.11
  -4   6   0    0.64    0.08
   4  -6   0    0.84    0.09
   4  -6   0    0.62    0.08
  -4  -6   0    0.73    0.11
  -4  -6  -1   26.66    0.78
   4  -6   1   25.83    0.78
   4  -6   1   27.03    0.77
   4   6  -1   28.11    0.77
  -4  -6  -1   27.45    0.77
   4   6  -1   26.50    0.78
   4   6  -1   27.87    0.78
  -4   6   1   27.20    0.69
   4  -6  -1   27.62    0.72
  -4   6  -1   26.21    0.73
   4   6   1   27.96    0.79
   4  -6  -1   27.02    0.69
   4   6   1   27.92    0.77
  -4  -6   1   26.46    0.77
  -4   6  -1   26.78    0.76
   4  -6  -1   27.39    0.71
   4   6   1   26.91    0.75
  -4  -6  -2    0.50    0.09
   4   6  -2    0.43    0.10
   4  -6   2    0.48    0.12
   4  -6   2    0.67    0.13
   4   6  -2    0.73    0.13
   4   6  -2    0.54    0.11
  -4   6  -2    0.46    0.10
   4   6   2    0.81    0.12
   4  -6  -2    0.56    0.05
  -4   6  -2    0.52    0.13
  -4  -6   2    0.67    0.10
  -4  -6   2    0.49    0.12
  -4  -6   2    0.43    0.09
   4   6   2    0.63    0.12
   4   6  -3   16.71    0.57
  -4  -6  -3   16.22    0.55
   4   6  -3   16.29    0.61
   4  -6   3   16.41    0.63
  -4  -6  -3   17.01    0.54
   4   6  -3   15.76    0.60
   4  -6   3   16.16    0.55
   4  -6   3   15.82    0.60
   4   6   3   15.37    0.56
  -4  -6   3   15.81    0.56
  -4   6  -3   16.73    0.62
  -4   6  -3   16.68    0.62
  -4  -6   3   17.51    0.59
   4  -6  -3   15.43    0.43
  -4   6  -3   15.65    0.55
  -4  -6   3   15.72    0.49
   4   6   3   15.83    0.56
   4   6  -4    0.11    0.20
   4   6  -4    0.28    0.24
   4  -6   4    0.02    0.20
   4  -6   4    0.07    0.23
  -4  -6  -4    0.16    0.14
   4   6  -4    0.12    0.16
  -4   6  -4   -0.45    0.28
   4   6   4    0.40    0.19
  -4  -6   4   -0.07    0.16
  -4   6  -4   -0.22    0.26
   4  -6  -4    0.18    0.11
   4   6   4    0.34    0.19
  -4   6  -4   -0.02    0.15
  -4  -6   4    0.46    0.10
  -4  -6   4   -0.08    0.18
  -4  -6  -5    7.54    0.54
   4  -6   5    8.18    0.73
   4   6  -5    8.86    0.59
  -4   6  -5    7.97    0.53
   5  -6   0   28.74    0.77
  -5   6   0   28.24    0.76
   5  -6   0   29.03    0.75
  -5  -6   0   29.09    0.80
  -5   6   0   28.25    0.72
   5  -6   0   28.40    0.78
   5   6   0   25.63    0.78
  -5   6   0   27.08    0.75
  -5  -6   0   28.12    0.81
   5   6   0   27.65    0.80
   5   6  -1   54.94    1.49
  -5   6   1   57.78    1.41
  -5  -6  -1   58.42    1.53
   5  -6   1   54.70    1.49
   5   6  -1   59.58    1.51
  -5  -6  -1   55.57    1.46
  -5  -6  -1   59.08    1.51
   5   6  -1   59.04    1.53
  -5   6   1   58.09    1.41
   5  -6   1   58.19    1.52
   5  -6  -1   58.19    1.40
  -5   6  -1   57.17    1.45
  -5  -6   1   58.73    1.49
   5  -6  -1   58.52    1.43
   5   6   1   56.97    1.48
   5  -6  -1   57.86    1.45
  -5  -6   1   56.66    1.50
   5   6   1   55.04    1.52
   5   6  -2   21.08    0.65
   5   6  -2   20.99    0.68
   5  -6   2   20.90    0.68
  -5  -6  -2   19.61    0.62
   5   6  -2   20.99    0.67
   5  -6   2   20.26    0.68
  -5  -6   2   20.39    0.60
  -5  -6   2   20.85    0.65
  -5  -6   2   20.19    0.65
   5   6   2   21.40    0.67
  -5   6  -2   21.19    0.67
   5   6   2   20.93    0.66
   5   6  -3   33.86    0.98
  -5  -6  -3   31.95    0.94
   5   6  -3   34.59    1.03
   5  -6   3   33.16    1.02
   5  -6   3   32.54    1.04
   5   6  -3   32.12    1.01
  -5  -6   3   32.81    0.97
  -5   6  -3   32.63    0.96
  -5   6  -3   32.85    1.02
  -5   6  -3   34.59    1.04
   5   6   3   33.10    0.99
   5   6   3   32.74    0.99
   5   6  -4   12.14    0.62
   5   6  -4   11.19    0.59
   5  -6   4   11.14    0.63
  -5  -6  -4   11.86    0.51
   5  -6   4   11.95    0.60
  -5   6  -4   13.34    0.67
  -5  -6   4   11.70    0.52
  -5  -6   4   11.81    0.54
  -5   6  -4   10.82    0.51
   5   6   4   11.28    0.56
  -5  -6   4   12.11    0.34
   5   6   4   12.32    0.57
   5  -6  -4   12.04    0.38
  -5  -6  -5   16.23    0.73
   5  -6   5   16.93    0.94
   5   6  -5   15.87    0.77
  -5   6  -5   16.13    0.73
   6   6   0   42.33    1.14
  -6  -6   0   41.00    1.14
  -6   6   0   41.34    1.03
   6  -6   0   41.45    1.08
   6   6   0   39.85    1.11
  -6  -6   0   40.96    1.12
  -6   6   0   40.59    1.03
   6  -6   0   41.04    1.10
   6  -6   0   41.73    1.07
   6  -6   1   22.63    0.70
   6  -6   1   23.48    0.72
  -6  -6  -1   24.02    0.68
   6   6  -1   22.96    0.72
  -6  -6  -1   24.04    0.72
  -6   6   1   24.09    0.61
   6   6  -1   22.82    0.70
   6   6  -1   24.32    0.72
  -6   6   1   23.49    0.61
  -6  -6  -1   23.82    0.73
   6   6   1   23.29    0.73
   6  -6  -1   23.75    0.63
   6  -6  -1   23.49    0.64
  -6   6  -1   23.66    0.71
  -6  -6   1   24.33    0.70
   6  -6  -1   23.59    0.62
   6   6   1   24.59    0.73
  -6   6  -1   23.36    0.66
  -6  -6   1   24.11    0.71
   6   6   1   24.32    0.72
   6   6   1   22.65    0.70
   6   6  -2   32.39    0.94
  -6  -6  -2   31.47    0.91
   6  -6   2   31.97    0.97
   6   6  -2   33.06    0.96
   6  -6   2   32.07    0.96
   6   6  -2   32.56    0.97
   6   6   2   31.29    0.96
  -6   6  -2   32.84    0.97
  -6  -6   2   32.35    0.87
  -6  -6   2   32.41    0.93
  -6  -6   2   32.40    0.93
   6   6   2   31.50    0.94
  -6   6  -2   33.60    0.91
   6  -6   3   16.40    0.62
   6   6  -3   16.15    0.62
   6  -6   3   16.48    0.64
  -6  -6  -3   15.87    0.55
   6   6  -3   15.40    0.61
   6   6  -3   15.93    0.58
   6   6   3   15.50    0.60
  -6   6  -3   15.16    0.55
   6   6   3   15.17    0.59
  -6   6  -3   14.55    0.63
  -6  -6   3   14.63    0.45
  -6  -6   3   15.77    0.57
   6  -6   4   17.79    0.80
  -6  -6  -4   16.53    0.64
   6  -6   4   16.98    0.74
   6  -6  -4   17.91    0.49
  -6   6  -4   17.76    0.66
   6   6   4   17.23    0.71
   6   6   4   17.21    0.72
  -6   6  -4   16.83    0.80
  -6  -6   4   17.94    0.68
   6   6  -5    7.74    0.64
  -6  -6  -5    8.41    0.59
   6  -6   5    7.05    0.73
  -7   6   0    1.67    0.11
  -7   6   0    1.66    0.15
   7   6   0    1.69    0.18
  -7  -6   0    1.60    0.19
  -7   6   0    1.59    0.11
  -7  -6   0    1.67    0.14
   7  -6   0    1.81    0.15
   7  -6   0    1.56    0.15
  -7  -6   0    1.55    0.18
   7   6   0    1.13    0.14
  -7  -6   0    1.64    0.18
   7   6   0    1.65    0.18
   7  -6   0    1.67    0.15
   7  -6   1    0.32    0.11
  -7   6   1    0.27    0.06
  -7  -6  -1    0.42    0.12
   7   6  -1    0.36    0.12
  -7  -6  -1    0.43    0.10
   7  -6   1    0.24    0.10
   7   6  -1    0.21    0.10
   7  -6  -1    0.32    0.07
   7   6   1    0.35    0.10
   7   6   1    0.40    0.11
  -7  -6   1    0.33    0.12
  -7  -6   1    0.34    0.12
   7  -6  -1    0.35    0.08
   7   6   1    0.27    0.11
   7  -6  -1    0.28    0.07
  -7  -6   1    0.25    0.08
   7   6   1    0.38    0.10
  -7   6  -1    0.39    0.09
   7   6  -2    1.47    0.18
  -7  -6  -2    1.18    0.14
   7   6  -2    1.12    0.19
   7   6  -2    1.51    0.20
   7  -6   2    1.42    0.18
   7  -6   2    1.46    0.19
  -7  -6   2    1.75    0.17
  -7   6  -2    1.49    0.17
  -7   6  -2    1.90    0.21
  -7  -6   2    1.31    0.16
   7   6   2    1.61    0.20
   7   6   2    1.93    0.22
  -7  -6   2    1.72    0.14
  -7  -6   2    1.73    0.19
   7   6  -3    0.69    0.19
  -7  -6  -3    0.25    0.12
   7  -6   3    0.31    0.17
   7   6  -3    0.59    0.17
   7   6  -3    0.27    0.21
   7  -6   3    0.47    0.17
  -7  -6   3    0.42    0.09
  -7  -6   3    0.35    0.15
  -7  -6   3    0.29    0.15
  -7   6  -3    0.45    0.22
   7   6   3    0.28    0.18
  -7   6  -3    0.36    0.13
  -7  -6   3    0.37    0.09
   7   6   3    0.38    0.18
   7  -6   4    0.89    0.27
   7  -6   4    0.92    0.33
  -7  -6  -4    1.46    0.22
   7   6  -4    1.54    0.28
  -7  -6   4    1.09    0.24
   7   6   4    1.28    0.29
  -8   6   0    0.30    0.09
  -8   6   0    0.30    0.07
   8  -6   0    0.20    0.08
  -8  -6   0    0.25    0.11
  -8  -6   0    0.24    0.12
  -8  -6   0    0.18    0.08
  -8   6   0    0.28    0.06
  -8  -6   0    0.30    0.12
   8   6   0    0.07    0.11
   8  -6   0    0.17    0.07
   8   6   0    0.26    0.10
   8   6   0    0.35    0.11
   8  -6   0    0.04    0.09
  -8  -6  -1    0.61    0.11
   8  -6   1    0.70    0.12
   8   6  -1    0.89    0.13
   8   6  -1    1.07    0.15
  -8   6   1    0.86    0.09
   8  -6   1    0.67    0.12
   8   6  -1    0.64    0.12
   8  -6  -1    0.76    0.10
   8   6   1    0.92    0.14
  -8  -6   1    0.89    0.14
   8  -6  -1    0.72    0.09
   8   6   1    1.02    0.17
   8   6   1    0.86    0.16
  -8  -6   1    0.72    0.15
  -8   6  -1    0.78    0.11
   8  -6  -1    0.73    0.10
   8   6   1    0.80    0.14
  -8  -6   1    0.93    0.11
   8  -6   2    0.20    0.13
  -8  -6  -2    0.46    0.12
   8   6  -2    0.28    0.15
   8   6  -2    0.22    0.17
   8   6  -2    0.29    0.13
   8  -6   2    0.02    0.13
   8  -6  -2    0.17    0.06
  -8   6  -2    0.13    0.15
   8   6   2    0.33    0.15
   8   6   2    0.31    0.14
  -8  -6   2    0.31    0.10
  -8  -6   2    0.32    0.12
  -8  -6   2    0.14    0.13
  -8  -6   2    0.16    0.08
   8   6   2    0.36    0.15
  -8   6  -2    0.19    0.09
   8   6  -3    0.57    0.18
   8   6  -3    0.94    0.25
   8   6  -3    0.63    0.19
  -8  -6  -3    0.66    0.15
   8  -6   3    0.44    0.21
   8   6   3    0.58    0.23
  -8  -6   3    0.48    0.16
   8   6   3    0.50    0.20
  -8  -6   3    0.45    0.16
  -8   6  -3    0.46    0.13
  -8   6  -3    0.88    0.27
  -8  -6   3    0.68    0.09
  -8  -6   3    0.63    0.08
   8  -6   4   -0.06    0.26
  -8  -6  -4    0.31    0.19
   8  -6   4    0.07    0.31
   8   6  -4    0.34    0.25
  -8   6  -4    0.02    0.18
   8   6   4   -0.06    0.28
   9   6   0    1.97    0.22
  -9  -6   0    2.36    0.24
  -9  -6   0    1.63    0.19
  -9   6   0    1.66    0.13
   9   6   0    1.73    0.20
  -9  -6   0    1.90    0.18
   9  -6   0    2.05    0.18
   9   6   0    2.09    0.24
   9  -6   0    1.75    0.17
   9  -6   0    1.61    0.17
  -9   6   0    1.92    0.13
  -9  -6   0    1.71    0.19
  -9   6   0    1.58    0.18
   9   6  -1    0.46    0.12
   9   6  -1    0.27    0.14
   9   6  -1    0.82    0.17
   9  -6   1    0.59    0.13
   9  -6   1    0.55    0.13
  -9  -6  -1    0.68    0.14
   9  -6  -1    0.46    0.10
   9   6   1    0.58    0.14
   9  -6  -1    0.46    0.10
  -9  -6   1    0.61    0.10
   9   6   1    0.85    0.17
   9   6   1    1.24    0.18
   9   6   1    0.54    0.14
  -9   6  -1    0.56    0.11
   9  -6  -1    0.68    0.10
  -9   6  -1    0.79    0.13
  -9  -6   1    0.44    0.12
  -9  -6   1    0.33    0.15
  -9  -6  -2    1.28    0.17
   9  -6   2    1.32    0.20
   9   6  -2    1.45    0.19
   9  -6   2    1.48    0.21
   9   6  -2    1.59    0.23
   9  -6  -2    1.59    0.13
  -9  -6   2    1.42    0.19
  -9  -6   2    1.43    0.15
  -9  -6   2    1.72    0.18
   9   6   2    1.60    0.25
   9   6   2    1.15    0.20
  -9  -6   2    1.63    0.19
  -9   6  -2    1.28    0.15
   9   6   2    1.79    0.23
   9   6  -3    0.64    0.21
   9   6  -3    0.52    0.27
   9  -6   3    0.46    0.21
  -9  -6  -3    0.23    0.17
   9  -6   3    0.38    0.22
  -9  -6   3    0.43    0.18
   9   6   3    0.60    0.24
   9   6   3    0.22    0.22
  -9  -6   3    0.58    0.18
  -9   6  -3    0.39    0.14
   9  -6   4    1.04    0.37
   9  -6   4    0.85    0.32
   9   6  -4    1.03    0.29
  -9  -6  -4    0.65    0.21
   9   6   4    0.78    0.34
  10  -6   0    9.00    0.37
  10  -6   0    8.69    0.36
  10   6   0    9.26    0.44
 -10  -6   0    9.19    0.43
 -10   6   0    9.12    0.29
 -10  -6   0    8.50    0.43
  10   6   0    9.04    0.40
  10   6   0    8.25    0.40
  10   6   0    9.02    0.42
  10  -6   0    8.78    0.37
 -10   6   0    8.70    0.29
 -10   6   0    8.70    0.37
  10   6   0    8.25    0.41
 -10  -6   0    9.48    0.36
  10  -6   1    0.24    0.13
  10  -6   1    0.39    0.13
 -10  -6  -1    0.32    0.12
  10   6  -1    0.34    0.15
  10   6  -1    0.21    0.15
  10   6  -1    0.26    0.14
  10   6   1    0.24    0.14
 -10  -6   1    0.85    0.16
  10   6   1    0.08    0.11
  10  -6  -1    0.29    0.09
  10  -6  -1    0.31    0.09
 -10   6  -1    0.25    0.12
 -10   6  -1    0.28    0.09
  10   6   1    0.47    0.17
 -10  -6   1    0.15    0.15
  10  -6  -1    0.31    0.09
 -10  -6   1    0.21    0.13
  10   6   1    0.35    0.15
  10  -6  -1    0.27    0.09
 -10  -6   1    0.18    0.09
  10   6  -2    7.56    0.46
 -10  -6  -2    6.76    0.37
  10   6  -2    6.98    0.43
  10  -6   2    7.78    0.44
  10  -6   2    7.02    0.39
  10   6  -2    7.79    0.39
  10  -6  -2    7.08    0.24
 -10   6  -2    7.47    0.35
  10   6   2    7.30    0.49
 -10  -6   2    7.57    0.29
  10  -6  -2    7.60    0.26
 -10  -6   2    7.16    0.39
  10  -6  -2    7.53    0.27
  10   6   2    7.29    0.44
  10   6   2    7.45    0.43
  10  -6   3   -0.17    0.21
  10   6  -3    0.13    0.19
  10   6  -3   -0.03    0.21
 -10  -6  -3   -0.01    0.15
  10  -6   3    0.38    0.23
 -10  -6   3    0.20    0.19
  10   6   3    0.34    0.21
  10   6   3   -0.57    0.20
 -10   6  -3    0.03    0.15
  10  -6   4    3.69    0.48
  10   6  -4    4.35    0.42
  10  -6   4    4.65    0.50
 -10  -6  -4    5.10    0.45
  10   6   4    3.83    0.48
 -10   6  -4    4.01    0.44
  11   6   0    3.83    0.30
 -11  -6   0    3.35    0.35
  11  -6   0    3.69    0.26
 -11   6   0    3.75    0.17
  11   6   0    3.71    0.34
  11  -6   0    2.71    0.25
 -11  -6   0    3.81    0.25
 -11   6   0    3.52    0.18
  11   6   0    3.74    0.35
  11   6   0    3.29    0.28
  11   6   0    4.11    0.32
  11  -6   0    3.28    0.25
  11   6  -1   39.70    1.17
  11  -6   1   39.83    1.19
 -11  -6  -1   41.54    1.14
  11   6  -1   40.10    1.20
  11   6  -1   41.06    1.21
 -11   6  -1   39.68    1.11
 -11  -6   1   40.04    1.15
  11   6   1   41.02    1.24
  11   6   1   39.58    1.23
  11  -6  -1   41.44    1.09
 -11  -6   1   41.39    1.20
  11   6   1   39.99    1.21
  11   6   1   40.02    1.21
  11  -6  -1   40.56    1.08
  11  -6  -1   39.86    1.12
 -11  -6   1   40.04    1.17
 -11  -6   1   39.57    1.08
  11  -6  -1   40.88    1.10
  11  -6  -1   38.97    1.09
 -11   6  -1   40.64    1.09
 -11  -6  -2    2.86    0.28
  11  -6   2    3.59    0.32
  11   6  -2    3.68    0.39
  11   6  -2    3.07    0.35
  11   6  -2    2.81    0.30
  11  -6  -2    3.40    0.21
 -11  -6   2    3.88    0.32
  11   6   2    3.41    0.39
  11  -6  -2    3.21    0.18
 -11  -6   2    3.14    0.20
  11   6   2    2.90    0.35
  11   6   2    3.40    0.36
  11  -6  -2    3.71    0.23
  11   6  -3   27.38    0.93
  11  -6   3   28.92    1.03
  11  -6   3   26.12    0.98
 -11   6  -3   27.99    0.91
  11   6   3   27.37    1.00
 -11  -6   3   26.95    0.91
  11   6   3   26.96    1.03
  11   6  -4    3.85    0.44
  11  -6   4    3.73    0.47
  11  -6   4    3.25    0.51
  11   6   4    2.74    0.48
  12  -6   0   40.69    1.17
 -12   6   0   42.00    1.02
  12   6   0   40.78    1.24
 -12  -6   0   40.84    1.22
  12  -6   0   41.60    1.16
 -12  -6   0   41.39    1.13
  12   6   0   39.27    1.25
  12  -6   0   40.07    1.15
  12   6   0   40.97    1.24
  12   6   0   39.63    1.20
 -12   6   0   41.72    1.03
  12   6   0   40.49    1.22
  12   6  -1   18.99    0.74
  12  -6   1   18.22    0.68
 -12  -6  -1   19.02    0.65
  12   6  -1   19.36    0.70
  12  -6   1   18.75    0.69
  12   6  -1   18.11    0.73
  12   6  -1   17.80    0.68
  12  -6  -1   18.78    0.61
  12   6   1   20.47    0.78
 -12   6  -1   18.53    0.63
  12  -6  -1   19.39    0.60
  12  -6  -1   18.88    0.64
  12   6   1   19.17    0.74
  12  -6  -1   18.68    0.61
  12   6   1   18.69    0.72
 -12  -6   1   19.10    0.69
 -12   6  -1   19.14    0.60
 -12  -6   1   19.00    0.59
  12  -6  -1   19.66    0.61
  12   6  -2   32.57    1.05
  12  -6   2   33.66    1.08
  12   6  -2   33.95    1.13
  12   6  -2   33.94    1.15
 -12  -6  -2   34.42    1.03
  12  -6   2   33.80    1.11
  12   6   2   33.74    1.12
  12  -6  -2   33.75    0.93
  12  -6  -2   33.01    0.91
  12  -6  -2   33.69    0.93
  12   6   2   33.81    1.14
 -12  -6   2   35.49    0.89
 -12   6  -2   34.20    1.00
 -12  -6   2   34.69    1.04
 -12  -6   2   33.09    1.03
  12  -6   3   13.62    0.73
  12   6  -3   13.82    0.64
  12  -6   3   13.14    0.70
 -12   6  -3   14.27    0.61
  12   6   3   13.37    0.78
  12   6   3   13.32    0.72
  13   6   0    1.61    0.29
  13  -6   0    1.58    0.25
  13  -6   0    1.80    0.22
  13  -6   0    1.46    0.20
 -13  -6   0    1.37    0.18
  13   6   0    1.40    0.23
  13   6   0    1.40    0.23
  13   6   0    1.76    0.29
  13   6   0    1.76    0.24
  13  -6   1    0.15    0.16
  13   6  -1    0.24    0.19
  13   6  -1    0.71    0.27
  13  -6   1    0.11    0.17
 -13  -6  -1   -0.09    0.13
  13   6  -1    0.38    0.26
  13   6  -1    0.36    0.18
  13   6  -1    0.29    0.18
 -13   6  -1    0.15    0.13
  13  -6  -1    0.03    0.17
 -13  -6   1    0.20    0.12
  13  -6  -1    0.70    0.19
 -13   6  -1    0.16    0.19
  13   6   1    0.63    0.28
  13   6   1   -0.01    0.18
  13  -6  -1    0.40    0.18
  13   6   1    0.38    0.20
 -13  -6   1    0.61    0.24
  13  -6  -1    0.18    0.13
 -13  -6  -2    1.70    0.24
  13  -6   2    2.05    0.30
  13  -6   2    1.44    0.26
  13  -6  -2    1.58    0.16
 -13  -6   2    1.69    0.15
  13   6   2    1.88    0.32
 -13   6  -2    1.21    0.20
  13  -6  -2    1.87    0.20
  13   6  -3    0.09    0.27
  13  -6   3    0.19    0.31
  13  -6   3   -0.37    0.28
 -13   6  -3    0.26    0.24
  13   6   3   -0.30    0.33
  13   6   3    0.56    0.35
  14  -6   0    0.64    0.18
  14   6   0    0.60    0.21
  14   6   0    0.53    0.21
  14   6   0    0.70    0.20
  14  -6   0    0.40    0.16
 -14  -6   0    0.82    0.18
  14   6  -1    8.01    0.49
  14   6  -1    7.96    0.51
  14  -6   1    8.09    0.48
  14  -6   1    8.13    0.49
 -14  -6  -1    8.53    0.45
  14   6  -1    8.19    0.48
 -14   6  -1    8.26    0.38
  14  -6  -1    7.71    0.48
 -14  -6   1    7.70    0.37
  14   6   1    7.32    0.50
  14   6   1    8.23    0.54
  14  -6  -1    8.16    0.40
  14  -6  -1    8.59    0.41
 -14  -6  -2    0.58    0.22
  14   6  -2    0.53    0.25
  14   6  -2    0.78    0.24
  14  -6   2    0.92    0.28
  14  -6   2    0.98    0.27
  14   6  -2    0.46    0.23
  14  -6  -2    0.73    0.20
 -14   6  -2    0.52    0.19
  14   6   2    0.98    0.33
  14   6   2    0.19    0.27
  14  -6  -2    0.45    0.15
  14  -6   3    4.31    0.48
  14   6  -3    4.99    0.51
  14   6  -3    4.79    0.46
  14  -6   3    6.06    0.70
  14   6   3    4.14    0.50
  14   6   3    4.64    0.54
 -14   6  -3    5.04    0.49
 -15  -6   0    7.46    0.44
  15   6   0    7.57    0.55
  15   6   0    8.58    0.53
  15   6   0    8.30    0.51
  15  -6   0    7.92    0.47
  15  -6   0    7.48    0.47
  15  -6   1    4.53    0.44
  15   6  -1    4.34    0.45
 -15  -6  -1    4.02    0.39
  15   6  -1    3.89    0.43
  15   6  -1    4.29    0.46
  15  -6   1    3.69    0.41
 -15  -6   1    3.64    0.32
 -15   6  -1    3.43    0.31
  15   6   1    3.78    0.42
  15  -6  -1    3.21    0.29
  15  -6  -1    3.81    0.34
  15   6   1    2.98    0.36
  15  -6   2    6.81    0.62
  15  -6   2    7.76    0.56
  15   6  -2    6.23    0.55
  15   6  -2    6.61    0.53
  15   6  -2    7.64    0.56
 -15  -6  -2    7.30    0.51
  15   6   2    6.31    0.64
 -15   6  -2    6.73    0.46
  15   6   2    7.16    0.68
  16   6   0    0.90    0.30
 -16  -6   0    0.18    0.23
  16  -6   0    0.87    0.26
  16   6   0    0.47    0.28
  16   6   0    0.02    0.26
  16  -6   0    0.70    0.23
  16   6  -1   -0.06    0.26
  16   6  -1   -0.17    0.24
  16  -6   1   -0.21    0.26
  16   6  -1    0.50    0.27
  16  -6   1    0.40    0.25
 -16  -6  -1   -0.08    0.23
  16   6   1   -0.09    0.28
  16  -6  -1    0.11    0.23
  16  -6  -1    0.27    0.20
  16   6   1    0.17    0.31
  17   6   0    0.22    0.33
   0   7   0   -0.18    0.05
   0  -7   0   -0.17    0.05
   0  -7   0   -0.02    0.07
   0   7   0   -0.17    0.05
   0  -7   0   -0.07    0.06
   0   7   0   -0.08    0.05
   0   7   1   -0.06    0.05
   0  -7   1   -0.04    0.07
   0  -7   1   -0.19    0.06
   0  -7  -1   -0.10    0.05
   0   7   1    0.12    0.06
   0  -7  -1   -0.11    0.07
   0  -7  -1   -0.12    0.05
   0   7  -1   -0.13    0.06
   0  -7   1   -0.17    0.07
   0   7  -1   -0.11    0.05
   0   7  -2    0.04    0.09
   0  -7   2   -0.02    0.11
   0  -7  -2    0.02    0.06
   0   7  -2   -0.04    0.10
   0   7   2    0.00    0.06
   0  -7   2    0.01    0.10
   0   7   2   -0.03    0.06
   0  -7   2   -0.02    0.08
   0   7  -2   -0.08    0.07
   0  -7  -2    0.00    0.06
   0   7   2   -0.05    0.06
   0   7  -3    0.10    0.16
   0   7   3   -0.05    0.07
   0  -7  -3    0.02    0.08
   0   7  -3   -0.03    0.11
   0  -7   3    0.18    0.14
   0   7   3    0.11    0.09
   0  -7   3    0.10    0.15
   0   7   3    0.06    0.09
   0   7  -3   -0.21    0.13
   0  -7  -3    0.09    0.08
   0  -7   3    0.10    0.11
   0   7  -4    0.05    0.22
   0  -7   4    0.30    0.21
   0   7   4    0.04    0.12
   0  -7   4   -0.26    0.15
   0   7   4    0.01    0.14
   0   7  -4   -0.08    0.14
   0   7  -4   -0.23    0.24
   0  -7  -4   -0.03    0.11
   0   7   4    0.09    0.13
   0  -7   4    0.14    0.20
   0  -7  -4   -0.09    0.14
   0   7  -5    0.09    0.26
   0  -7   5    0.48    0.37
   1   7   0    9.73    0.34
  -1   7   0   10.49    0.34
  -1   7   0   10.35    0.34
   1  -7   0   10.79    0.36
  -1  -7   0   10.45    0.36
  -1  -7   0   10.36    0.35
   1  -7   0   10.70    0.34
  -1   7   0   10.41    0.34
   1   7   0   10.34    0.35
   1  -7   0    9.86    0.36
  -1  -7   0   10.33    0.36
   1   7   0   10.51    0.35
   1   7  -1    0.71    0.11
  -1  -7  -1    0.66    0.10
   1   7  -1    0.47    0.09
  -1  -7  -1    0.68    0.10
  -1  -7  -1    0.58    0.08
  -1   7   1    0.65    0.06
   1  -7   1    0.52    0.11
  -1   7   1    0.72    0.08
   1  -7   1    0.54    0.09
   1  -7   1    0.69    0.12
   1   7   1    0.65    0.08
  -1  -7   1    0.74    0.12
   1  -7  -1    0.69    0.08
  -1   7  -1    0.37    0.08
  -1  -7   1    0.53    0.10
   1  -7  -1    0.65    0.09
   1   7   1    0.96    0.10
   1  -7  -1    0.65    0.09
  -1   7  -1    0.65    0.10
  -1  -7   1    0.42    0.09
   1   7   1    0.66    0.08
   1   7  -2    7.13    0.31
   1   7  -2    7.63    0.34
  -1   7   2    7.12    0.24
   1  -7   2    7.16    0.34
  -1  -7  -2    7.03    0.29
  -1   7   2    7.22    0.24
   1  -7   2    7.32    0.34
   1   7  -2    7.73    0.35
  -1   7   2    7.12    0.24
  -1  -7  -2    6.97    0.27
  -1   7   2    6.87    0.25
   1   7   2    7.16    0.27
  -1  -7   2    6.73    0.29
  -1   7  -2    7.36    0.33
  -1  -7   2    6.77    0.33
  -1  -7   2    6.99    0.33
   1  -7  -2    7.32    0.27
   1  -7  -2    6.99    0.24
  -1   7  -2    6.96    0.34
  -1   7  -2    7.61    0.31
   1   7   2    7.46    0.28
   1  -7   3    0.16    0.14
  -1  -7  -3    0.34    0.09
   1  -7   3    0.34    0.12
   1   7  -3    0.33    0.18
  -1   7   3    0.33    0.07
   1   7  -3    0.11    0.16
  -1  -7  -3    0.30    0.10
   1  -7   3    0.20    0.15
  -1   7   3    0.19    0.07
   1   7  -3    0.27    0.12
  -1   7   3    0.34    0.09
   1  -7  -3    0.23    0.08
  -1  -7   3    0.09    0.11
   1   7   3    0.49    0.11
   1   7   3    0.40    0.10
  -1  -7   3    0.30    0.15
   1   7   3   -0.01    0.09
  -1   7  -3    0.21    0.11
  -1   7  -3    0.19    0.16
  -1   7  -3    0.43    0.15
  -1  -7   3    0.34    0.15
   1  -7   4    2.76    0.31
   1   7  -4    2.33    0.26
   1   7  -4    2.42    0.31
   1   7  -4    2.49    0.34
  -1   7   4    2.61    0.22
   1  -7   4    2.35    0.23
   1  -7   4    2.90    0.33
  -1  -7  -4    2.38    0.24
  -1  -7  -4    2.68    0.30
  -1   7   4    2.78    0.21
  -1   7  -4    2.75    0.30
   1  -7  -4    3.09    0.26
   1   7   4    2.98    0.27
  -1  -7   4    3.37    0.39
   1  -7  -4    2.42    0.22
   1   7   4    2.27    0.25
  -1  -7   4    2.15    0.23
  -1   7  -4    3.02    0.36
  -1  -7  -5   -0.02    0.22
   1   7  -5   -0.22    0.26
   1  -7   5    0.53    0.37
   1  -7  -5    0.42    0.23
  -1   7  -5    0.06    0.24
  -2  -7   0  421.78   10.56
  -2  -7   0  420.21   10.41
   2   7   0  417.64   10.32
   2  -7   0  431.68   10.36
   2  -7   0  439.02   10.06
   2  -7   0  418.14   10.44
  -2   7   0  440.70   10.32
  -2   7   0  436.37   10.28
   2   7   0  408.93   10.13
   2  -7   1  207.13    4.74
   2   7  -1  199.23    4.87
  -2  -7  -1  195.88    4.78
  -2  -7  -1  192.81    4.85
   2  -7   1  192.70    4.87
   2   7  -1  197.31    4.75
   2   7  -1  194.73    4.81
   2  -7   1  199.38    4.81
   2  -7  -1  199.66    4.75
   2  -7  -1  200.69    4.68
   2   7   1  201.69    4.77
   2   7   1  188.29    4.71
  -2   7  -1  196.39    4.86
   2  -7  -1  199.40    4.82
  -2   7  -1  201.63    4.73
  -2  -7   1  185.59    4.87
  -2  -7   1  200.35    4.81
  -2   7   2  333.22    7.58
  -2  -7  -2  322.48    7.68
  -2  -7  -2  329.10    7.46
   2   7  -2  315.53    7.61
   2   7  -2  305.62    7.50
   2  -7   2  297.05    7.60
  -2   7   2  322.36    7.49
   2  -7   2  303.04    7.71
   2   7  -2  310.25    7.71
   2  -7  -2  323.78    7.41
   2  -7  -2  321.29    7.65
  -2   7  -2  299.43    7.75
  -2  -7   2  307.21    7.60
  -2  -7   2  315.61    7.48
   2   7   2  320.21    7.56
  -2   7  -2  304.81    7.49
  -2  -7   2  311.54    7.71
  -2   7   3  109.55    2.66
  -2  -7  -3  113.12    2.72
  -2   7   3  110.92    2.66
   2  -7   3  105.83    2.87
   2   7  -3  108.96    2.77
   2   7  -3  115.33    2.85
   2  -7   3  111.17    2.84
  -2  -7  -3  113.26    2.73
   2  -7   3  105.91    2.74
   2   7  -3  110.47    2.88
   2   7   3  110.24    2.76
   2  -7  -3  114.80    2.66
  -2  -7   3  108.57    2.82
   2  -7  -3  111.05    2.66
   2   7   3  110.52    2.75
  -2   7  -3  112.04    2.85
   2   7   3  108.46    2.79
  -2   7  -3  107.39    2.76
  -2   7  -3  112.59    2.88
  -2  -7   3  105.66    2.71
   2  -7   4  144.18    3.73
   2   7  -4  144.41    3.72
   2  -7   4  144.54    3.68
  -2  -7  -4  135.48    3.53
   2   7  -4  144.11    3.67
  -2  -7  -4  146.35    3.53
  -2   7   4  149.10    3.43
   2   7  -4  144.66    3.59
   2  -7   4  133.56    3.53
  -2   7   4  145.91    3.43
   2   7   4  145.41    3.57
  -2  -7   4  133.98    3.66
   2  -7  -4  149.53    3.47
  -2  -7   4  143.12    3.64
  -2   7  -4  142.46    3.68
  -2  -7   4  140.49    3.48
   2  -7  -4  144.52    3.46
  -2   7  -4  141.55    3.73
   2   7   4  141.40    3.59
  -2   7  -4  142.92    3.59
  -2  -7  -5   49.20    1.43
   2   7  -5   49.54    1.50
  -2   7  -5   50.24    1.50
  -3  -7   0   26.22    0.75
  -3  -7   0   25.35    0.73
   3   7   0   24.13    0.72
  -3   7   0   25.61    0.71
   3  -7   0   25.16    0.70
  -3  -7   0   26.44    0.75
   3  -7   0   26.20    0.72
   3   7   0   26.57    0.74
   3  -7   0   25.10    0.72
  -3   7   0   25.39    0.68
   3   7  -1   27.02    0.77
   3  -7   1   26.21    0.77
   3   7  -1   27.33    0.79
  -3  -7  -1   26.01    0.76
  -3   7   1   27.00    0.70
   3  -7   1   26.27    0.78
  -3  -7  -1   26.21    0.78
   3  -7   1   27.38    0.79
   3  -7  -1   27.49    0.72
  -3  -7   1   27.12    0.78
  -3   7  -1   31.03    0.83
  -3  -7   1   24.95    0.78
   3  -7  -1   26.62    0.70
  -3  -7   1   26.30    0.77
  -3   7  -1   26.63    0.74
   3   7   1   27.72    0.76
  -3   7  -1   26.43    0.77
   3   7   1   25.58    0.74
   3  -7  -1   26.93    0.73
   3  -7   2   17.57    0.59
  -3  -7  -2   17.25    0.54
  -3  -7  -2   18.11    0.58
   3   7  -2   17.82    0.60
   3  -7   2   17.14    0.60
   3   7  -2   17.39    0.57
  -3   7   2   17.89    0.45
  -3  -7  -2   17.95    0.54
  -3   7   2   17.99    0.46
   3   7  -2   17.14    0.60
   3   7   2   16.79    0.56
  -3  -7   2   18.22    0.59
   3  -7  -2   17.47    0.49
  -3   7  -2   17.65    0.60
  -3  -7   2   18.19    0.59
  -3  -7   2   17.32    0.54
   3   7   2   16.96    0.56
  -3   7  -2   17.67    0.56
   3  -7  -2   17.55    0.46
   3   7  -3   14.73    0.58
  -3  -7  -3   13.14    0.49
   3   7  -3   14.12    0.52
   3   7  -3   14.68    0.58
   3  -7   3   14.75    0.56
   3  -7   3   13.89    0.58
  -3  -7  -3   14.22    0.48
   3  -7   3   13.90    0.50
  -3   7  -3   14.28    0.58
  -3  -7   3   14.04    0.54
  -3  -7   3   14.44    0.55
   3  -7  -3   13.98    0.40
  -3  -7   3   13.69    0.47
  -3   7  -3   12.84    0.56
   3   7   3   14.14    0.51
  -3   7  -3   14.26    0.51
   3  -7   4    8.18    0.52
   3   7  -4    7.53    0.57
   3  -7   4    8.16    0.55
   3   7  -4    8.50    0.54
   3   7  -4    7.54    0.45
  -3  -7   4    8.52    0.48
  -3   7  -4    8.07    0.58
   3   7   4    8.03    0.43
   3  -7  -4    7.89    0.32
   3   7   4    8.39    0.45
  -3   7  -4    7.83    0.42
   3  -7  -4    8.30    0.34
  -3   7  -4    6.82    0.57
  -3  -7   4    8.22    0.44
  -3  -7   4    7.33    0.35
   3  -7   5    5.25    0.55
   3   7  -5    6.49    0.57
  -3  -7  -5    6.10    0.49
  -3   7  -5    6.38    0.53
   4   7   0   35.20    0.96
  -4   7   0   34.72    0.90
  -4  -7   0   35.55    0.97
  -4  -7   0   35.80    0.96
   4  -7   0   33.21    0.91
  -4   7   0   35.20    0.93
  -4  -7   0   35.72    0.99
   4   7   0   35.65    0.97
   4  -7   0   34.10    0.95
   4  -7   0   34.88    0.94
  -4   7   0   34.92    0.93
   4   7  -1   56.81    1.52
  -4   7   1   59.02    1.45
   4  -7   1   57.08    1.55
   4  -7   1   56.88    1.53
   4   7  -1   58.58    1.56
  -4  -7  -1   58.35    1.56
  -4  -7  -1   58.42    1.53
   4   7   1   56.31    1.50
  -4  -7   1   60.96    1.56
  -4   7  -1   59.37    1.49
   4  -7  -1   59.51    1.47
  -4  -7   1   60.01    1.54
   4  -7  -1   59.66    1.44
   4  -7  -1   59.41    1.49
  -4  -7  -2   25.76    0.74
   4  -7   2   25.65    0.81
   4  -7   2   25.51    0.80
   4   7  -2   25.87    0.81
   4   7  -2   24.80    0.80
   4   7  -2   25.13    0.77
  -4   7  -2   26.16    0.81
   4  -7  -2   26.06    0.65
  -4  -7   2   26.33    0.78
   4  -7  -2   25.51    0.67
   4   7   2   26.31    0.78
  -4  -7   2   26.08    0.74
  -4   7  -2   26.29    0.75
   4   7   2   24.94    0.78
  -4  -7  -3   34.10    0.98
   4  -7   3   35.01    1.07
  -4  -7  -3   34.73    1.00
   4   7  -3   35.03    1.08
   4   7  -3   35.77    1.09
   4   7  -3   35.02    1.03
   4  -7   3   36.12    1.10
  -4  -7   3   34.32    0.95
  -4  -7   3   33.93    1.03
  -4  -7   3   35.68    1.04
  -4   7  -3   33.88    1.00
   4   7   3   34.18    1.03
   4   7   3   36.19    1.03
  -4   7  -3   35.05    1.07
   4  -7  -3   34.98    0.87
  -4   7  -3   35.41    1.09
   4   7  -4   14.39    0.71
   4   7  -4   13.30    0.67
   4  -7   4   15.29    0.72
   4   7  -4   14.32    0.61
   4  -7   4   15.17    0.68
  -4   7  -4   14.88    0.59
  -4  -7   4   15.47    0.63
   4   7   4   15.86    0.63
   4   7   4   15.56    0.62
   4  -7  -4   14.70    0.46
   4  -7  -4   15.08    0.47
  -4  -7   4   13.39    0.47
  -4   7  -4   15.41    0.74
   4   7  -5   16.10    0.79
   4  -7   5   16.02    0.91
  -4  -7  -5   16.73    0.72
  -4   7  -5   16.93    0.74
   5  -7   0    5.56    0.25
  -5   7   0    5.70    0.21
  -5  -7   0    5.78    0.28
   5  -7   0    5.54    0.25
   5   7   0    5.73    0.27
  -5  -7   0    5.52    0.28
   5  -7   0    5.75    0.25
   5   7   0    5.89    0.27
  -5  -7  -1    0.07    0.09
  -5   7   1    0.13    0.04
   5   7  -1    0.13    0.10
   5  -7   1    0.11    0.09
   5  -7   1    0.11    0.10
   5   7  -1    0.15    0.09
  -5  -7  -1    0.13    0.09
   5   7  -1   -0.09    0.08
  -5   7   1    0.07    0.05
  -5  -7   1    0.02    0.09
  -5  -7   1    0.12    0.09
   5  -7  -1    0.14    0.06
  -5  -7   1   -0.01    0.09
  -5   7  -1   -0.05    0.06
   5  -7  -1    0.09    0.07
   5   7   1   -0.02    0.07
   5  -7  -1    0.12    0.06
   5  -7   2    3.67    0.27
   5   7  -2    4.59    0.28
   5   7  -2    4.09    0.29
  -5  -7  -2    4.08    0.23
   5  -7   2    3.76    0.28
   5   7  -2    4.41    0.27
   5  -7  -2    4.05    0.14
  -5   7  -2    4.02    0.28
  -5  -7   2    3.87    0.26
   5   7   2    4.20    0.27
  -5   7  -2    4.12    0.23
  -5  -7   2    4.48    0.24
   5   7   2    3.76    0.26
  -5  -7   2    3.65    0.25
   5   7  -3    0.04    0.13
   5  -7   3    0.06    0.17
   5  -7   3   -0.09    0.14
  -5  -7  -3    0.12    0.11
   5   7  -3    0.34    0.18
   5   7  -3    0.13    0.19
   5  -7  -3   -0.02    0.05
  -5  -7   3   -0.04    0.14
   5   7   3    0.12    0.14
  -5  -7   3    0.23    0.13
  -5   7  -3    0.18    0.18
  -5   7  -3    0.04    0.20
  -5   7  -3    0.14    0.11
   5   7   3   -0.05    0.13
  -5  -7   3    0.17    0.10
   5   7  -4    1.41    0.25
   5  -7   4    1.81    0.34
  -5  -7  -4    1.37    0.22
   5  -7  -4    2.23    0.19
  -5  -7   4    1.65    0.27
  -5   7  -4    1.39    0.21
   5   7   4    1.80    0.28
  -5   7  -4    1.37    0.34
   5   7  -5    0.21    0.32
   5  -7   5    0.20    0.41
  -5  -7  -5   -0.14    0.26
   6   7   0    0.96    0.13
  -6   7   0    0.99    0.10
   6  -7   0    1.00    0.11
   6  -7   0    1.03    0.12
  -6  -7   0    1.08    0.14
  -6  -7   0    1.18    0.15
   6   7   0    1.13    0.15
   6  -7   0    1.12    0.13
   6   7  -1   10.87    0.43
   6   7  -1   10.14    0.41
  -6  -7  -1   11.55    0.44
   6   7  -1   12.51    0.44
   6  -7   1   10.64    0.41
  -6   7   1   10.08    0.32
  -6  -7  -1   10.97    0.42
  -6  -7  -1   10.78    0.39
   6  -7   1   10.09    0.41
  -6  -7   1   10.57    0.41
   6  -7  -1   10.91    0.33
   6  -7  -1   10.25    0.34
   6  -7  -1   10.64    0.34
  -6  -7   1   11.73    0.42
   6   7   1   10.60    0.43
  -6  -7   1   10.79    0.42
   6   7   1   11.18    0.42
  -6   7  -1   10.82    0.37
   6   7   1   10.36    0.40
   6  -7   2    1.22    0.19
   6   7  -2    0.91    0.17
   6   7  -2    0.84    0.17
  -6  -7  -2    0.88    0.12
   6   7  -2    0.78    0.14
   6  -7   2    0.84    0.16
  -6   7  -2    1.31    0.15
   6  -7  -2    1.23    0.09
  -6  -7   2    0.90    0.15
   6   7   2    0.98    0.17
  -6  -7   2    1.15    0.14
  -6  -7   2    0.90    0.16
   6   7   2    0.78    0.16
  -6   7  -2    1.05    0.18
   6   7  -3    6.36    0.37
  -6  -7  -3    6.38    0.34
   6  -7   3    6.16    0.41
   6   7  -3    6.81    0.44
   6  -7   3    5.15    0.41
   6   7  -3    6.61    0.41
  -6  -7   3    6.25    0.28
   6   7   3    5.86    0.38
  -6  -7   3    6.05    0.37
  -6   7  -3    5.71    0.45
   6   7   3    6.30    0.40
  -6  -7   3    6.11    0.36
  -6  -7  -4    0.59    0.19
   6   7  -4    0.76    0.22
   6  -7   4    0.27    0.28
   6  -7   4    0.46    0.25
   6   7   4    0.31    0.25
  -6  -7   4    0.53    0.11
  -6  -7   4    0.62    0.24
  -6   7  -4    1.00    0.35
   6  -7  -4    0.69    0.12
  -6  -7  -5    2.31    0.36
   6  -7   5    3.02    0.54
   6   7  -5    3.42    0.46
  -7  -7   0    2.48    0.23
   7  -7   0    2.47    0.19
   7  -7   0    2.52    0.18
  -7   7   0    2.71    0.14
   7   7   0    2.50    0.21
   7  -7   0    2.39    0.18
  -7  -7   0    2.55    0.22
  -7  -7   0    2.68    0.18
   7   7   0    2.85    0.22
   7   7   0    2.66    0.23
  -7   7   0    2.59    0.18
  -7   7   0    2.47    0.13
  -7  -7  -1    0.35    0.09
   7  -7   1    0.29    0.11
   7   7  -1    0.52    0.12
  -7   7   1    0.58    0.07
  -7  -7  -1    0.61    0.14
  -7   7   1    0.51    0.07
   7  -7   1    0.68    0.13
   7   7  -1    0.62    0.13
  -7  -7  -1    0.53    0.13
   7   7  -1    0.36    0.12
   7  -7  -1    0.51    0.09
   7   7   1    0.51    0.14
   7   7   1    0.35    0.10
   7  -7  -1    0.54    0.09
   7   7   1    0.49    0.11
  -7  -7   1    0.45    0.13
  -7   7  -1    0.40    0.09
  -7  -7   1    0.57    0.14
   7   7   1    0.40    0.13
   7  -7  -1    0.39    0.08
  -7  -7   1    0.71    0.14
   7  -7   2    2.27    0.24
   7  -7   2    2.04    0.22
   7   7  -2    1.97    0.23
   7   7  -2    1.51    0.22
   7   7  -2    2.23    0.24
  -7  -7  -2    1.84    0.20
   7  -7  -2    1.95    0.12
   7   7   2    1.78    0.21
  -7  -7   2    1.96    0.21
  -7  -7   2    1.81    0.20
  -7  -7   2    1.68    0.19
  -7   7  -2    2.01    0.19
  -7   7  -2    2.12    0.23
   7   7   2    1.59    0.21
   7  -7   3    0.67    0.21
   7  -7   3    0.47    0.21
   7   7  -3    0.32    0.18
   7   7  -3    0.61    0.25
   7   7  -3    0.44    0.18
  -7   7  -3    0.60    0.22
   7   7   3    0.36    0.19
   7   7   3    0.67    0.20
  -7  -7   3    0.39    0.10
  -7  -7   3    0.35    0.17
  -7   7  -3    0.37    0.14
   7   7  -4    1.07    0.27
   7  -7   4    1.14    0.30
  -7  -7  -4    1.26    0.23
   7  -7   4    1.24    0.36
  -7  -7   4    1.17    0.27
   7   7   4    0.71    0.30
   8  -7   0  313.05    7.46
  -8  -7   0  309.71    7.62
   8  -7   0  317.62    7.37
  -8   7   0  311.98    7.30
  -8  -7   0  312.87    7.51
  -8  -7   0  310.87    7.38
  -8   7   0  308.66    7.30
  -8   7   0  308.96    7.44
  -8  -7   0  290.53    7.42
   8   7   0  310.86    7.51
   8  -7   0  321.73    7.57
   8   7   0  297.95    7.42
  -8   7   1   75.28    1.83
   8  -7   1   73.08    1.96
   8   7  -1   75.03    1.93
  -8   7   1   74.91    1.83
  -8  -7  -1   73.21    1.99
   8   7  -1   75.07    1.97
   8  -7   1   70.89    1.93
   8   7  -1   75.13    1.95
  -8  -7  -1   73.20    1.89
   8  -7  -1   73.87    1.84
   8   7   1   73.53    1.99
  -8  -7   1   74.90    1.94
   8   7   1   73.86    1.96
   8  -7  -1   76.37    1.83
  -8  -7   1   75.16    1.96
   8   7   1   72.65    1.97
   8   7   1   69.50    1.91
  -8  -7   1   76.57    1.93
  -8  -7   1   71.09    1.85
   8  -7  -1   71.93    1.87
  -8   7  -1   74.57    1.86
   8  -7   2  239.22    5.85
   8   7  -2  232.53    5.84
  -8  -7  -2  230.70    5.73
   8   7  -2  232.28    5.76
   8  -7   2  246.42    5.94
   8   7  -2  238.70    5.92
  -8  -7   2  239.41    5.88
   8   7   2  239.52    5.93
  -8   7  -2  241.32    5.72
   8   7   2  231.25    5.84
  -8  -7   2  236.57    5.68
  -8  -7   2  236.86    5.66
   8  -7  -2  242.03    5.60
  -8  -7   2  234.77    5.80
   8   7  -3   50.83    1.48
   8  -7   3   52.50    1.50
   8   7  -3   49.29    1.41
  -8  -7  -3   48.35    1.38
   8   7  -3   48.44    1.47
   8  -7   3   49.92    1.46
  -8  -7   3   50.60    1.24
  -8   7  -3   47.04    1.37
  -8  -7   3   46.87    1.39
   8   7   3   50.88    1.46
  -8  -7   3   50.62    1.39
   8   7   3   50.99    1.48
  -8   7  -3   46.28    1.48
  -8  -7   3   46.75    1.25
   8  -7   4  125.00    3.33
   8  -7   4  124.98    3.40
   8   7  -4  125.85    3.25
  -8  -7  -4  124.55    3.21
   8   7   4  124.76    3.30
  -9   7   0    0.60    0.12
  -9  -7   0    0.25    0.15
   9  -7   0    0.32    0.10
  -9   7   0    0.39    0.08
  -9  -7   0    0.33    0.14
  -9   7   0    0.46    0.08
  -9  -7   0    0.59    0.15
   9   7   0    0.57    0.17
   9   7   0    0.39    0.13
   9   7   0    0.59    0.15
   9  -7   0    0.37    0.11
   9  -7   0    0.52    0.12
  -9  -7   0    0.21    0.09
   9  -7   1    5.92    0.32
  -9   7   1    5.40    0.23
  -9  -7  -1    5.45    0.29
   9   7  -1    5.49    0.32
   9   7  -1    5.63    0.35
   9   7  -1    5.05    0.34
   9  -7   1    5.44    0.30
  -9   7  -1    5.29    0.26
   9   7   1    5.70    0.35
  -9  -7   1    5.68    0.32
  -9  -7   1    5.24    0.33
  -9  -7   1    5.32    0.26
  -9   7  -1    5.56    0.28
   9  -7  -1    5.14    0.25
  -9  -7   1    5.77    0.36
   9  -7  -1    5.44    0.24
   9   7   1    5.11    0.34
   9  -7  -1    5.12    0.24
   9   7   1    5.34    0.31
   9   7   1    5.09    0.36
   9  -7   2    0.24    0.15
   9  -7   2    0.06    0.15
   9   7  -2    0.03    0.16
   9   7  -2    0.31    0.21
   9   7  -2    0.43    0.15
   9   7   2    0.49    0.19
  -9   7  -2    0.40    0.13
  -9  -7   2    0.28    0.15
  -9  -7   2    0.33    0.10
   9   7   2    0.35    0.16
  -9  -7   2    0.55    0.16
   9   7   2    0.07    0.17
   9  -7  -2    0.33    0.09
  -9  -7   2    0.25    0.12
  -9  -7  -3    3.31    0.31
   9   7  -3    3.22    0.34
   9   7  -3    3.19    0.40
   9  -7   3    4.32    0.40
   9  -7   3    4.03    0.43
  -9  -7   3    3.57    0.35
  -9   7  -3    3.19    0.31
   9   7   3    3.64    0.37
  -9  -7   3    3.63    0.20
   9   7   3    3.93    0.42
  -9  -7   3    3.08    0.29
  -9  -7   3    3.38    0.20
   9  -7   4   -0.16    0.32
  -9  -7  -4    0.47    0.22
   9   7  -4   -0.04    0.27
   9   7   4    0.21    0.33
  -9   7  -4   -0.15    0.22
  10   7   0   19.93    0.71
  10   7   0   20.41    0.68
 -10  -7   0   21.25    0.72
  10   7   0   20.26    0.71
  10   7   0   18.76    0.68
 -10   7   0   20.18    0.54
 -10   7   0   20.01    0.54
  10  -7   0   19.64    0.64
 -10  -7   0   20.17    0.70
  10  -7   0   19.48    0.63
 -10  -7   0   19.87    0.68
 -10   7   0   18.76    0.63
  10  -7   0   19.67    0.64
 -10  -7   0   19.56    0.63
  10  -7   1    4.20    0.30
  10   7  -1    3.54    0.33
 -10  -7  -1    3.99    0.27
  10   7  -1    3.85    0.33
  10  -7   1    3.70    0.29
  10   7  -1    3.78    0.29
  10  -7  -1    4.04    0.22
 -10  -7   1    4.17    0.25
 -10  -7   1    3.88    0.30
 -10   7  -1    3.98    0.24
  10  -7  -1    3.76    0.24
  10   7   1    4.03    0.34
  10   7   1    4.04    0.33
 -10  -7   1    4.00    0.32
 -10  -7   1    4.00    0.36
 -10   7  -1    3.89    0.26
  10   7   1    3.77    0.29
  10   7   1    3.17    0.32
  10  -7  -1    3.93    0.22
  10  -7   2   16.03    0.65
  10   7  -2   16.31    0.69
  10   7  -2   15.85    0.66
  10  -7   2   15.86    0.62
 -10  -7  -2   15.63    0.58
  10   7  -2   15.23    0.61
  10  -7  -2   15.68    0.44
 -10  -7   2   15.49    0.53
  10   7   2   15.72    0.72
 -10  -7   2   16.14    0.59
  10   7   2   15.76    0.66
 -10   7  -2   15.77    0.56
  10   7   2   16.26    0.67
  10  -7  -2   15.80    0.47
 -10  -7   2   15.79    0.50
 -10  -7   2   15.58    0.60
 -10  -7  -3    2.88    0.29
  10  -7   3    3.64    0.41
  10   7  -3    3.03    0.32
  10  -7   3    2.42    0.34
 -10   7  -3    2.96    0.32
  10   7   3    3.02    0.36
  10   7   3    3.09    0.37
 -10  -7   3    3.45    0.38
  10   7  -4    8.56    0.65
  10  -7   4    8.48    0.69
 -10  -7  -4    8.64    0.56
  10  -7   4    8.59    0.79
  10   7   4    9.05    0.72
 -11  -7   0    0.02    0.15
 -11  -7   0    0.05    0.10
  11   7   0    0.20    0.17
 -11   7   0   -0.07    0.07
  11  -7   0   -0.06    0.11
 -11  -7   0    0.04    0.19
 -11   7   0   -0.01    0.07
  11   7   0    0.08    0.13
  11   7   0   -0.05    0.14
  11  -7   0    0.01    0.13
  11   7   0   -0.12    0.18
  11  -7   1    0.77    0.19
  11   7  -1    0.50    0.22
  11   7  -1    0.82    0.18
  11  -7   1    0.42    0.16
  11   7  -1    0.78    0.22
 -11  -7   1    1.07    0.21
  11  -7  -1    0.57    0.13
  11   7   1    0.65    0.17
 -11  -7   1    0.69    0.18
 -11   7  -1    0.78    0.13
 -11  -7   1    0.65    0.13
  11  -7  -1    0.64    0.13
  11   7   1    1.13    0.24
  11  -7  -1    0.81    0.15
 -11  -7   1    0.51    0.22
 -11   7  -1    0.68    0.17
  11   7   1    0.83    0.22
  11   7  -2    0.34    0.22
 -11  -7  -2   -0.08    0.13
  11  -7   2   -0.16    0.15
  11   7  -2   -0.52    0.27
  11  -7   2    0.38    0.19
  11  -7  -2   -0.06    0.09
  11  -7  -2    0.14    0.08
  11   7   2    0.10    0.18
 -11  -7   2    0.08    0.11
 -11  -7   2   -0.16    0.16
  11   7   2    0.09    0.20
 -11   7  -2   -0.03    0.12
 -11  -7   2    0.06    0.17
 -11  -7   2   -0.04    0.14
  11  -7  -2    0.07    0.12
 -11  -7  -3    0.40    0.20
  11   7  -3    0.52    0.24
  11  -7   3    0.02    0.25
  11  -7   3    0.17    0.25
 -11   7  -3    0.33    0.19
  11   7   3    0.38    0.28
  11   7   3    0.15    0.31
  11   7  -4   -0.19    0.32
  11  -7   4   -0.15    0.37
  11  -7   4   -0.39    0.44
  11   7   4   -0.19    0.43
  12   7   0   10.20    0.48
  12  -7   0    9.51    0.43
  12   7   0    9.58    0.54
 -12  -7   0    9.04    0.41
  12  -7   0   10.62    0.51
  12   7   0   10.11    0.54
  12   7   0    9.90    0.49
  12   7  -1   16.52    0.71
 -12  -7  -1   17.87    0.62
  12   7  -1   16.26    0.65
  12  -7   1   17.24    0.65
  12   7  -1   15.74    0.72
  12  -7   1   17.05    0.65
  12   7   1   17.66    0.67
  12  -7  -1   17.47    0.58
  12  -7  -1   16.67    0.57
  12   7   1   16.91    0.69
  12  -7  -1   16.72    0.58
 -12  -7   1   17.11    0.68
  12  -7  -1   17.12    0.58
 -12   7  -1   16.77    0.59
  12   7   1   16.58    0.73
 -12  -7   1   17.58    0.66
 -12  -7   1   16.44    0.56
 -12  -7   1   17.21    0.68
 -12   7  -1   17.16    0.56
  12  -7  -1   17.32    0.61
  12   7   1   18.00    0.72
  12  -7   2    9.10    0.53
  12  -7   2    8.06    0.49
 -12  -7  -2    8.31    0.45
  12   7  -2    8.42    0.49
  12  -7  -2    8.59    0.34
  12  -7  -2    8.33    0.31
  12   7   2    8.00    0.52
 -12  -7   2    8.64    0.49
  12   7   2    8.92    0.56
 -12  -7   2    8.40    0.34
 -12   7  -2    8.59    0.42
  12  -7   3   10.54    0.66
  12   7  -3   13.11    0.64
  12   7   3   14.59    0.74
 -12   7  -3   11.34    0.56
  12   7   3   10.91    0.74
  13   7   0    9.13    0.51
 -13  -7   0    8.51    0.42
  13   7   0    8.52    0.65
  13  -7   0    8.93    0.43
  13  -7   0    9.33    0.44
  13   7   0    9.71    0.49
  13   7   0    8.95    0.58
  13   7   0    8.91    0.52
  13   7  -1    1.15    0.32
 -13  -7  -1    1.11    0.19
  13   7  -1    0.95    0.24
  13  -7   1    1.30    0.22
  13   7  -1    1.56    0.26
  13  -7   1    0.98    0.22
  13   7  -1    1.96    0.26
  13   7   1    1.25    0.27
 -13   7  -1    1.24    0.17
  13  -7  -1    1.10    0.18
  13   7   1    1.19    0.26
 -13  -7   1    1.42    0.30
 -13  -7   1    1.24    0.18
  13  -7  -1    1.31    0.22
  13   7   1    1.19    0.34
  13  -7  -1    1.42    0.23
 -13   7  -1    1.12    0.22
  13   7  -2    7.51    0.51
 -13  -7  -2    7.66    0.46
  13  -7   2    7.22    0.50
  13  -7   2    7.87    0.54
  13  -7  -2    6.83    0.35
  13   7   2    8.07    0.57
 -13  -7   2    7.20    0.51
  13   7   2    7.54    0.56
 -13   7  -2    8.24    0.43
  13  -7  -2    7.08    0.32
 -13  -7   2    8.18    0.34
  13  -7   3    0.97    0.36
  13  -7   3    0.96    0.32
  13   7  -3    1.35    0.32
  13   7   3    1.02    0.42
  13   7   3    2.03    0.40
 -13   7  -3    1.25    0.27
  14  -7   0   68.79    1.83
 -14  -7   0   66.58    1.78
  14   7   0   65.51    1.93
  14   7   0   68.09    1.91
  14   7   0   65.97    1.87
  14  -7   0   68.03    1.86
  14  -7   1   71.19    1.98
 -14  -7  -1   72.26    1.92
  14   7  -1   70.77    1.98
  14   7  -1   71.10    2.03
  14   7  -1   70.06    2.00
  14  -7   1   71.16    2.01
  14  -7  -1   72.07    1.88
 -14   7  -1   73.39    1.84
 -14  -7   1   72.81    1.85
  14  -7  -1   72.58    1.92
  14   7   1   71.87    2.05
  14   7   1   70.38    2.07
  14   7  -2   56.63    1.65
  14  -7   2   54.98    1.71
  14   7  -2   58.13    1.65
 -14  -7  -2   58.35    1.62
  14  -7   2   54.91    1.68
  14   7  -2   56.61    1.68
  14   7   2   58.81    1.75
  14  -7  -2   52.43    1.50
  14   7   2   57.07    1.77
 -14   7  -2   55.64    1.55
  15   7   0    3.14    0.36
 -15  -7   0    4.37    0.38
  15   7   0    2.95    0.34
  15   7   0    2.65    0.33
  15  -7   0    3.23    0.38
  15  -7   0    2.96    0.30
  15   7  -1    1.41    0.30
  15  -7   1    0.83    0.28
  15   7  -1    1.00    0.28
  15  -7   1    1.61    0.29
  15   7  -1    1.21    0.30
 -15  -7  -1    1.66    0.26
  15  -7  -1    1.42    0.23
 -15  -7   1    1.40    0.23
 -15   7  -1    1.52    0.22
  15   7   1    1.37    0.30
  15   7   1    0.75    0.28
  15  -7  -1    1.21    0.23
  15  -7   2    2.71    0.38
  15  -7   2    3.03    0.41
  15   7  -2    2.32    0.35
  15   7  -2    2.64    0.38
 -15  -7  -2    2.51    0.34
  15   7  -2    2.28    0.34
  15   7   2    1.84    0.38
  15   7   2    2.85    0.46
  15  -7  -2    2.20    0.22
 -15   7  -2    2.46    0.29
  16  -7   0    3.26    0.35
  16   7   0    3.63    0.39
  16  -7   0    3.77    0.44
 -16  -7   0    3.99    0.43
  16   7   0    3.49    0.40
  16   7   0    2.93    0.39
  16   7  -1    1.47    0.35
 -16  -7  -1    0.98    0.28
  16   7  -1    1.63    0.33
  16  -7   1    1.92    0.32
  16  -7   1    1.49    0.34
  16   7  -1    1.62    0.36
  16   7   1    0.55    0.34
  16  -7  -1    1.47    0.26
  16   7   1    1.68    0.40
  16  -7  -1    1.65    0.28
   0  -8   0   13.90    0.45
   0  -8   0   12.65    0.45
   0   8   0   13.72    0.43
   0   8   0   13.65    0.43
   0  -8  -1   92.20    2.32
   0  -8   1   92.88    2.39
   0   8  -1   93.12    2.31
   0   8   1   90.74    2.25
   0  -8   1   98.02    2.36
   0   8  -1   89.62    2.37
   0   8   1   93.93    2.33
   0  -8  -1   94.79    2.28
   0  -8  -1   95.35    2.36
   0  -8   1   88.36    2.35
   0   8  -2   10.14    0.39
   0   8   2   10.20    0.35
   0  -8  -2   10.12    0.36
   0  -8   2    9.37    0.43
   0  -8  -2   10.01    0.34
   0   8   2    9.82    0.35
   0   8  -2    9.93    0.42
   0   8   2   10.87    0.34
   0  -8  -2   10.02    0.36
   0   8  -2   10.46    0.43
   0  -8   2   10.76    0.43
   0   8  -3   53.59    1.47
   0   8  -3   54.69    1.53
   0   8  -3   55.16    1.56
   0   8   3   56.74    1.40
   0  -8   3   53.31    1.45
   0  -8  -3   55.77    1.40
   0  -8   3   54.31    1.54
   0  -8   3   53.22    1.52
   0   8   3   54.76    1.41
   0   8   3   53.18    1.41
   0  -8  -3   54.06    1.41
   0  -8  -4    7.45    0.35
   0  -8  -4    6.99    0.40
   0  -8   4    8.24    0.50
   0  -8   4    7.11    0.41
   0   8  -4    8.22    0.58
   0   8   4    7.60    0.32
   0  -8   4    7.88    0.52
   0   8  -4    7.28    0.54
   0   8  -4    7.67    0.44
   0   8  -5   25.83    0.99
   0  -8  -5   26.86    0.89
   1   8   0    5.98    0.25
  -1  -8   0    6.39    0.27
  -1   8   0    5.72    0.24
  -1   8   0    5.51    0.24
   1  -8   0    6.10    0.27
   1  -8   0    5.71    0.26
  -1  -8   0    5.67    0.27
   1   8  -1   21.98    0.64
  -1  -8  -1   21.03    0.60
  -1  -8  -1   21.92    0.64
  -1   8   1   19.90    0.55
   1  -8   1   21.76    0.67
   1   8  -1   20.58    0.65
   1  -8   1   21.40    0.65
  -1  -8  -1   20.99    0.63
  -1   8  -1   19.99    0.65
  -1  -8   1   20.82    0.65
  -1  -8   1   21.34    0.66
   1  -8  -1   21.00    0.62
   1  -8  -1   21.10    0.61
   1  -8  -1   21.64    0.59
   1   8   1   20.86    0.59
  -1   8  -1   20.82    0.62
   1   8  -2    4.23    0.28
   1  -8   2    4.21    0.28
  -1  -8  -2    4.00    0.21
   1   8  -2    4.05    0.24
  -1   8   2    4.32    0.19
   1  -8   2    4.16    0.28
  -1  -8  -2    3.93    0.23
  -1   8   2    4.15    0.19
  -1   8   2    4.22    0.19
   1   8  -2    3.76    0.26
   1  -8  -2    4.14    0.19
   1  -8  -2    4.12    0.21
  -1   8  -2    3.97    0.24
   1   8   2    4.15    0.21
  -1  -8   2    4.40    0.28
   1   8   2    3.95    0.22
   1  -8  -2    4.24    0.21
  -1  -8   2    4.54    0.29
  -1  -8   2    4.04    0.24
  -1   8  -2    3.95    0.28
  -1   8   3   12.11    0.36
   1   8  -3   11.90    0.54
   1   8  -3   11.59    0.53
  -1   8   3   11.98    0.38
   1  -8   3   11.35    0.46
  -1  -8  -3   11.62    0.41
   1  -8   3   11.74    0.53
  -1  -8  -3   12.55    0.43
   1  -8   3   11.59    0.51
   1   8  -3   12.07    0.48
   1  -8  -3   12.34    0.40
  -1  -8   3   12.31    0.52
   1   8   3   11.45    0.43
   1   8   3   12.06    0.42
  -1   8  -3   11.70    0.54
   1  -8  -3   11.73    0.39
  -1   8  -3   11.71    0.53
   1   8   3   12.35    0.42
  -1   8  -3   11.80    0.47
  -1  -8   3   11.74    0.51
  -1  -8   3   11.24    0.45
  -1   8   4    2.31    0.22
   1  -8   4    2.74    0.32
  -1  -8  -4    2.31    0.25
   1   8  -4    2.50    0.37
   1  -8   4    2.24    0.30
   1   8  -4    2.22    0.27
   1   8  -4    2.49    0.34
  -1   8   4    2.82    0.24
  -1  -8  -4    2.44    0.23
   1   8   4    2.80    0.28
  -1   8  -4    2.57    0.36
  -1  -8   4    2.80    0.31
  -1   8  -4    2.55    0.35
  -1  -8   4    2.32    0.24
  -1  -8   4    2.15    0.30
  -1   8  -4    2.59    0.29
   1  -8  -4    2.43    0.24
   1  -8  -4    2.59    0.22
  -1  -8  -5    5.64    0.49
   1  -8   5    6.46    0.66
   1   8  -5    6.17    0.56
   1  -8  -5    5.84    0.46
  -1   8  -5    5.86    0.56
   2   8   0   42.72    1.14
  -2  -8   0   43.04    1.18
  -2   8   0   42.62    1.10
   2  -8   0   42.82    1.15
  -2  -8   0   39.62    1.17
   2  -8   0   43.89    1.16
  -2   8   0   43.81    1.13
   2   8   0   44.60    1.15
  -2  -8   0   43.74    1.16
   2   8  -1   21.18    0.66
  -2  -8  -1   21.52    0.65
  -2  -8  -1   21.77    0.66
   2  -8   1   20.83    0.67
   2  -8   1   21.70    0.66
  -2   8   1   20.30    0.53
  -2   8   1   21.56    0.59
   2   8  -1   21.69    0.65
  -2   8  -1   20.43    0.62
   2  -8  -1   21.42    0.62
   2  -8  -1   21.43    0.61
  -2  -8   1   22.24    0.67
   2  -8  -1   21.36    0.59
  -2  -8   1   21.94    0.67
   2   8   1   21.97    0.62
  -2   8   2   32.79    0.84
   2   8  -2   32.47    0.93
   2   8  -2   33.28    0.97
  -2   8   2   31.92    0.83
   2  -8   2   32.26    0.96
   2  -8   2   33.44    0.98
   2   8  -2   32.76    0.96
  -2  -8  -2   33.21    0.89
  -2  -8  -2   31.23    0.93
   2  -8  -2   31.28    0.87
  -2   8  -2   32.34    0.96
  -2   8  -2   30.97    0.91
   2  -8  -2   32.78    0.84
   2  -8  -2   32.77    0.85
  -2  -8   2   32.96    0.96
  -2  -8   2   31.05    0.90
  -2  -8   2   31.93    0.96
   2   8   2   32.54    0.91
   2  -8   3   12.08    0.48
   2   8  -3   12.84    0.56
  -2   8   3   12.57    0.36
   2  -8   3   12.72    0.55
  -2  -8  -3   12.20    0.45
   2   8  -3   11.88    0.49
  -2   8   3   12.15    0.36
  -2  -8  -3   11.63    0.43
   2  -8   3   12.27    0.52
   2   8  -3   12.23    0.55
   2   8   3   11.78    0.45
  -2   8  -3   12.52    0.54
  -2  -8   3   12.60    0.52
   2   8   3   12.96    0.46
  -2   8  -3   12.28    0.48
  -2   8  -3   13.56    0.56
  -2  -8   3   12.85    0.53
   2  -8  -3   11.70    0.40
   2   8   3   12.21    0.47
  -2  -8   3   11.79    0.45
   2   8  -4   15.19    0.75
  -2  -8  -4   14.98    0.56
   2  -8   4   15.84    0.70
   2   8  -4   14.16    0.76
   2  -8   4   15.72    0.73
   2   8  -4   15.54    0.64
   2  -8  -4   15.63    0.52
   2  -8  -4   15.42    0.51
   2   8   4   15.94    0.58
  -2  -8   4   15.85    0.66
  -2   8  -4   15.22    0.62
  -2  -8   4   14.40    0.56
  -2   8  -4   15.67    0.76
  -2   8  -4   14.82    0.74
   2   8   4   15.95    0.60
   2  -8   5    4.90    0.52
  -2  -8  -5    5.22    0.48
  -2   8  -5    5.28    0.53
   3  -8   0    1.32    0.15
   3  -8   0    1.47    0.15
  -3   8   0    1.15    0.12
   3   8   0    1.30    0.15
  -3  -8   0    1.28    0.14
  -3  -8   0    1.00    0.13
   3   8  -1    2.53    0.20
   3   8  -1    2.47    0.19
  -3  -8  -1    2.90    0.20
   3  -8   1    2.32    0.21
   3  -8   1    2.45    0.20
  -3  -8  -1    2.59    0.19
  -3   8   1    2.52    0.14
   3  -8  -1    2.62    0.16
   3   8   1    2.51    0.17
   3  -8  -1    2.53    0.17
  -3   8  -1    2.85    0.18
  -3  -8   1    2.23    0.19
  -3  -8   1    2.21    0.20
   3  -8  -1    2.68    0.15
  -3  -8  -2    0.65    0.12
  -3  -8  -2    1.00    0.13
   3  -8   2    0.81    0.15
  -3   8   2    0.91    0.09
   3  -8   2    1.06    0.18
   3   8  -2    0.69    0.14
   3   8  -2    0.90    0.14
   3   8  -2    0.92    0.17
  -3  -8   2    1.13    0.16
   3   8   2    0.73    0.13
   3  -8  -2    0.85    0.10
  -3  -8   2    0.74    0.15
   3  -8  -2    0.81    0.09
   3   8   2    0.89    0.14
  -3  -8   2    0.79    0.14
   3  -8  -2    0.91    0.10
  -3   8  -2    0.92    0.14
  -3   8  -2    0.90    0.13
  -3  -8  -3    1.56    0.17
   3  -8   3    1.39    0.23
   3   8  -3    1.39    0.23
  -3  -8  -3    1.63    0.19
   3   8  -3    1.07    0.23
   3   8  -3    1.43    0.18
   3  -8   3    1.18    0.22
  -3  -8   3    1.28    0.21
  -3   8  -3    1.27    0.18
   3   8   3    1.37    0.18
  -3  -8   3    1.04    0.18
  -3  -8   3    1.32    0.17
  -3   8  -3    0.87    0.21
   3  -8  -3    1.59    0.14
   3   8   3    1.09    0.18
  -3   8  -3    1.30    0.23
   3  -8   4    0.41    0.24
   3   8  -4    0.32    0.28
   3   8  -4    0.41    0.19
   3  -8   4    0.15    0.26
  -3  -8  -4    0.33    0.16
   3   8  -4    0.12    0.31
  -3  -8   4    0.00    0.18
  -3  -8   4    0.33    0.24
  -3   8  -4    0.28    0.18
  -3  -8   4    0.42    0.18
   3  -8  -4    0.19    0.12
   3   8   4    0.32    0.21
  -3   8  -4    0.54    0.32
   3  -8  -4    0.42    0.14
  -3  -8  -5    0.41    0.27
   3  -8   5    0.04    0.42
   3   8  -5    0.81    0.32
  -3   8  -5    0.18    0.27
  -4   8   0   15.75    0.47
  -4  -8   0   17.89    0.56
   4   8   0   16.35    0.53
   4  -8   0   16.21    0.49
   4  -8   0   16.11    0.52
  -4  -8   0   15.19    0.53
   4  -8   0   16.07    0.51
  -4  -8  -1   44.78    1.23
   4  -8   1   44.11    1.21
  -4  -8  -1   42.40    1.20
   4   8  -1   43.68    1.22
   4   8  -1   44.06    1.21
   4  -8   1   44.53    1.23
  -4   8   1   44.78    1.12
   4   8  -1   42.72    1.20
  -4  -8   1   43.42    1.23
  -4   8  -1   46.55    1.17
  -4  -8   1   44.24    1.22
   4   8   1   43.87    1.18
   4  -8  -1   43.94    1.12
   4  -8  -1   44.44    1.16
   4  -8  -1   44.49    1.15
  -4  -8  -2   12.71    0.44
   4   8  -2   12.34    0.50
   4  -8   2   11.87    0.49
   4  -8   2   12.33    0.51
   4   8  -2   13.63    0.52
  -4  -8  -2   12.55    0.49
   4   8  -2   12.34    0.48
   4   8   2   12.38    0.47
   4   8   2   13.21    0.48
  -4   8  -2   12.95    0.50
  -4  -8   2   13.35    0.46
  -4  -8   2   12.25    0.48
  -4   8  -2   13.16    0.46
  -4  -8   2   12.65    0.49
   4  -8  -2   12.61    0.38
   4  -8  -2   12.73    0.36
   4   8  -3   26.31    0.84
  -4  -8  -3   26.04    0.81
   4  -8   3   25.96    0.87
  -4  -8  -3   26.42    0.79
   4   8  -3   26.72    0.90
   4   8  -3   25.82    0.89
   4  -8   3   25.99    0.90
  -4   8  -3   25.36    0.89
  -4   8  -3   25.14    0.88
   4   8   3   26.60    0.83
   4  -8  -3   25.83    0.68
   4   8   3   25.88    0.83
  -4  -8   3   25.87    0.77
  -4  -8   3   27.01    0.86
  -4   8  -3   25.45    0.81
   4   8  -4    8.19    0.64
   4  -8   4    7.49    0.59
   4   8  -4    7.71    0.48
  -4   8  -4    7.46    0.45
   4  -8  -4    7.56    0.32
   4   8   4    7.33    0.49
  -4  -8   4    7.68    0.52
  -4   8  -4    8.46    0.67
   4   8  -5   11.22    0.72
   4  -8   5   11.30    0.86
  -4  -8  -5   11.82    0.65
   5   8   0  119.83    2.99
  -5   8   0  118.60    2.94
   5  -8   0  116.36    2.92
  -5   8   0  118.14    2.84
   5   8   0  111.47    2.92
   5  -8   0  119.39    2.88
  -5  -8   0  121.68    3.01
   5  -8   0  116.38    2.96
  -5  -8   0  120.28    2.97
   5   8  -1   32.81    0.93
  -5  -8  -1   33.13    0.95
   5  -8   1   30.81    0.93
  -5   8   1   32.10    0.82
   5   8  -1   32.22    0.94
   5   8  -1   30.25    0.91
  -5   8   1   32.39    0.82
   5  -8   1   29.68    0.91
  -5  -8  -1   31.21    0.92
   5   8   1   31.32    0.90
   5  -8  -1   31.34    0.83
  -5  -8   1   32.07    0.93
   5  -8  -1   31.89    0.85
  -5  -8   1   31.42    0.94
   5  -8  -1   32.20    0.87
  -5   8  -1   32.44    0.88
  -5  -8   1   32.82    0.93
   5   8  -2   87.00    2.28
   5  -8   2   85.98    2.25
   5   8  -2   84.75    2.25
  -5  -8  -2   85.32    2.17
   5  -8   2   83.64    2.28
   5   8  -2   87.51    2.22
   5  -8  -2   84.88    2.07
   5  -8  -2   87.53    2.12
  -5  -8   2   84.42    2.17
  -5  -8   2   87.58    2.26
   5   8   2   89.21    2.24
  -5   8  -2   87.00    2.18
  -5  -8   2   86.13    2.23
  -5   8  -2   83.95    2.27
   5   8   2   85.43    2.26
   5   8  -3   20.07    0.75
   5   8  -3   18.55    0.68
   5  -8   3   19.14    0.72
   5   8  -3   19.66    0.74
  -5  -8  -3   19.37    0.64
   5  -8   3   18.12    0.73
  -5  -8   3   18.43    0.61
  -5  -8   3   18.53    0.68
   5  -8  -3   18.85    0.51
  -5  -8   3   19.99    0.69
  -5   8  -3   19.77    0.74
   5   8   3   18.99    0.68
   5   8   3   19.83    0.69
   5  -8   4   42.22    1.36
   5  -8   4   43.36    1.40
  -5  -8  -4   41.05    1.24
   5   8  -4   42.14    1.30
   5   8   4   43.88    1.31
   5  -8  -4   43.58    1.09
  -5  -8   4   40.80    1.28
   5   8  -5    9.65    0.72
  -5  -8  -5   10.81    0.64
   5  -8   5    9.50    0.91
   6   8   0    7.09    0.33
  -6   8   0    6.95    0.25
   6  -8   0    6.69    0.28
   6   8   0    6.93    0.32
   6  -8   0    6.92    0.30
  -6   8   0    6.49    0.28
  -6  -8   0    7.47    0.34
  -6  -8   0    6.69    0.32
   6  -8   0    6.83    0.30
  -6   8   1  207.62    4.89
   6   8  -1  206.35    5.08
  -6   8   1  207.90    4.95
  -6  -8  -1  202.00    5.01
   6   8  -1  208.65    5.02
  -6  -8  -1  199.88    5.08
   6   8  -1  188.80    4.95
   6  -8   1  205.73    5.07
  -6  -8  -1  200.03    4.92
   6  -8   1  200.80    5.00
   6   8   1  202.75    5.09
   6  -8  -1  208.02    4.92
  -6  -8   1  204.34    4.95
   6  -8  -1  210.75    4.86
   6  -8  -1  206.84    5.00
  -6   8  -1  208.33    4.90
  -6  -8   1  205.56    5.01
  -6  -8   1  195.95    5.07
   6   8   1  204.64    4.95
   6  -8   2    5.96    0.35
   6   8  -2    5.70    0.33
   6   8  -2    6.39    0.37
   6   8  -2    7.37    0.39
   6  -8   2    5.94    0.36
  -6  -8  -2    6.21    0.31
   6   8   2    6.25    0.36
  -6  -8   2    6.29    0.32
  -6  -8   2    6.67    0.36
   6  -8  -2    6.39    0.21
  -6   8  -2    5.80    0.30
   6  -8  -2    6.15    0.22
   6   8   2    6.40    0.36
  -6   8  -2    6.28    0.36
  -6  -8   2    5.74    0.33
   6   8  -3  121.92    3.11
   6  -8   3  121.89    3.17
  -6  -8  -3  122.46    3.07
   6   8  -3  124.50    3.18
   6  -8   3  125.32    3.23
   6   8  -3  121.80    3.21
  -6   8  -3  120.80    3.07
  -6  -8   3  123.89    3.13
  -6  -8   3  122.79    3.15
   6   8   3  124.25    3.14
   6   8   3  123.25    3.18
  -6  -8   3  114.52    2.99
  -6   8  -3  120.95    3.21
  -6  -8  -4    5.00    0.40
   6  -8   4    5.69    0.58
   6   8  -4    5.05    0.48
   6  -8   4    4.85    0.49
  -6  -8   4    5.51    0.49
   6   8   4    5.65    0.49
  -7  -8   0    0.62    0.14
   7   8   0    0.32    0.11
  -7  -8   0    0.62    0.15
   7  -8   0    0.45    0.11
  -7   8   0    0.54    0.08
   7  -8   0    0.61    0.11
  -7   8   0    0.37    0.10
   7   8   0    0.67    0.15
   7  -8   0    0.51    0.11
  -7   8   0    0.58    0.08
  -7   8   1    1.11    0.13
  -7   8   1    1.22    0.12
  -7  -8  -1    1.52    0.17
  -7  -8  -1    1.26    0.18
  -7  -8  -1    1.05    0.17
   7  -8   1    1.03    0.15
   7   8  -1    1.65    0.20
   7   8  -1    1.50    0.18
   7   8  -1    1.23    0.18
   7  -8   1    1.15    0.16
  -7  -8   1    1.63    0.20
   7  -8  -1    1.24    0.12
   7  -8  -1    1.48    0.15
   7   8   1    0.99    0.16
   7   8   1    1.66    0.21
  -7   8  -1    1.44    0.15
   7  -8  -1    1.26    0.13
  -7  -8   1    1.32    0.17
   7   8   1    1.24    0.16
  -7  -8   1    1.13    0.17
  -7  -8  -2    0.31    0.11
   7   8  -2    0.44    0.17
   7  -8   2    0.37    0.15
   7  -8   2    0.37    0.15
   7   8  -2    0.12    0.16
   7   8  -2    0.15    0.13
   7   8   2    0.51    0.19
  -7  -8   2    0.27    0.13
  -7  -8   2    0.31    0.15
   7  -8  -2    0.32    0.08
   7   8   2    0.43    0.16
  -7   8  -2    0.22    0.11
   7   8  -3    0.71    0.21
   7  -8   3    0.69    0.21
   7  -8   3    0.31    0.20
  -7  -8  -3    0.51    0.14
   7   8  -3    0.74    0.26
   7   8  -3    0.58    0.22
   7   8   3    0.55    0.21
  -7  -8   3    0.52    0.19
  -7  -8   3    0.74    0.19
  -7  -8   3    0.47    0.15
   7   8   3    0.42    0.21
  -7   8  -3    0.64    0.28
  -7   8  -3    0.46    0.16
   7  -8   4    0.07    0.29
   7  -8   4    0.02    0.32
  -7  -8  -4   -0.23    0.20
   7   8  -4   -0.02    0.26
   7   8   4    0.36    0.30
  -8  -8   0    6.10    0.34
   8   8   0    6.28    0.34
   8  -8   0    6.49    0.30
  -8  -8   0    6.55    0.30
   8  -8   0    6.29    0.30
   8   8   0    6.52    0.36
  -8   8   0    6.38    0.29
  -8   8   0    6.52    0.23
  -8  -8   0    6.37    0.36
   8  -8   0    6.33    0.30
  -8   8   0    6.17    0.23
   8   8   0    6.94    0.35
  -8  -8  -1    3.92    0.30
  -8   8   1    3.43    0.19
   8   8  -1    3.78    0.28
   8   8  -1    3.60    0.30
   8  -8   1    3.73    0.27
  -8  -8  -1    4.04    0.24
  -8   8   1    3.66    0.17
   8  -8   1    3.47    0.26
   8   8  -1    4.20    0.32
  -8  -8  -1    3.71    0.31
   8  -8  -1    3.65    0.21
  -8  -8   1    3.55    0.22
   8  -8  -1    3.53    0.21
  -8  -8   1    3.37    0.28
  -8  -8   1    3.58    0.29
  -8   8  -1    3.90    0.23
   8   8   1    4.13    0.31
  -8  -8   1    3.99    0.32
   8   8   1    3.40    0.25
   8   8   1    3.39    0.30
   8  -8  -1    3.67    0.21
   8   8   1    4.21    0.32
   8   8  -2    5.19    0.38
  -8  -8  -2    4.84    0.31
   8   8  -2    4.17    0.38
   8  -8   2    5.00    0.34
   8   8  -2    5.28    0.35
   8  -8   2    5.32    0.36
  -8  -8   2    5.00    0.32
  -8  -8   2    4.30    0.34
  -8   8  -2    5.29    0.29
   8   8   2    5.11    0.37
   8   8   2    4.61    0.38
   8  -8  -2    4.88    0.21
  -8  -8   2    4.97    0.34
  -8  -8  -3    2.12    0.24
   8   8  -3    2.42    0.37
   8  -8   3    1.88    0.29
   8  -8   3    2.11    0.30
   8   8  -3    1.85    0.30
   8   8   3    2.23    0.31
  -8  -8   3    2.35    0.26
  -8  -8   3    2.37    0.21
   8   8   3    1.91    0.28
  -8   8  -3    2.39    0.27
  -8  -8   3    2.36    0.21
  -8  -8   3    2.53    0.28
   8  -8   4    3.10    0.45
   8  -8   4    2.26    0.35
  -8  -8  -4    2.52    0.32
   8   8  -4    2.96    0.39
   8   8   4    2.56    0.39
   9   8   0    1.55    0.19
   9  -8   0    1.68    0.19
  -9   8   0    1.81    0.14
  -9   8   0    2.19    0.21
  -9   8   0    1.88    0.13
   9   8   0    2.03    0.22
   9  -8   0    1.49    0.17
  -9  -8   0    1.93    0.24
  -9  -8   0    1.93    0.19
   9   8   0    1.34    0.20
  -9  -8   0    1.70    0.20
   9  -8   0    1.57    0.17
  -9  -8   0    2.35    0.25
  -9  -8  -1    2.65    0.30
  -9  -8  -1    2.54    0.22
   9  -8   1    2.06    0.24
   9   8  -1    2.51    0.27
  -9   8   1    2.52    0.19
   9   8  -1    2.65    0.31
   9   8  -1    2.45    0.26
   9  -8   1    2.66    0.25
  -9  -8   1    2.44    0.21
   9   8   1    2.46    0.24
   9  -8  -1    2.68    0.21
   9   8   1    2.65    0.28
   9   8   1    2.56    0.30
   9   8   1    2.63    0.28
  -9  -8   1    2.50    0.27
  -9   8  -1    2.69    0.22
  -9   8  -1    2.57    0.21
   9  -8  -1    2.27    0.20
  -9  -8   1    2.89    0.27
  -9  -8   1    1.92    0.21
   9  -8  -1    2.31    0.19
  -9  -8  -2    1.16    0.17
   9   8  -2    1.11    0.26
   9  -8   2    1.38    0.22
   9   8  -2    1.62    0.22
   9   8  -2    1.53    0.25
   9  -8   2    1.42    0.22
  -9   8  -2    1.20    0.16
  -9  -8   2    1.39    0.20
  -9  -8   2    1.53    0.20
   9  -8  -2    1.24    0.13
   9   8   2    1.63    0.24
   9   8   2    1.23    0.22
  -9  -8   2    1.22    0.15
  -9  -8   2    1.21    0.21
   9  -8   3    1.92    0.30
   9   8  -3    1.40    0.25
   9  -8   3    1.48    0.28
  -9  -8  -3    1.54    0.23
   9   8  -3    1.32    0.40
  -9   8  -3    1.29    0.21
   9   8   3    1.28    0.30
   9   8   3    1.76    0.30
  -9  -8   3    1.81    0.17
  -9  -8   3    1.43    0.26
   9  -8   4    0.49    0.41
  -9  -8  -4    0.90    0.24
   9  -8   4   -0.29    0.34
   9   8  -4    0.60    0.31
  -9   8  -4    0.95    0.25
   9   8   4    0.87    0.38
  10   8   0   68.42    1.87
 -10  -8   0   67.81    1.86
  10  -8   0   70.08    1.81
  10  -8   0   67.33    1.78
  10  -8   0   69.60    1.84
  10   8   0   67.40    1.89
 -10   8   0   69.60    1.67
  10   8   0   67.65    1.85
 -10  -8   0   72.07    1.91
 -10  -8   0   66.93    1.78
 -10   8   0   69.44    1.67
 -10  -8   0   69.17    1.87
 -10  -8  -1   40.08    1.15
  10   8  -1   38.88    1.18
  10   8  -1   40.15    1.21
  10  -8   1   38.25    1.21
  10   8  -1   41.63    1.22
  10  -8   1   39.38    1.18
 -10   8   1   39.50    1.06
  10   8   1   39.44    1.23
 -10   8  -1   39.42    1.09
 -10  -8   1   41.75    1.20
 -10  -8   1   40.54    1.10
  10   8   1   39.45    1.21
  10   8   1   40.82    1.23
 -10   8  -1   40.77    1.09
 -10  -8   1   40.89    1.20
  10  -8  -1   40.14    1.08
  10  -8  -1   40.16    1.08
 -10  -8   1   40.31    1.18
  10  -8  -1   39.27    1.10
  10  -8   2   55.00    1.56
  10   8  -2   56.67    1.61
  10   8  -2   51.98    1.59
 -10  -8  -2   54.11    1.50
 -10  -8   2   54.43    1.53
 -10  -8   2   54.10    1.54
 -10  -8   2   54.43    1.45
 -10  -8   2   55.87    1.42
  10   8   2   55.75    1.62
  10   8   2   54.01    1.60
  10  -8  -2   54.14    1.37
  10  -8  -2   53.42    1.37
 -10  -8  -3   26.27    0.90
  10  -8   3   25.78    0.97
  10  -8   3   27.03    1.02
  10   8  -3   26.68    1.00
 -10  -8   3   28.06    0.73
 -10  -8   3   26.67    0.92
  10   8   3   26.71    1.03
 -10   8  -3   26.87    0.88
  10   8   3   25.66    0.99
  10  -8   4   31.22    1.27
  10   8  -4   29.11    1.13
  10  -8   4   29.15    1.18
  10   8   4   31.25    1.21
  11  -8   0   23.97    0.79
  11   8   0   24.67    0.83
  11  -8   0   24.61    0.78
 -11  -8   0   24.38    0.84
  11   8   0   25.51    0.87
  11   8   0   25.34    0.88
  11   8   0   23.82    0.84
  11  -8   0   24.13    0.78
 -11  -8   0   26.01    0.78
 -11  -8   0   25.18    0.86
  11   8  -1   23.53    0.80
  11  -8   1   22.31    0.78
 -11  -8  -1   21.98    0.74
  11   8  -1   22.95    0.85
  11   8  -1   23.21    0.84
  11  -8   1   22.71    0.79
  11  -8  -1   23.16    0.71
 -11  -8   1   23.52    0.83
 -11  -8   1   23.32    0.71
  11   8   1   23.52    0.85
  11  -8  -1   22.73    0.71
 -11  -8   1   23.71    0.82
  11   8   1   23.89    0.87
  11   8   1   22.56    0.79
  11  -8  -1   22.66    0.70
 -11   8  -1   23.67    0.70
 -11  -8   1   23.40    0.80
 -11   8  -1   23.78    0.72
  11   8   1   23.05    0.84
 -11  -8  -2   20.20    0.72
  11  -8   2   19.64    0.78
  11   8  -2   19.52    0.83
  11   8  -2   20.56    0.84
  11   8  -2   19.92    0.76
  11  -8   2   20.50    0.76
  11   8   2   22.39    0.84
  11  -8  -2   20.17    0.57
 -11  -8   2   19.95    0.68
 -11  -8   2   19.36    0.73
 -11  -8   2   20.50    0.75
  11   8   2   20.86    0.81
 -11  -8   2   21.06    0.63
  11  -8  -2   20.02    0.61
 -11   8  -2   20.47    0.69
  11  -8   3   16.26    0.75
  11  -8   3   16.92    0.82
 -11  -8  -3   16.39    0.73
  11   8  -3   15.81    0.73
  11   8   3   17.31    0.85
 -11   8  -3   16.15    0.66
  11   8   3   16.91    0.81
  12   8   0    3.64    0.39
  12  -8   0    2.64    0.27
  12   8   0    2.23    0.25
  12  -8   0    3.02    0.29
 -12  -8   0    2.97    0.28
  12   8   0    2.66    0.33
  12   8   0    2.13    0.26
  12   8  -1   42.29    1.27
 -12  -8  -1   42.09    1.22
  12  -8   1   41.93    1.28
  12  -8   1   42.88    1.26
  12   8  -1   40.82    1.32
  12   8   1   41.31    1.27
 -12  -8   1   42.88    1.27
  12  -8  -1   40.60    1.16
 -12  -8   1   43.04    1.17
  12   8   1   42.55    1.36
  12  -8  -1   42.22    1.17
 -12   8  -1   43.41    1.15
  12  -8  -1   40.73    1.17
  12   8   1   42.15    1.31
 -12  -8   1   40.70    1.27
 -12   8  -1   44.11    1.18
  12  -8  -1   42.14    1.19
 -12  -8   1   44.73    1.31
  12   8   1   42.66    1.34
  12  -8   2    2.43    0.30
  12   8  -2    3.07    0.32
  12  -8   2    2.35    0.30
  12   8   2    2.11    0.31
 -12   8  -2    3.46    0.32
 -12  -8   2    2.29    0.26
  12  -8  -2    2.42    0.22
 -12  -8   2    2.50    0.31
  12   8   2    2.14    0.32
  12  -8   3   29.79    1.10
  12  -8   3   30.20    1.17
  12   8  -3   29.17    1.06
  12   8   3   28.72    1.13
  12   8   3   29.66    1.20
 -12   8  -3   30.01    0.99
  13   8   0    0.48    0.19
 -13  -8   0    0.81    0.18
  13  -8   0    0.62    0.19
  13  -8   0    0.75    0.18
  13   8   0    0.57    0.23
  13   8   0    1.08    0.36
  13   8   0    0.60    0.21
  13   8  -1    0.28    0.22
  13  -8   1    0.24    0.19
  13  -8   1    0.13    0.18
  13   8  -1    0.49    0.22
  13   8  -1    0.20    0.20
  13   8  -1    0.10    0.35
 -13  -8  -1    0.30    0.19
 -13  -8   1    0.38    0.23
  13  -8  -1    0.31    0.16
  13   8   1    0.57    0.26
  13   8   1    0.25    0.22
  13  -8  -1    0.91    0.23
 -13   8  -1    0.46    0.16
  13  -8  -1    0.01    0.18
  13  -8  -1    0.17    0.19
 -13  -8   1    0.40    0.16
  13   8   1    0.12    0.32
  13  -8   2    0.80    0.26
  13  -8   2    0.34    0.27
 -13  -8  -2   -0.08    0.18
  13   8  -2    0.48    0.25
 -13   8  -2    0.36    0.19
  13  -8  -2    0.42    0.15
  13   8   2    0.50    0.28
 -13  -8   2    0.42    0.28
  13  -8  -2    0.56    0.15
  13   8   2    0.73    0.33
 -13  -8   2    0.45    0.16
  13  -8   3    0.23    0.33
  13  -8   3   -0.04    0.37
  13   8  -3    0.11    0.31
  13   8   3    0.67    0.40
 -13   8  -3    0.37    0.26
  14   8   0   -0.24    0.22
  14  -8   0    0.32    0.21
  14   8   0    0.20    0.20
  14  -8   0    0.21    0.18
  14   8   0   -0.18    0.23
 -14  -8   0   -0.04    0.17
 -14  -8  -1    0.40    0.20
  14   8  -1    0.20    0.23
  14  -8   1    0.47    0.22
  14  -8   1    0.10    0.22
  14   8  -1    0.21    0.23
  14   8  -1    0.76    0.28
  14  -8  -1    0.29    0.17
  14  -8  -1    0.56    0.19
 -14   8  -1    0.46    0.18
  14   8   1    0.24    0.29
  14   8   1    0.79    0.27
 -14  -8  -2   -0.06    0.24
  14  -8   2    0.04    0.26
  14   8  -2    0.15    0.28
  14  -8   2   -0.09    0.26
  14   8   2    0.05    0.30
  14  -8  -2    0.21    0.15
  14   8   2    0.18    0.31
  14  -8  -2   -0.05    0.18
 -14   8  -2    0.06    0.22
  15  -8   0    7.84    0.50
  15   8   0    6.79    0.60
  15   8   0    7.51    0.56
 -15  -8   0    7.68    0.46
  15  -8   0    7.65    0.50
  15   8   0    8.06    0.53
  15   8  -1    5.70    0.57
 -15  -8  -1    5.52    0.48
  15  -8   1    5.21    0.52
  15   8  -1    5.59    0.52
  15   8  -1    6.62    0.55
  15  -8   1    5.39    0.50
 -15  -8   1    6.55    0.43
  15   8   1    5.40    0.60
  15   8   1    6.22    0.58
  15  -8  -1    6.02    0.42
  15  -8  -1    5.30    0.43
  15   8  -2    8.05    0.63
 -15  -8  -2    7.95    0.55
  15   8  -2    6.09    0.59
  15  -8   2    5.83    0.64
  15   8   2    6.16    0.69
  15  -8  -2    5.99    0.36
 -15   8  -2    6.73    0.50
  15   8   2    6.42    0.73
  16  -8   0    6.87    0.53
  16   8   0    7.28    0.61
  16   8   0    7.58    0.67
 -16  -8   0    8.39    0.52
 -16  -8  -1   27.61    0.94
  16   8  -1   23.70    1.02
  16  -8   1   26.73    1.00
  16   8  -1   25.40    1.02
  16  -8  -1   24.30    0.86
  16  -8  -1   23.92    0.88
  16   8   1   26.81    1.11
   0  -9   0    0.00    0.07
   0  -9   0   -0.03    0.08
   0   9   0    0.03    0.07
   0   9   0    0.15    0.07
   0   9  -1    0.06    0.08
   0  -9   1   -0.02    0.09
   0  -9  -1   -0.05    0.08
   0  -9  -1   -0.01    0.07
   0  -9  -1    0.04    0.08
   0  -9   1    0.10    0.10
   0   9   1    0.14    0.06
   0   9  -1    0.08    0.09
   0  -9  -2    0.01    0.08
   0  -9  -2    0.07    0.08
   0  -9   2    0.19    0.12
   0   9   2    0.03    0.07
   0  -9   2   -0.02    0.11
   0   9  -2    0.06    0.11
   0  -9  -2   -0.04    0.08
   0   9  -2    0.10    0.09
   0   9   2   -0.07    0.08
   0  -9   3   -0.27    0.13
   0  -9  -3    0.16    0.10
   0  -9   3    0.08    0.16
   0  -9  -3    0.06    0.11
   0   9  -3   -0.37    0.16
   0   9   3   -0.04    0.11
   0   9  -3    0.14    0.20
   0   9   3   -0.03    0.09
   0   9  -3    0.00    0.12
   0  -9   3    0.18    0.17
   0   9   3   -0.05    0.10
   0   9  -4    0.24    0.31
   0   9  -4    0.10    0.19
   0  -9   4   -0.02    0.26
   0   9   4   -0.27    0.13
   0  -9   4    0.05    0.24
   0  -9  -4    0.42    0.20
   0  -9  -4    0.30    0.15
   0   9  -4    0.08    0.35
   0   9  -5    0.34    0.31
   1  -9   0    2.67    0.19
  -1  -9   0    2.63    0.20
   1   9   0    2.48    0.18
  -1   9   0    2.48    0.17
   1  -9   0    2.60    0.20
  -1  -9   0    2.47    0.20
   1  -9   1   10.55    0.41
   1   9  -1   10.27    0.40
   1  -9   1    9.60    0.40
  -1  -9  -1    9.85    0.38
  -1   9   1    9.75    0.31
  -1  -9  -1    9.68    0.38
  -1  -9  -1   10.56    0.38
  -1  -9   1   10.34    0.42
  -1  -9   1    9.89    0.40
  -1   9  -1   11.03    0.41
   1  -9  -1    9.65    0.37
   1  -9  -1    9.82    0.35
  -1   9  -1    9.56    0.37
   1   9   1    9.69    0.34
   1  -9  -1    9.61    0.36
   1  -9   2    2.23    0.25
   1   9  -2    1.94    0.22
  -1  -9  -2    1.99    0.18
   1   9  -2    2.12    0.24
  -1  -9  -2    1.91    0.19
  -1   9   2    2.09    0.15
  -1  -9  -2    2.02    0.19
   1  -9   2    1.81    0.21
   1   9  -2    1.92    0.20
  -1   9   2    2.36    0.16
   1  -9  -2    1.99    0.18
  -1   9  -2    2.33    0.21
   1  -9  -2    1.91    0.17
  -1   9  -2    1.87    0.20
   1   9   2    1.99    0.18
  -1  -9   2    2.07    0.24
   1   9   2    2.14    0.20
   1  -9  -2    2.20    0.17
  -1  -9   2    2.34    0.21
   1   9   2    2.23    0.18
  -1  -9   2    2.01    0.23
  -1   9   3    6.34    0.25
   1   9  -3    6.14    0.43
  -1   9   3    6.01    0.26
   1   9  -3    6.35    0.36
   1  -9   3    6.04    0.42
  -1  -9  -3    6.09    0.32
  -1  -9  -3    6.16    0.29
   1  -9   3    6.28    0.40
   1   9  -3    6.60    0.44
   1  -9   3    6.28    0.35
  -1   9  -3    6.05    0.35
  -1  -9   3    6.59    0.41
   1   9   3    6.50    0.31
   1  -9  -3    5.98    0.28
  -1   9  -3    5.36    0.39
  -1  -9   3    6.79    0.36
  -1   9  -3    5.95    0.42
   1   9   3    5.82    0.30
  -1  -9   3    6.40    0.40
   1   9  -4    0.88    0.37
   1   9  -4    1.58    0.26
   1  -9   4    2.23    0.35
   1  -9   4    1.95    0.33
  -1   9   4    1.15    0.16
  -1  -9  -4    1.73    0.20
  -1   9  -4    1.36    0.24
  -1   9  -4    1.71    0.38
  -1  -9   4    1.45    0.28
   1  -9  -4    1.69    0.19
  -1  -9   4    1.49    0.25
   1   9   4    1.52    0.22
   1  -9  -4    1.92    0.22
  -1  -9   4    1.66    0.30
  -1  -9  -5    4.69    0.49
   1  -9   5    4.07    0.54
   1   9  -5    3.42    0.41
  -1   9  -5    3.45    0.41
   2   9   0   14.34    0.47
  -2  -9   0   13.65    0.49
   2  -9   0   14.06    0.48
  -2   9   0   14.07    0.44
   2  -9   0   13.95    0.47
  -2  -9   0   13.79    0.49
  -2  -9  -1    1.85    0.19
  -2  -9  -1    1.96    0.18
   2   9  -1    1.80    0.19
  -2  -9  -1    2.38    0.19
  -2   9   1    2.19    0.14
   2   9  -1    1.73    0.19
   2  -9   1    1.80    0.21
   2  -9   1    1.93    0.19
  -2   9  -1    2.07    0.18
  -2  -9   1    2.06    0.20
  -2  -9   1    1.91    0.20
   2   9   1    2.10    0.17
   2  -9  -1    1.68    0.15
   2  -9  -1    2.08    0.18
   2  -9  -1    1.92    0.16
   2  -9   2   10.78    0.46
   2   9  -2   11.81    0.48
  -2   9   2   11.58    0.35
  -2  -9  -2   10.83    0.43
  -2  -9  -2   11.69    0.44
   2   9  -2   12.06    0.49
   2   9  -2   11.83    0.45
   2  -9   2   10.89    0.48
  -2   9   2   11.81    0.36
  -2   9   2   11.49    0.36
  -2  -9  -2   11.08    0.41
  -2  -9   2   11.68    0.45
   2   9   2   11.15    0.41
   2  -9  -2   11.31    0.37
  -2  -9   2   11.08    0.48
   2  -9  -2   11.31    0.39
   2   9   2   12.00    0.43
  -2   9  -2   11.15    0.48
  -2  -9   2   11.29    0.47
   2  -9  -2   11.59    0.38
  -2   9  -2   11.57    0.44
   2  -9   3    1.78    0.26
   2  -9   3    1.94    0.25
   2   9  -3    1.95    0.22
  -2  -9  -3    2.16    0.21
  -2   9   3    1.93    0.15
  -2  -9  -3    1.95    0.21
   2   9  -3    2.22    0.27
   2   9  -3    1.87    0.27
  -2   9   3    1.63    0.15
  -2  -9   3    2.02    0.25
  -2   9  -3    2.17    0.29
  -2   9  -3    2.18    0.29
   2   9   3    2.07    0.23
  -2  -9   3    1.96    0.23
   2   9   3    1.68    0.19
   2   9   3    1.85    0.22
   2  -9  -3    2.02    0.18
  -2  -9   3    2.16    0.25
  -2   9  -3    2.04    0.22
   2  -9   4    6.76    0.57
   2   9  -4    7.37    0.64
   2   9  -4    6.81    0.46
  -2  -9  -4    7.01    0.39
   2  -9   4    5.86    0.50
   2  -9  -4    6.79    0.36
  -2  -9   4    6.27    0.52
   2  -9  -4    6.76    0.34
   2   9   4    7.05    0.44
  -2  -9   4    6.59    0.52
  -2   9  -4    6.28    0.44
  -2  -9   4    6.54    0.43
   2   9  -5    1.33    0.39
  -2  -9  -5    2.24    0.33
   2  -9   5    2.55    0.50
  -2   9  -5    1.31    0.33
   3   9   0    3.30    0.22
  -3  -9   0    3.23    0.23
  -3   9   0    3.72    0.19
   3  -9   0    3.59    0.21
   3  -9   0    3.22    0.21
   3   9   0    3.19    0.24
   3  -9   0    3.48    0.21
  -3  -9   0    3.44    0.23
   3   9  -1    0.02    0.09
   3  -9   1   -0.02    0.09
   3  -9   1    0.14    0.09
  -3  -9  -1    0.04    0.09
  -3  -9  -1    0.10    0.09
  -3   9   1    0.13    0.06
  -3   9  -1    0.09    0.08
  -3  -9   1    0.08    0.09
   3  -9  -1    0.07    0.07
   3  -9  -1    0.13    0.08
   3  -9  -1    0.18    0.09
  -3  -9   1    0.02    0.11
   3   9   1    0.35    0.09
   3   9  -2    3.20    0.28
   3  -9   2    3.28    0.28
  -3   9   2    3.13    0.13
  -3  -9  -2    2.80    0.22
   3  -9   2    3.11    0.28
  -3  -9  -2    3.47    0.25
   3   9  -2    3.20    0.28
   3   9  -2    3.39    0.25
  -3   9   2    3.21    0.15
   3  -9  -2    2.91    0.17
  -3  -9   2    3.16    0.26
   3  -9  -2    3.15    0.19
  -3  -9   2    3.05    0.25
   3   9   2    3.16    0.24
   3   9   2    3.07    0.24
  -3   9  -2    3.06    0.27
   3  -9  -2    3.04    0.18
  -3  -9   2    2.85    0.26
  -3   9  -2    2.86    0.23
  -3  -9  -3    0.35    0.13
   3   9  -3   -0.27    0.19
   3   9  -3    0.61    0.17
   3   9  -3    0.33    0.21
   3  -9   3    0.40    0.19
   3  -9   3    0.45    0.19
  -3  -9  -3    0.06    0.15
  -3  -9   3    0.56    0.18
   3   9   3    0.64    0.17
  -3   9  -3    0.50    0.21
   3   9   3    0.61    0.16
  -3  -9   3    0.26    0.16
  -3   9  -3    0.42    0.19
  -3  -9   3    0.53    0.17
   3  -9   4    2.22    0.36
   3  -9   4    2.57    0.39
   3   9  -4    2.01    0.27
   3   9  -4    1.98    0.45
   3  -9  -4    2.48    0.25
  -3  -9   4    2.21    0.33
   3   9   4    2.80    0.31
  -3  -9   4    2.13    0.27
  -3   9  -4    2.19    0.27
  -3  -9   4    2.36    0.34
  -3  -9  -5    1.26    0.29
   3   9  -5    0.23    0.33
   3  -9   5    0.78    0.47
  -4  -9   0    1.72    0.19
   4   9   0    1.54    0.18
   4  -9   0    1.86    0.18
   4  -9   0    1.62    0.17
   4  -9   0    1.77    0.17
  -4   9   0    1.73    0.14
   4   9   0    1.78    0.18
  -4  -9   0    1.70    0.18
  -4  -9  -1   29.36    0.89
  -4   9   1   30.99    0.81
   4   9  -1   29.40    0.89
   4  -9   1   31.17    0.90
   4  -9   1   30.65    0.91
   4   9  -1   30.13    0.89
  -4  -9  -1   30.64    0.91
   4  -9  -1   29.56    0.81
  -4  -9   1   29.70    0.90
   4   9   1   30.15    0.86
  -4  -9   1   30.24    0.92
   4  -9  -1   31.11    0.85
  -4   9  -1   29.16    0.84
   4  -9  -1   29.83    0.83
   4  -9   2    1.69    0.22
   4   9  -2    2.09    0.22
   4   9  -2    1.45    0.18
  -4   9   2    1.61    0.11
  -4  -9  -2    1.49    0.16
  -4   9   2    1.43    0.11
   4  -9   2    1.39    0.19
  -4  -9  -2    1.39    0.18
   4   9  -2    1.56    0.23
   4   9   2    1.70    0.21
   4  -9  -2    1.55    0.13
   4   9   2    1.64    0.18
   4  -9  -2    1.48    0.14
  -4  -9   2    1.54    0.20
  -4   9  -2    1.40    0.16
   4  -9  -2    1.70    0.14
  -4   9  -2    1.35    0.19
  -4  -9   2    1.89    0.20
  -4  -9   2    1.43    0.18
   4   9  -3   20.30    0.76
  -4  -9  -3   18.83    0.63
   4  -9   3   18.53    0.72
   4  -9   3   20.83    0.77
   4   9  -3   20.02    0.76
   4   9  -3   18.41    0.68
  -4   9  -3   18.88    0.66
  -4  -9   3   19.33    0.71
  -4   9  -3   19.52    0.76
  -4  -9   3   18.93    0.71
   4   9   3   19.73    0.69
   4  -9  -3   18.84    0.54
  -4  -9   3   18.35    0.64
   4   9   3   18.08    0.67
   4  -9   4    1.43    0.32
   4  -9   4    1.67    0.34
   4   9  -4    1.82    0.27
  -4  -9  -4    1.59    0.23
   4  -9  -4    2.03    0.18
  -4  -9   4    1.56    0.31
   4   9   4    2.09    0.30
  -4   9  -4    1.18    0.23
  -5   9   0    2.57    0.16
   5   9   0    2.31    0.20
   5  -9   0    2.32    0.19
   5   9   0    2.38    0.22
   5  -9   0    2.54    0.19
  -5  -9   0    1.95    0.21
  -5  -9   0    2.23    0.22
   5  -9   0    2.43    0.19
   5   9  -1    0.29    0.10
  -5   9   1    0.25    0.07
   5  -9   1    0.28    0.12
  -5  -9  -1    0.14    0.12
   5   9  -1    0.13    0.11
   5   9  -1    0.12    0.12
   5  -9   1    0.33    0.12
  -5   9   1    0.30    0.06
  -5  -9  -1    0.26    0.11
  -5  -9   1    0.16    0.10
   5  -9  -1    0.29    0.08
  -5  -9   1    0.29    0.14
   5   9   1    0.39    0.12
  -5   9  -1    0.18    0.09
   5  -9  -1    0.25    0.09
   5  -9  -1    0.16    0.08
  -5  -9   1    0.29    0.11
   5   9  -2    2.14    0.25
   5  -9   2    1.61    0.21
  -5  -9  -2    1.83    0.19
   5   9  -2    1.82    0.23
   5  -9   2    1.67    0.21
   5   9  -2    2.26    0.24
  -5  -9  -2    1.62    0.20
   5   9   2    1.93    0.22
  -5  -9   2    1.53    0.21
  -5   9  -2    1.84    0.23
   5  -9  -2    1.87    0.12
  -5  -9   2    1.96    0.21
  -5  -9   2    1.54    0.20
   5  -9  -2    2.08    0.15
   5   9   2    2.12    0.24
  -5   9  -2    2.02    0.22
   5  -9  -2    1.81    0.14
   5   9  -3    0.23    0.23
   5  -9   3    0.19    0.21
   5   9  -3    0.26    0.16
   5   9  -3    0.48    0.24
  -5  -9  -3    0.20    0.13
   5  -9   3    0.52    0.20
  -5   9  -3    0.21    0.13
  -5  -9   3    0.30    0.18
   5  -9  -3    0.34    0.10
  -5  -9   3    0.14    0.16
  -5   9  -3    0.62    0.24
   5   9   3    0.37    0.18
  -5  -9   3    0.03    0.18
   5   9   3    0.27    0.18
   5   9  -4    1.23    0.27
  -5  -9  -4    0.99    0.21
   5  -9   4    1.37    0.38
   5  -9   4    0.89    0.30
   5   9   4    1.53    0.30
  -5  -9   4    0.99    0.30
  -6  -9   0    2.87    0.25
   6   9   0    2.90    0.24
   6  -9   0    2.99    0.21
   6   9   0    3.14    0.24
  -6   9   0    3.11    0.20
  -6   9   0    3.15    0.17
  -6  -9   0    3.18    0.25
   6  -9   0    2.96    0.22
   6  -9   0    2.89    0.22
   6  -9   1   23.45    0.77
   6   9  -1   24.01    0.77
  -6   9   1   23.92    0.66
  -6  -9  -1   24.58    0.79
  -6   9   1   24.41    0.65
   6   9  -1   23.89    0.76
  -6  -9  -1   23.28    0.76
   6  -9   1   24.29    0.76
  -6  -9   1   24.62    0.79
   6  -9  -1   24.03    0.70
   6  -9  -1   24.17    0.69
   6   9   1   24.95    0.78
  -6  -9   1   24.34    0.78
   6   9   1   24.20    0.75
  -6  -9   1   24.19    0.77
  -6   9  -1   24.83    0.71
   6  -9   2    1.97    0.22
   6  -9   2    2.28    0.26
   6   9  -2    2.51    0.26
   6   9  -2    1.94    0.22
   6   9  -2    2.52    0.28
  -6  -9  -2    2.31    0.22
  -6  -9   2    2.65    0.24
  -6  -9   2    2.60    0.29
   6  -9  -2    1.97    0.14
   6   9   2    1.73    0.22
  -6   9  -2    2.09    0.22
   6  -9  -2    2.40    0.16
   6   9   2    2.92    0.31
  -6   9  -2    2.88    0.30
  -6  -9   2    1.81    0.22
   6  -9   3   14.27    0.63
   6   9  -3   15.09    0.67
  -6  -9  -3   14.23    0.56
   6  -9   3   14.16    0.65
   6   9  -3   15.00    0.68
   6   9   3   14.66    0.62
  -6  -9   3   13.38    0.52
   6  -9  -3   13.81    0.41
   6   9   3   14.41    0.63
  -6   9  -3   15.06    0.56
  -6  -9   3   13.79    0.60
  -6  -9   3   12.47    0.63
  -6   9  -3   15.31    0.71
  -6  -9  -4    1.46    0.26
   6  -9   4    1.95    0.38
   6   9  -4    1.46    0.30
   6  -9   4    1.52    0.33
  -6  -9   4    1.69    0.34
   6   9   4    1.32    0.34
   7   9   0    0.22    0.13
   7   9   0    0.91    0.16
   7  -9   0    0.24    0.12
  -7  -9   0    0.37    0.13
   7  -9   0    0.30    0.10
  -7   9   0    0.40    0.08
   7  -9   0    0.46    0.13
  -7   9   0    0.46    0.11
  -7  -9   0    0.33    0.12
  -7   9   0    0.51    0.08
   7   9   0    0.43    0.12
  -7  -9  -1    0.36    0.14
   7   9  -1    0.27    0.16
   7  -9   1    0.31    0.12
  -7   9   1    0.67    0.10
  -7  -9  -1    0.27    0.10
   7  -9   1    0.29    0.12
  -7  -9  -1    0.33    0.13
  -7   9   1    0.42    0.09
   7   9  -1    0.50    0.13
   7   9   1    0.39    0.14
  -7  -9   1    0.29    0.14
  -7  -9   1    0.38    0.15
  -7  -9   1    0.31    0.14
   7   9   1    0.58    0.17
   7  -9  -1    0.47    0.11
  -7   9  -1    0.60    0.12
   7  -9  -1    0.27    0.09
   7  -9  -1    0.41    0.10
   7   9   1    0.17    0.11
   7   9  -2    0.21    0.17
   7   9  -2    0.35    0.20
  -7  -9  -2    0.40    0.13
   7  -9   2    0.31    0.16
   7   9  -2    0.26    0.16
   7  -9   2    0.45    0.15
  -7   9  -2    0.39    0.12
   7   9   2    0.50    0.18
   7  -9  -2    0.48    0.10
   7  -9  -2    0.47    0.08
  -7  -9   2    0.26    0.16
   7   9   2    0.62    0.20
  -7  -9   2    0.74    0.19
  -7  -9   2    0.56    0.18
   7   9  -3    0.06    0.24
  -7  -9  -3    0.02    0.14
   7  -9   3    0.35    0.21
   7   9  -3    0.04    0.28
   7  -9   3    0.06    0.21
   7   9  -3   -0.09    0.18
   7   9   3    0.07    0.22
  -7   9  -3    0.09    0.14
   7   9   3    0.07    0.20
  -7  -9   3    0.04    0.19
  -7  -9   3   -0.07    0.19
  -7  -9   3    0.05    0.17
   7  -9  -3    0.11    0.10
   7  -9   4    0.41    0.30
   7  -9   4    0.87    0.36
  -7  -9  -4    0.25    0.21
   7   9   4    0.49    0.35
  -8   9   0    0.87    0.14
   8   9   0    1.19    0.20
   8  -9   0    0.80    0.14
  -8  -9   0    1.04    0.14
  -8  -9   0    0.95    0.16
  -8   9   0    1.12    0.12
   8  -9   0    0.75    0.14
  -8   9   0    0.83    0.10
   8   9   0    0.95    0.19
   8  -9   0    0.53    0.12
  -8  -9   0    0.92    0.18
   8   9   0    0.88    0.15
  -8   9   1   12.95    0.39
  -8  -9  -1   12.54    0.48
  -8  -9  -1   12.95    0.53
   8  -9   1   11.69    0.50
   8   9  -1   12.94    0.52
   8   9  -1   12.58    0.54
   8  -9   1   12.05    0.50
  -8  -9  -1   13.93    0.56
  -8   9   1   12.90    0.41
  -8  -9   1   13.65    0.56
   8   9   1   12.97    0.54
   8   9   1   13.22    0.56
   8  -9  -1   12.98    0.44
   8  -9  -1   12.48    0.44
  -8  -9   1   13.55    0.53
   8  -9  -1   12.19    0.44
  -8  -9   1   12.93    0.53
  -8   9  -1   12.74    0.45
   8   9   1   12.84    0.51
   8  -9   2    1.09    0.20
   8   9  -2    1.21    0.22
   8  -9   2    0.99    0.22
   8   9  -2    0.31    0.24
   8   9  -2    0.99    0.24
  -8  -9   2    1.49    0.22
   8   9   2    0.83    0.21
  -8   9  -2    1.30    0.17
  -8  -9   2    1.26    0.22
   8  -9  -2    1.01    0.12
   8  -9  -2    1.19    0.13
  -8  -9   2    0.95    0.21
   8   9   2    1.26    0.25
  -8  -9  -3    6.63    0.40
   8   9  -3    6.60    0.59
   8  -9   3    5.92    0.47
   8   9  -3    5.89    0.45
   8  -9   3    5.18    0.48
  -8  -9   3    6.11    0.44
   8   9   3    6.29    0.51
  -8  -9   3    6.33    0.31
  -8  -9   3    5.46    0.37
  -8   9  -3    5.69    0.38
   8   9   3    5.04    0.45
  -8  -9   3    5.93    0.43
  -8  -9  -4    0.33    0.26
   8   9  -4    0.72    0.32
   8  -9   4    0.97    0.34
   8  -9   4    0.75    0.39
  -8   9  -4    0.87    0.26
  -9  -9   0    0.46    0.13
   9   9   0    0.54    0.13
  -9  -9   0    0.62    0.18
  -9   9   0    0.57    0.08
  -9   9   0    0.47    0.08
  -9  -9   0    0.46    0.16
   9  -9   0    0.71    0.14
   9   9   0    0.72    0.19
  -9   9   0    0.44    0.14
   9  -9   0    0.49    0.16
   9   9   0    0.49    0.19
   9  -9   0    0.58    0.14
   9   9  -1   27.01    0.92
   9  -9   1   26.72    0.88
   9   9  -1   27.55    0.92
   9  -9   1   26.83    0.87
  -9   9   1   27.40    0.76
   9   9  -1   28.56    0.90
  -9  -9  -1   28.86    0.94
  -9  -9  -1   27.38    0.84
  -9  -9   1   27.19    0.81
  -9  -9   1   28.09    0.91
   9  -9  -1   26.74    0.80
   9   9   1   27.10    0.88
   9   9   1   27.89    0.92
   9  -9  -1   27.90    0.79
   9   9   1   28.76    0.94
  -9  -9   1   27.89    0.91
  -9   9  -1   28.01    0.80
   9  -9  -1   26.53    0.79
  -9  -9   1   28.31    0.89
   9   9   1   27.59    0.91
   9  -9   2    0.55    0.19
   9  -9   2    0.70    0.19
   9   9  -2    0.48    0.26
   9   9  -2    0.44    0.23
  -9  -9  -2    0.60    0.15
   9   9   2    0.35    0.23
   9   9   2    0.63    0.21
  -9  -9   2    0.84    0.15
  -9  -9   2    0.86    0.21
  -9   9  -2    0.91    0.16
  -9  -9   2    0.78    0.21
  -9  -9   2    0.65    0.20
   9  -9  -2    0.72    0.09
  -9  -9  -3   18.18    0.70
   9  -9   3   18.36    0.82
   9  -9   3   17.55    0.77
   9   9  -3   18.99    0.76
  -9  -9   3   18.79    0.58
  -9   9  -3   18.39    0.70
  -9  -9   3   18.26    0.74
   9   9   3   18.57    0.82
  -9  -9  -4    0.71    0.27
   9  -9   4    0.47    0.43
   9  -9   4    0.87    0.39
   9   9  -4    0.59    0.34
   9   9   4    0.95    0.42
  10   9   0    8.91    0.50
 -10  -9   0    8.61    0.47
 -10   9   0    8.43    0.26
 -10  -9   0    8.10    0.38
  10  -9   0    8.23    0.41
 -10  -9   0    8.18    0.45
  10  -9   0    8.48    0.39
 -10  -9  -1   24.70    0.78
  10  -9   1   23.75    0.80
 -10   9   1   24.52    0.69
  10   9  -1   24.92    0.88
  10  -9   1   23.70    0.81
  10   9  -1   24.64    0.87
  10   9  -1   23.06    0.82
  10   9   1   23.17    0.81
  10  -9  -1   20.67    0.74
 -10  -9   1   23.78    0.84
 -10  -9   1   24.55    0.82
 -10   9  -1   24.92    0.73
  10   9   1   24.01    0.86
  10  -9  -1   23.15    0.72
  10   9   1   22.51    0.87
  10   9   1   24.44    0.87
 -10  -9   1   24.30    0.74
  10  -9  -1   23.71    0.71
 -10  -9   1   24.09    0.83
 -10   9  -1   24.74    0.72
  10   9  -2    6.11    0.58
 -10  -9  -2    7.55    0.40
  10  -9   2    6.33    0.43
  10   9  -2    8.36    0.55
  10   9  -2    7.35    0.44
  10  -9   2    7.42    0.48
  10   9   2    6.97    0.48
 -10   9  -2    7.36    0.38
 -10  -9   2    7.44    0.45
  10  -9  -2    7.03    0.27
  10  -9  -2    6.90    0.32
 -10  -9   2    7.36    0.34
 -10  -9   2    7.18    0.47
  10   9   2    7.82    0.52
 -10  -9   2    7.28    0.45
  10  -9  -2    6.79    0.25
 -10  -9  -3   15.90    0.67
  10  -9   3   16.34    0.80
  10   9  -3   16.74    0.72
  10  -9   3   15.50    0.75
  10   9   3   16.61    0.82
 -10   9  -3   16.60    0.66
  10   9   3   14.83    0.75
 -10  -9   3   17.09    0.54
 -10  -9   3   15.79    0.72
  10  -9   4    4.71    0.60
  10  -9   4    3.70    0.49
  10   9  -4    4.78    0.52
  10   9   4    4.77    0.57
  11  -9   0   -0.06    0.17
 -11  -9   0    0.15    0.21
  11  -9   0    0.17    0.14
 -11  -9   0    0.11    0.13
 -11  -9   0   -0.11    0.17
  11   9   0    0.19    0.15
  11   9   0    0.35    0.24
  11   9   0    0.41    0.21
  11  -9   1    0.01    0.15
 -11  -9  -1    0.34    0.15
  11   9  -1    0.13    0.17
  11  -9   1    0.01    0.16
  11   9  -1    0.21    0.27
 -11   9   1    0.22    0.15
  11   9  -1   -0.20    0.25
 -11  -9   1    0.43    0.25
  11   9   1    0.14    0.19
  11  -9  -1   -0.25    0.16
  11   9   1    0.12    0.15
  11  -9  -1    0.02    0.12
 -11  -9   1    0.06    0.18
  11   9   1    0.43    0.25
 -11   9  -1    0.04    0.15
 -11  -9   1    0.13    0.13
 -11  -9   1    0.29    0.19
 -11   9  -1    0.23    0.13
  11   9   1    0.21    0.23
  11  -9   2    0.04    0.20
  11   9  -2   -0.33    0.33
 -11  -9  -2   -0.06    0.16
  11  -9   2    0.12    0.20
  11   9  -2   -0.08    0.18
 -11  -9   2    0.19    0.24
 -11   9  -2    0.06    0.14
 -11  -9   2    0.03    0.15
  11   9   2    0.36    0.24
 -11  -9   2    0.25    0.21
  11  -9  -2   -0.08    0.10
  11   9   2   -0.15    0.24
  11  -9   3    0.49    0.31
  11   9  -3   -0.05    0.29
  11  -9   3    0.25    0.30
 -11   9  -3    0.10    0.23
  11   9   3    0.06    0.32
  11   9   3    0.55    0.37
  12   9   0    0.20    0.30
  12  -9   0   -0.13    0.15
  12   9   0    0.05    0.22
  12   9   0    0.15    0.16
 -12  -9   0   -0.15    0.22
 -12  -9   0    0.03    0.14
  12   9   0   -0.05    0.20
  12  -9   0    0.07    0.14
  12   9  -1    1.51    0.36
  12   9  -1    1.05    0.36
 -12  -9  -1    1.70    0.22
  12   9  -1    1.26    0.23
  12  -9   1    1.15    0.24
  12  -9   1    1.14    0.22
  12  -9  -1    1.17    0.20
 -12  -9   1    2.11    0.32
  12   9   1    1.94    0.32
 -12   9  -1    1.37    0.18
 -12  -9   1    1.50    0.26
  12  -9  -1    1.27    0.19
  12  -9  -1    1.44    0.19
  12   9   1    1.28    0.26
 -12   9  -1    2.37    0.25
  12   9   1    1.48    0.31
  12   9   1    1.26    0.23
  12  -9  -1    1.32    0.22
  12   9  -2    0.14    0.23
  12  -9   2   -0.11    0.21
  12  -9   2   -0.22    0.23
  12  -9  -2    0.09    0.12
  12  -9  -2    0.05    0.12
 -12   9  -2    0.02    0.17
  12   9   2    0.24    0.28
 -12  -9   2    0.42    0.17
  12   9   2    0.18    0.29
 -12  -9   2    0.01    0.24
  12  -9   3    0.75    0.35
  12   9  -3    1.03    0.33
  12  -9   3    1.24    0.39
  12   9   3    1.27    0.40
 -12   9  -3    1.31    0.28
  13   9   0    2.91    0.32
  13   9   0    3.26    0.36
 -13  -9   0    2.88    0.31
  13  -9   0    2.91    0.29
  13  -9   0    2.86    0.33
  13   9   0    2.75    0.33
  13  -9   1    8.16    0.51
  13   9  -1    7.61    0.54
  13  -9   1    7.86    0.50
 -13  -9  -1    7.95    0.46
  13   9  -1    7.08    0.50
  13  -9  -1    7.71    0.42
  13  -9  -1    6.98    0.40
 -13  -9   1    7.80    0.42
  13   9   1    7.93    0.57
 -13  -9   1    8.24    0.54
  13   9   1    7.40    0.55
  13   9   1    7.27    0.51
 -13   9  -1    8.18    0.39
  13  -9  -1    7.54    0.52
  13  -9   2    2.00    0.33
  13   9  -2    2.86    0.37
 -13  -9  -2    2.75    0.33
  13  -9   2    3.41    0.40
  13  -9  -2    2.30    0.21
 -13  -9   2    2.99    0.39
  13  -9  -2    2.72    0.24
  13   9   2    2.86    0.43
 -13   9  -2    2.46    0.28
 -13  -9   2    2.93    0.25
  13   9   2    3.09    0.41
  13  -9   3    4.72    0.57
  14   9   0    7.50    0.60
 -14  -9   0    6.72    0.44
  14   9   0    7.12    0.51
  14  -9   0    7.00    0.46
  14   9   0    6.40    0.53
  14  -9   0    7.31    0.47
  14  -9   1    7.50    0.53
  14   9  -1    7.29    0.59
  14   9  -1    7.19    0.53
  14  -9   1    6.79    0.52
  14   9  -1    7.07    0.53
 -14  -9  -1    6.94    0.47
 -14  -9   1    7.22    0.43
 -14   9  -1    7.23    0.39
  14  -9  -1    6.32    0.43
  14   9   1    7.77    0.58
  14   9   1    7.19    0.62
  14  -9  -1    7.64    0.44
  14  -9   2    6.55    0.56
  14  -9   2    5.90    0.61
  14   9  -2    6.39    0.59
 -14  -9  -2    5.37    0.50
 -14   9  -2    6.99    0.49
  14   9   2    6.23    0.64
  14  -9  -2    6.32    0.32
  14   9   2    7.35    0.71
  15   9   0    9.99    0.66
  15  -9   0   10.25    0.58
  15  -9   0   10.11    0.59
  15   9   0   11.39    0.72
  15   9   0   10.58    0.62
 -15  -9   0   10.51    0.56
  15  -9   1   10.59    0.65
  15  -9   1   12.26    0.66
  15   9  -1   13.20    0.70
  15   9  -1   10.24    0.67
 -15  -9  -1    9.45    0.58
  15   9  -1   11.51    0.72
 -15  -9   1   10.17    0.53
  15  -9  -1   10.62    0.55
  15   9   1   10.78    0.72
  15   9   1   11.25    0.78
  15  -9  -1   10.81    0.55
  16   9   0    0.98    0.41
   0 -10   0  113.40    2.85
   0  10   0  112.31    2.75
   0 -10   0  108.77    2.81
   0 -10  -1   33.12    0.92
   0 -10  -1   33.26    0.95
   0  10   1   33.35    0.88
   0 -10   1   32.50    0.99
   0 -10   1   33.01    0.98
   0  10  -1   31.92    0.93
   0 -10  -1   33.58    0.96
   0  10  -1   34.19    0.97
   0  10  -2   80.39    2.19
   0 -10  -2   85.37    2.09
   0  10   2   83.56    2.14
   0 -10   2   82.62    2.23
   0  10  -2   84.29    2.23
   0 -10   2   83.25    2.21
   0 -10  -2   82.32    2.17
   0  10  -2   84.54    2.15
   0  10   2   82.87    2.10
   0 -10  -2   85.04    2.13
   0 -10   3   21.48    0.79
   0  10   3   20.93    0.64
   0  10  -3   20.31    0.80
   0  10   3   19.85    0.62
   0  10  -3   21.29    0.80
   0  10   3   20.67    0.62
   0 -10   3   19.80    0.76
   0 -10  -3   20.49    0.65
   0 -10  -4   42.45    1.19
   0 -10   4   41.04    1.34
   0 -10   4   44.06    1.38
   0  10  -4   41.58    1.29
   1 -10   0    5.47    0.29
  -1 -10   0    5.68    0.30
  -1  10   0    5.72    0.26
   1 -10   0    5.37    0.29
  -1 -10   0    5.60    0.30
   1  10   0    6.02    0.27
  -1  10   1   99.14    2.44
   1  10  -1  103.02    2.60
   1  10  -1   98.53    2.53
  -1  10   1  101.03    2.51
  -1 -10  -1  102.93    2.51
  -1 -10  -1   99.78    2.59
  -1 -10  -1  101.32    2.56
   1 -10   1  100.99    2.58
   1 -10   1  102.14    2.62
  -1 -10   1  101.38    2.59
   1  10   1   98.51    2.48
   1 -10  -1  102.50    2.58
  -1  10  -1   98.06    2.52
  -1 -10   1  101.41    2.62
   1 -10  -1  101.47    2.49
   1 -10  -1  101.78    2.55
  -1 -10  -2    4.87    0.28
  -1 -10  -2    4.69    0.28
   1  10  -2    5.09    0.33
   1 -10   2    5.10    0.33
   1 -10   2    5.14    0.35
   1  10  -2    5.07    0.34
  -1  10   2    4.68    0.24
   1  10  -2    5.18    0.29
  -1  10   2    4.61    0.23
  -1 -10  -2    5.02    0.27
   1 -10  -2    4.74    0.26
   1  10   2    4.37    0.26
  -1  10  -2    5.09    0.29
   1 -10  -2    4.97    0.25
  -1 -10   2    4.75    0.34
   1  10   2    4.68    0.25
  -1  10  -2    5.33    0.34
  -1 -10   2    4.48    0.33
   1 -10  -2    5.16    0.27
   1  10  -3   63.14    1.75
   1 -10   3   60.82    1.71
  -1  10   3   61.76    1.53
   1  10  -3   61.98    1.73
  -1  10   3   60.30    1.54
   1 -10   3   59.81    1.73
  -1 -10  -3   60.91    1.58
   1  10   3   61.63    1.60
  -1 -10   3   55.53    1.62
  -1  10  -3   58.93    1.71
  -1 -10   3   60.78    1.73
  -1  10  -3   57.70    1.66
   1  10   3   57.58    1.57
   1 -10  -3   60.39    1.55
  -1  10  -3   63.85    1.75
  -1 -10   3   61.06    1.70
   1  10  -4    4.02    0.43
   1 -10   4    4.80    0.54
  -1 -10  -4    4.66    0.36
  -1 -10   4    4.15    0.49
   1 -10  -4    4.29    0.33
  -1 -10   4    4.05    0.47
  -1  10  -4    4.07    0.41
  -2 -10   0    1.53    0.18
   2  10   0    1.77    0.18
  -2 -10   0    1.46    0.17
   2 -10   0    1.36    0.17
  -2  10   0    1.69    0.16
   2 -10   0    1.67    0.19
   2 -10   1    1.98    0.23
  -2 -10  -1    2.10    0.20
   2  10  -1    2.07    0.20
  -2 -10  -1    2.00    0.20
   2 -10   1    2.04    0.20
  -2  10   1    2.00    0.11
  -2  10   1    2.06    0.17
   2  10  -1    2.04    0.21
   2 -10  -1    2.06    0.18
   2 -10  -1    1.93    0.19
   2 -10  -1    2.07    0.18
  -2  10  -1    1.69    0.18
  -2 -10   1    2.25    0.23
  -2 -10   1    2.52    0.23
   2  10   1    1.82    0.18
   2 -10   2    0.93    0.19
  -2 -10  -2    1.12    0.17
  -2 -10  -2    1.52    0.18
   2  10  -2    1.06    0.16
  -2 -10  -2    1.04    0.15
   2 -10   2    1.32    0.20
  -2  10   2    1.32    0.15
   2  10  -2    0.90    0.18
  -2  10   2    1.16    0.12
   2  10  -2    1.06    0.19
  -2 -10   2    1.35    0.19
   2 -10  -2    1.09    0.14
  -2 -10   2    1.01    0.19
   2 -10  -2    1.09    0.13
  -2 -10   2    1.05    0.17
  -2  10  -2    0.94    0.15
  -2  10  -2    0.85    0.17
   2 -10  -2    1.12    0.14
  -2 -10  -3    0.99    0.17
  -2  10   3    0.63    0.12
  -2  10   3    0.71    0.11
   2 -10   3    1.13    0.25
   2  10  -3    1.42    0.28
   2  10  -3    0.73    0.23
  -2 -10  -3    0.81    0.16
   2 -10   3    0.91    0.22
  -2 -10   3    0.67    0.20
  -2 -10   3    0.63    0.20
   2  10   3    0.80    0.18
   2 -10  -3    0.78    0.13
  -2  10  -3    1.23    0.25
   2  10   3    0.82    0.17
  -2  10  -3    1.08    0.20
  -2 -10   3    1.15    0.22
   2 -10   4    1.04    0.33
  -2 -10  -4    0.41    0.19
   2  10  -4    0.43    0.21
   2 -10   4    0.47    0.30
   2 -10  -4    0.46    0.16
  -2 -10   4    0.67    0.29
  -2 -10   4    0.58    0.30
  -2  10  -4    0.11    0.20
  -3  10   0    4.25    0.21
   3  10   0    4.24    0.27
   3 -10   0    4.15    0.25
   3 -10   0    4.24    0.24
  -3 -10   0    4.32    0.28
   3 -10   0    4.48    0.25
  -3 -10   0    4.61    0.29
   3  10   0    4.35    0.25
  -3 -10  -1    0.34    0.12
   3  10  -1    0.09    0.10
  -3 -10  -1    0.41    0.12
   3  10  -1    0.30    0.11
   3 -10   1    0.18    0.10
   3 -10   1    0.06    0.11
  -3  10   1    0.11    0.08
   3 -10  -1    0.06    0.09
   3 -10  -1    0.14    0.09
   3 -10  -1    0.23    0.08
  -3 -10   1    0.17    0.13
  -3  10  -1    0.13    0.09
  -3 -10   1    0.24    0.12
   3  10   1    0.12    0.09
  -3 -10  -2    3.24    0.26
   3  10  -2    3.47    0.31
   3 -10   2    3.08    0.31
   3  10  -2    3.17    0.27
  -3  10   2    3.25    0.15
  -3 -10  -2    2.82    0.25
   3  10  -2    3.27    0.32
  -3 -10  -2    3.32    0.26
   3 -10   2    3.01    0.26
  -3  10   2    3.23    0.16
  -3  10   2    3.36    0.18
  -3 -10   2    3.19    0.27
  -3 -10   2    3.67    0.30
   3  10   2    3.50    0.28
   3 -10  -2    3.04    0.20
   3 -10  -2    3.18    0.20
   3 -10  -2    3.23    0.20
  -3  10  -2    3.05    0.30
  -3  10  -2    3.37    0.25
  -3 -10   2    3.04    0.27
   3  10   2    2.84    0.26
   3 -10   3    0.22    0.21
  -3 -10  -3    0.24    0.13
   3  10  -3    0.38    0.16
   3  10  -3   -0.04    0.20
  -3 -10  -3    0.45    0.18
   3  10  -3    0.13    0.24
   3 -10   3   -0.11    0.19
  -3  10  -3    0.44    0.23
  -3 -10   3    0.03    0.15
   3  10   3    0.04    0.17
  -3  10  -3    0.07    0.14
   3  10   3    0.13    0.16
  -3 -10   3    0.10    0.17
  -3 -10   3    0.22    0.18
   3 -10  -3    0.29    0.12
   3  10  -4    1.45    0.28
   3 -10   4    1.55    0.36
   3 -10   4    1.53    0.33
  -3 -10  -4    1.88    0.24
  -3  10  -4    1.56    0.26
  -3 -10   4    2.15    0.35
   3 -10  -4    1.84    0.21
  -4 -10   0    0.41    0.12
  -4 -10   0    0.31    0.11
   4  10   0    0.41    0.11
   4 -10   0    0.36    0.10
  -4  10   0    0.34    0.09
   4 -10   0    0.28    0.10
  -4 -10  -1    0.64    0.14
  -4 -10  -1    0.39    0.13
   4 -10   1    0.56    0.13
  -4  10   1    0.64    0.10
   4  10  -1    0.54    0.15
   4 -10   1    0.40    0.13
   4  10  -1    0.59    0.13
   4 -10  -1    0.48    0.11
  -4  10  -1    0.42    0.10
   4  10   1    0.58    0.12
  -4 -10   1    0.50    0.16
   4 -10  -1    1.13    0.14
  -4 -10   1    0.40    0.13
   4 -10  -1    0.72    0.11
   4  10  -2    0.39    0.19
  -4 -10  -2    0.41    0.14
   4 -10   2    0.15    0.12
   4  10  -2    0.37    0.18
   4 -10   2    0.25    0.15
  -4  10   2    0.48    0.08
   4  10  -2    0.37    0.14
  -4 -10   2    0.52    0.16
   4 -10  -2    0.29    0.12
   4  10   2    0.44    0.14
   4 -10  -2    0.30    0.11
  -4  10  -2    0.18    0.15
  -4 -10   2    0.20    0.16
  -4  10  -2    0.38    0.13
   4 -10  -2    0.25    0.09
   4  10   2    0.39    0.16
  -4 -10   2    0.31    0.15
   4 -10   3    0.40    0.23
   4  10  -3    0.48    0.26
  -4 -10  -3   -0.01    0.13
   4 -10   3    0.04    0.20
   4  10  -3    0.76    0.19
  -4  10  -3    0.04    0.25
  -4 -10   3    0.21    0.20
  -4 -10   3    0.31    0.19
   4  10   3    0.53    0.19
   4  10   3    0.18    0.18
  -4 -10   3    0.04    0.18
   4 -10  -3    0.54    0.12
  -4  10  -3    0.21    0.15
   4  10  -4    0.36    0.23
   4 -10   4    0.22    0.35
   4 -10   4    0.17    0.29
  -4 -10  -4    0.55    0.21
  -4  10  -4    0.63    0.24
   4 -10  -4    0.39    0.17
  -4 -10   4    0.14    0.29
  -5  10   0   26.65    0.72
  -5  10   0   27.46    0.77
  -5 -10   0   25.23    0.82
   5 -10   0   25.84    0.79
   5  10   0   25.20    0.80
   5 -10   0   26.04    0.80
  -5 -10   0   27.15    0.85
   5  10   0   28.21    0.84
   5 -10   0   26.66    0.77
   5 -10   1   31.50    0.95
   5 -10   1   31.20    0.93
   5  10  -1   30.39    0.94
  -5 -10  -1   31.43    0.93
   5  10  -1   29.90    0.92
   5  10  -1   30.02    0.93
  -5 -10  -1   31.75    0.96
  -5  10   1   30.76    0.83
   5 -10  -1   30.04    0.86
   5 -10  -1   30.39    0.84
   5 -10  -1   30.18    0.87
  -5  10  -1   30.28    0.87
  -5 -10   1   30.84    0.95
  -5 -10   1   30.23    0.94
   5  10   1   29.89    0.90
   5  10  -2   22.27    0.74
   5 -10   2   23.60    0.79
  -5 -10  -2   21.41    0.75
  -5  10   2   21.09    0.56
  -5 -10  -2   21.40    0.69
   5 -10   2   20.32    0.74
   5  10  -2   22.23    0.79
  -5  10  -2   21.26    0.70
  -5 -10   2   22.07    0.76
   5  10   2   22.66    0.75
  -5 -10   2   21.62    0.73
   5  10   2   21.91    0.76
   5 -10  -2   21.47    0.63
   5 -10  -2   21.40    0.62
  -5 -10   2   22.20    0.77
  -5  10  -2   21.25    0.76
   5 -10   3   20.98    0.83
   5  10  -3   21.14    0.77
   5  10  -3   21.75    0.86
   5 -10   3   20.62    0.80
   5  10  -3   22.07    0.85
  -5  10  -3   21.04    0.73
  -5  10  -3   20.51    0.85
  -5 -10   3   20.13    0.72
  -5 -10   3   21.24    0.79
   5 -10  -3   20.11    0.59
  -5 -10   3   20.44    0.78
   5  10   3   20.83    0.77
   5  10   3   20.99    0.77
   5  10  -4   13.19    0.67
   5 -10   4   13.60    0.79
  -5 -10  -4   12.63    0.63
   5 -10   4   12.95    0.74
  -5 -10   4   13.47    0.71
   5  10   4   11.40    0.69
  -6  10   0   85.89    2.18
   6  10   0   87.48    2.27
   6 -10   0   87.27    2.21
   6 -10   0   86.81    2.17
  -6 -10   0   86.14    2.28
  -6  10   0   83.30    2.09
   6 -10   0   83.55    2.23
  -6 -10   0   87.07    2.25
   6  10   0   84.58    2.21
   6  10  -1   23.11    0.78
  -6  10   1   22.37    0.64
   6  10  -1   23.47    0.78
   6  10  -1   23.43    0.75
  -6 -10  -1   22.52    0.76
  -6 -10  -1   22.80    0.78
   6 -10   1   22.76    0.75
   6 -10   1   22.62    0.76
  -6  10  -1   23.10    0.69
  -6 -10   1   23.48    0.78
   6 -10  -1   22.94    0.68
  -6 -10   1   20.73    0.74
   6  10   1   24.12    0.77
   6 -10  -1   23.52    0.70
   6 -10  -1   22.10    0.66
  -6 -10   1   24.68    0.79
   6  10   1   22.89    0.74
   6 -10   2   68.25    1.85
   6 -10   2   65.14    1.80
   6  10  -2   64.44    1.78
   6  10  -2   64.87    1.82
  -6 -10  -2   63.66    1.72
  -6 -10  -2   65.36    1.83
  -6 -10   2   66.96    1.82
   6 -10  -2   62.66    1.63
   6  10   2   65.07    1.82
  -6  10  -2   67.23    1.73
  -6 -10   2   65.67    1.79
   6  10   2   66.30    1.80
   6 -10  -2   62.78    1.60
  -6 -10   2   66.90    1.75
   6 -10  -2   65.87    1.67
   6  10  -3   16.36    0.75
   6  10  -3   14.40    0.64
   6 -10   3   15.90    0.71
   6 -10   3   15.28    0.68
   6  10  -3   16.33    0.72
  -6 -10  -3   14.54    0.59
  -6 -10   3   13.88    0.59
   6  10   3   15.01    0.65
  -6 -10   3   15.61    0.66
  -6 -10   3   14.47    0.65
  -6  10  -3   14.96    0.60
   6  10   3   14.77    0.75
   6 -10  -3   15.28    0.46
   6  10  -4   34.61    1.18
  -6 -10  -4   33.54    1.10
   6 -10   4   33.65    1.28
   6 -10   4   36.41    1.27
   6  10   4   33.79    1.20
  -6 -10   4   34.88    1.19
  -7 -10   0   28.79    0.90
   7 -10   0   27.64    0.84
  -7  10   0   28.09    0.82
   7 -10   0   28.19    0.86
   7  10   0   27.53    0.90
  -7 -10   0   28.54    0.91
   7 -10   0   28.09    0.83
  -7  10   0   28.76    0.75
   7  10   0   28.30    0.88
   7 -10   1   36.82    1.08
   7  10  -1   36.47    1.09
  -7  10   1   36.16    0.96
   7 -10   1   36.47    1.10
  -7 -10  -1   34.59    1.03
  -7 -10  -1   37.54    1.13
  -7 -10  -1   35.70    1.09
   7  10  -1   37.28    1.12
   7  10  -1   38.03    1.11
   7 -10  -1   36.09    1.02
  -7  10  -1   36.93    1.01
  -7 -10   1   37.44    1.11
   7 -10  -1   37.05    1.01
   7 -10  -1   35.63    0.99
   7  10   1   35.67    1.07
  -7 -10   1   36.19    1.10
   7  10   1   36.33    1.11
  -7 -10   1   37.86    1.13
   7  10  -2   23.53    0.83
   7 -10   2   22.65    0.81
   7  10  -2   21.97    0.78
   7 -10  -2   21.83    0.64
   7 -10  -2   21.59    0.64
  -7 -10   2   23.40    0.78
  -7 -10   2   23.79    0.81
   7  10   2   23.03    0.81
  -7 -10   2   22.96    0.79
  -7  10  -2   22.40    0.73
   7  10   2   24.14    0.84
   7  10  -3   22.86    0.97
   7  10  -3   24.25    0.86
   7  10  -3   24.07    0.98
   7 -10   3   23.52    0.91
  -7 -10  -3   23.68    0.81
   7 -10   3   24.11    0.90
  -7 -10   3   24.06    0.88
  -7 -10   3   23.93    0.86
  -7 -10   3   21.47    0.77
   7  10   3   23.03    0.91
   7  10   3   23.96    0.87
  -7  10  -3   23.28    0.80
   7  10  -4   13.62    0.74
   7 -10   4   13.68    0.77
  -7 -10  -4   12.54    0.65
   7 -10   4   14.78    0.89
   7  10   4   12.41    0.80
   8 -10   0    0.05    0.10
   8 -10   0   -0.06    0.12
  -8  10   0   -0.04    0.07
   8  10   0   -0.18    0.15
  -8 -10   0   -0.04    0.14
   8 -10   0   -0.07    0.12
  -8  10   0    0.01    0.07
   8  10   0    0.08    0.16
  -8  10   0    0.19    0.12
  -8 -10   0   -0.07    0.14
   8  10   0    0.02    0.11
  -8  10   1    1.29    0.14
   8  10  -1    1.25    0.19
   8 -10   1    1.17    0.18
   8 -10   1    1.35    0.19
   8  10  -1    1.39    0.25
  -8 -10  -1    1.40    0.20
  -8 -10  -1    1.38    0.18
  -8 -10  -1    2.05    0.26
   8  10  -1    1.18    0.21
  -8 -10   1    1.47    0.23
   8 -10  -1    1.28    0.17
  -8 -10   1    1.25    0.20
   8  10   1    1.20    0.21
   8  10   1    1.25    0.19
  -8  10  -1    1.45    0.16
   8 -10  -1    1.71    0.17
   8  10   1    2.14    0.28
  -8 -10   1    1.30    0.22
   8 -10  -1    1.42    0.16
  -8 -10  -2    0.04    0.13
   8 -10   2   -0.04    0.18
   8  10  -2    0.14    0.25
   8  10  -2   -0.01    0.14
   8 -10   2   -0.13    0.15
  -8 -10   2   -0.02    0.17
   8  10   2   -0.32    0.19
   8 -10  -2    0.30    0.13
   8  10   2   -0.10    0.19
  -8 -10   2   -0.25    0.17
  -8 -10   2    0.30    0.21
  -8  10  -2   -0.07    0.13
   8 -10  -2    0.08    0.09
   8  10  -3    0.75    0.25
   8 -10   3    0.65    0.29
  -8 -10  -3    0.95    0.19
   8 -10   3    0.54    0.23
  -8 -10   3    0.91    0.27
  -8  10  -3    0.63    0.20
   8  10   3    0.58    0.26
   8  10   3    0.95    0.30
   8  10  -4   -0.08    0.29
  -8 -10  -4    0.38    0.27
   8 -10   4    0.20    0.41
   8 -10   4    0.45    0.39
  -9 -10   0    5.18    0.30
  -9  10   0    5.31    0.20
  -9 -10   0    4.72    0.37
  -9  10   0    5.25    0.20
   9  10   0    4.69    0.40
   9 -10   0    5.18    0.33
  -9 -10   0    5.68    0.37
   9  10   0    4.76    0.40
   9 -10   0    5.26    0.34
  -9  10   1   12.31    0.42
   9  10  -1   11.41    0.54
  -9 -10  -1   12.39    0.48
   9  10  -1   11.76    0.57
  -9 -10  -1   11.78    0.55
  -9 -10  -1   12.69    0.58
   9 -10   1   11.84    0.51
   9  10  -1   12.31    0.60
  -9 -10   1   11.87    0.54
   9  10   1   13.01    0.60
  -9 -10   1   11.77    0.55
   9 -10  -1   11.12    0.45
  -9  10  -1   11.85    0.44
  -9 -10   1   11.45    0.58
   9  10   1   11.58    0.58
   9  10   1   12.03    0.56
  -9 -10   1   12.56    0.47
   9  10   1   11.65    0.53
   9 -10  -1   12.10    0.44
   9 -10   2    3.99    0.40
   9  10  -2    4.33    0.38
   9  10  -2    3.21    0.38
  -9 -10  -2    4.26    0.34
   9 -10   2    4.75    0.37
   9  10   2    4.90    0.43
  -9 -10   2    4.17    0.39
  -9 -10   2    4.31    0.43
   9 -10  -2    4.12    0.21
  -9 -10   2    4.83    0.30
  -9 -10   2    4.43    0.41
   9 -10  -2    4.06    0.28
   9  10   2    4.87    0.46
  -9  10  -2    4.39    0.32
   9  10  -3    8.72    0.54
   9 -10   3    8.23    0.57
  -9 -10  -3    7.52    0.47
   9 -10   3    7.09    0.60
   9  10   3    7.69    0.58
  -9 -10   3    7.07    0.56
  -9  10  -3    7.42    0.47
  -9 -10   3    8.23    0.38
   9  10   3    8.28    0.65
   9 -10   4    2.67    0.46
  -9 -10  -4    2.23    0.35
   9 -10   4    2.69    0.53
   9  10  -4    2.98    0.45
 -10 -10   0   34.86    1.07
  10 -10   0   32.86    1.00
 -10 -10   0   33.12    0.98
  10 -10   0   33.29    1.01
 -10 -10   0   35.36    1.09
  10  10   0   33.47    1.09
  10 -10   0   30.11    0.98
  10  10   0   32.64    1.04
  10 -10   1   26.91    0.90
 -10 -10  -1   26.52    0.86
 -10 -10  -1   28.17    0.97
  10  10  -1   25.21    0.96
  10  10  -1   28.36    0.93
 -10  10   1   27.18    0.78
  10 -10   1   27.15    0.90
  10  10  -1   26.99    0.97
  10  10   1   27.08    0.94
 -10 -10   1   26.06    0.83
  10  10   1   27.47    0.91
 -10  10  -1   28.24    0.80
  10  10   1   27.15    0.98
 -10 -10   1   28.00    0.94
  10  10   1   27.94    0.97
 -10  10  -1   28.17    0.81
  10 -10  -1   26.76    0.84
 -10 -10   1   27.03    0.92
  10 -10  -1   26.79    0.83
  10 -10  -1   26.40    0.82
  10 -10   2   26.78    0.97
  10  10  -2   27.06    0.94
  10  10  -2   25.52    1.04
  10 -10   2   27.92    0.95
 -10 -10   2   27.16    0.92
 -10 -10   2   27.27    0.95
  10 -10  -2   27.17    0.79
  10 -10  -2   26.73    0.74
  10  10   2   28.84    1.00
  10  10   2   27.72    1.01
 -10  10  -2   27.79    0.86
 -10 -10   2   26.70    0.96
 -10 -10   2   28.87    0.83
  10 -10  -2   25.86    0.73
  10 -10   3   18.47    0.83
 -10 -10  -3   18.97    0.77
  10  10  -3   19.63    0.82
  10 -10   3   19.68    0.90
  10  10   3   20.49    0.89
 -10 -10   3   18.87    0.64
 -10  10  -3   20.44    0.76
 -10 -10   3   20.45    0.85
  11 -10   0    2.46    0.29
  11  10   0    2.63    0.34
 -11 -10   0    3.06    0.29
  11  10   0    2.53    0.28
  11  10   0    2.88    0.33
 -11 -10   0    2.28    0.29
  11 -10   0    2.60    0.30
 -11 -10   0    3.21    0.37
  11 -10   1   61.25    1.72
 -11 -10  -1   57.72    1.64
  11  10  -1   61.28    1.81
 -11  10   1   56.26    1.55
  11  10  -1   61.19    1.78
  11  10  -1   58.65    1.70
  11 -10   1   60.18    1.69
 -11  10  -1   62.36    1.58
 -11 -10   1   58.68    1.73
  11 -10  -1   59.95    1.62
  11  10   1   60.39    1.70
 -11 -10   1   60.10    1.61
 -11  10  -1   61.23    1.57
 -11 -10   1   61.08    1.71
  11 -10  -1   60.07    1.60
  11 -10  -1   58.85    1.58
  11  10   1   60.81    1.78
  11  10   1   59.38    1.75
  11 -10   2    2.93    0.36
 -11 -10  -2    3.23    0.35
  11  10  -2    2.64    0.31
  11 -10   2    2.91    0.34
 -11 -10   2    2.76    0.30
 -11  10  -2    2.46    0.26
  11  10   2    2.71    0.37
 -11 -10   2    2.53    0.32
  11  10   2    2.82    0.38
  11 -10  -2    2.06    0.19
  11 -10   3   42.86    1.44
  11  10  -3   40.52    1.36
  11 -10   3   39.94    1.36
  11  10   3   39.62    1.40
 -11  10  -3   40.23    1.25
 -12 -10   0    2.22    0.30
 -12 -10   0    2.60    0.27
  12  10   0    2.01    0.35
  12 -10   0    1.76    0.25
  12  10   0    2.48    0.39
 -12 -10   0    2.30    0.33
  12  10   0    2.19    0.31
  12 -10   0    2.05    0.25
  12 -10   1    1.07    0.23
  12 -10   1    0.78    0.22
  12  10  -1    1.03    0.24
 -12 -10  -1    1.36    0.22
  12  10   1    0.89    0.29
 -12 -10   1    1.04    0.19
  12 -10  -1    0.96    0.25
 -12 -10   1    1.08    0.29
 -12 -10   1    1.02    0.28
  12 -10  -1    0.99    0.20
 -12  10  -1    0.97    0.18
  12  10  -2    2.21    0.31
  12 -10   2    1.74    0.30
  12 -10   2    1.65    0.32
  12  10   2    1.32    0.34
 -12  10  -2    1.64    0.25
  12  10   2    2.15    0.38
  12 -10  -2    1.79    0.20
  12 -10  -2    2.00    0.21
 -12 -10   2    1.73    0.33
 -12 -10   2    1.64    0.24
  12 -10   3    0.21    0.37
  12  10  -3    0.25    0.35
  12 -10   3    0.28    0.32
  12  10   3    0.23    0.41
 -12  10  -3    0.49    0.27
  13  10   0    5.88    0.47
  13 -10   0    5.59    0.42
  13  10   0    6.25    0.50
 -13 -10   0    6.68    0.42
  13  10   0    7.65    0.58
  13 -10   0    5.93    0.43
  13  10  -1    4.57    0.47
 -13 -10  -1    4.27    0.39
  13 -10   1    4.68    0.45
  13 -10   1    4.74    0.45
 -13  10  -1    4.90    0.35
  13  10   1    4.97    0.52
  13 -10  -1    5.13    0.37
  13  10   1    4.78    0.54
  13 -10  -1    5.00    0.38
 -13 -10   1    5.40    0.38
 -13 -10  -2    4.45    0.45
  13 -10   2    4.72    0.51
  13  10  -2    5.84    0.56
  13 -10   2    5.23    0.58
 -13  10  -2    4.67    0.45
  13  10   2    5.50    0.62
  13 -10  -2    5.04    0.28
  13  10   2    4.53    0.52
 -13 -10   2    5.07    0.47
  14  10   0    0.73    0.30
 -14 -10   0    0.77    0.23
  14 -10   0    0.63    0.24
  14  10   0    0.84    0.32
  14 -10   0    0.89    0.26
  14  10  -1    0.40    0.29
  14  10  -1    0.95    0.28
  14 -10   1   -0.05    0.25
  14  10  -1    0.62    0.33
  14 -10   1    0.22    0.26
 -14 -10  -1    0.61    0.24
  14  10   1    1.02    0.34
 -14 -10   1    0.21    0.23
  14  10   1    0.44    0.33
  14 -10  -1    0.76    0.24
  14 -10  -1    0.23    0.20
  14 -10   2    0.40    0.35
  14  10  -2    0.43    0.35
  14 -10  -2    0.43    0.16
  14  10   2    0.19    0.38
 -14  10  -2    1.24    0.30
  14  10   2    1.10    0.45
  15  10   0    7.47    0.68
  15  10   0    8.91    0.68
  15 -10   0    8.62    0.57
  15 -10   0    9.18    0.60
 -15 -10   0    9.11    0.56
  15 -10   1    0.54    0.33
 -15 -10  -1    1.21    0.31
  15  10  -1    1.52    0.35
  15 -10   1    1.21    0.34
  15  10  -1    1.88    0.41
  15  10   1    1.18    0.37
  15 -10  -1    1.10    0.27
  15 -10  -1    1.29    0.28
  15  10   1    0.84    0.40
 -15 -10   1    1.46    0.29
   0  11   0    0.06    0.09
   0 -11   0    0.03    0.10
   0 -11   0    0.10    0.10
   0  11   1   -0.06    0.07
   0 -11  -1   -0.12    0.09
   0 -11   1   -0.08    0.10
   0  11  -1    0.15    0.12
   0 -11  -1    0.03    0.10
   0 -11  -1   -0.12    0.10
   0  11   1   -0.16    0.09
   0 -11   1    0.02    0.12
   0  11  -1   -0.02    0.08
   0  11  -2   -0.02    0.10
   0 -11   2    0.03    0.13
   0 -11  -2    0.08    0.11
   0 -11   2   -0.02    0.13
   0  11   2   -0.27    0.09
   0  11   2    0.11    0.11
   0 -11  -2   -0.10    0.10
   0 -11  -2    0.10    0.11
   0  11  -2    0.09    0.17
   0  11   3   -0.01    0.13
   0  11   3   -0.19    0.13
   0  11  -3   -0.21    0.23
   0 -11   3    0.02    0.19
   0 -11   3    0.19    0.19
   0  11   3    0.10    0.14
   0  11  -3   -0.11    0.14
   0 -11  -3   -0.04    0.14
   0 -11   4    0.16    0.29
   0 -11   4    0.33    0.32
   0  11  -4   -0.47    0.23
   0 -11  -4   -0.09    0.19
  -1 -11   0    4.60    0.28
   1  11   0    4.38    0.25
  -1  11   0    4.62    0.24
   1 -11   0    4.17    0.27
   1 -11   0    4.43    0.27
  -1 -11   0    4.40    0.28
  -1  11   1   50.84    1.33
  -1 -11  -1   48.75    1.40
  -1 -11  -1   50.20    1.35
  -1 -11  -1   50.84    1.39
  -1  11   1   49.52    1.27
   1  11  -1   50.38    1.41
   1 -11   1   51.45    1.43
   1 -11   1   51.04    1.41
   1  11  -1   50.15    1.37
   1 -11  -1   50.90    1.40
   1  11   1   50.72    1.31
   1 -11  -1   50.95    1.38
  -1 -11   1   51.85    1.42
  -1  11  -1   49.79    1.35
  -1 -11   1   49.40    1.43
   1 -11  -1   51.47    1.34
  -1  11   2    3.58    0.24
  -1  11   2    3.55    0.23
  -1 -11  -2    3.34    0.28
   1 -11   2    3.86    0.32
  -1 -11  -2    3.37    0.26
   1 -11   2    3.74    0.34
   1  11  -2    4.48    0.34
   1  11  -2    3.82    0.28
   1  11  -2    3.59    0.34
  -1 -11  -2    3.47    0.26
   1 -11  -2    3.72    0.25
   1  11   2    3.73    0.25
   1 -11  -2    3.30    0.25
   1 -11  -2    3.66    0.26
  -1  11  -2    3.93    0.27
  -1 -11   2    3.94    0.33
   1  11   2    3.33    0.26
  -1 -11   2    4.05    0.33
  -1  11  -2    3.75    0.34
   1 -11   3   30.69    1.06
   1  11  -3   31.86    1.09
   1 -11   3   31.67    1.04
   1  11  -3   30.55    0.99
  -1  11   3   30.22    0.86
   1  11  -3   32.65    1.08
  -1  11   3   30.95    0.85
  -1 -11  -3   29.70    0.92
  -1 -11   3   35.97    1.08
   1  11   3   31.45    0.94
   1 -11  -3   30.90    0.89
  -1 -11   3   32.00    1.05
  -1  11  -3   31.12    1.08
   1  11   3   30.26    0.92
  -1  11  -3   31.07    0.99
   1 -11   4    2.77    0.39
   1  11  -4    2.68    0.34
  -1 -11  -4    2.92    0.29
   1 -11   4    2.35    0.40
   1 -11  -4    2.55    0.27
  -1  11  -4    2.28    0.30
  -1 -11   4    2.60    0.43
  -2  11   0    0.66    0.11
   2 -11   0    0.63    0.13
   2  11   0    0.50    0.12
  -2 -11   0    0.52    0.14
  -2 -11   0    0.64    0.13
   2 -11   0    0.50    0.12
  -2  11   1    0.32    0.07
  -2 -11  -1    0.23    0.13
  -2 -11  -1    0.25    0.12
   2 -11   1    0.28    0.13
  -2  11   1   -0.03    0.10
   2 -11   1    0.08    0.11
   2  11  -1    0.14    0.11
   2  11  -1    0.44    0.13
  -2  11  -1    0.27    0.10
  -2 -11   1    0.14    0.11
   2  11   1    0.40    0.11
   2 -11  -1    0.24    0.11
   2 -11  -1    0.20    0.12
   2 -11  -1    0.21    0.10
  -2 -11   1    0.13    0.13
   2  11  -2    0.62    0.19
  -2  11   2    0.32    0.11
  -2 -11  -2    0.47    0.13
  -2  11   2    0.26    0.10
   2  11  -2    0.56    0.16
   2 -11   2    0.45    0.16
  -2 -11  -2    0.29    0.14
   2 -11   2    0.85    0.19
   2  11  -2    0.70    0.18
  -2 -11  -2    0.29    0.14
  -2  11  -2    0.58    0.15
   2 -11  -2    0.34    0.13
   2 -11  -2    0.49    0.13
   2 -11  -2    0.54    0.13
  -2  11  -2    0.44    0.17
  -2 -11   2    0.32    0.16
  -2 -11   2    0.46    0.17
   2  11  -3    0.03    0.25
  -2 -11  -3    0.21    0.14
   2  11  -3   -0.01    0.16
   2  11  -3    0.20    0.26
   2 -11   3    0.42    0.22
  -2  11   3    0.04    0.11
   2 -11   3    0.29    0.22
  -2  11   3    0.07    0.12
  -2 -11  -3   -0.03    0.16
  -2 -11   3    0.22    0.21
   2  11   3    0.00    0.17
  -2  11  -3    0.22    0.15
  -2  11  -3    0.34    0.23
   2 -11  -3    0.43    0.14
   2  11   3    0.19    0.16
  -2 -11   3    0.04    0.20
   2 -11   4    0.57    0.29
   2 -11   4    0.54    0.35
  -2 -11  -4    0.27    0.21
   2  11  -4    0.49    0.24
   2 -11  -4    0.04    0.18
   3 -11   0  363.21    8.90
  -3  11   0  377.43    8.74
   3 -11   0  378.67    8.78
  -3 -11   0  368.60    9.06
   3  11   0  364.21    8.80
  -3 -11   0  359.26    8.93
   3 -11   0  368.66    9.03
  -3 -11  -1   70.47    1.91
   3  11  -1   69.04    1.85
  -3 -11  -1   73.06    1.89
  -3  11   1   70.37    1.79
   3 -11   1   70.55    1.89
   3  11  -1   71.74    1.91
   3 -11   1   68.71    1.91
   3 -11  -1   70.48    1.80
   3 -11  -1   69.98    1.86
  -3  11  -1   71.79    1.82
   3  11   1   70.36    1.82
  -3 -11   1   71.33    1.92
  -3 -11   1   68.89    1.89
   3 -11  -1   71.29    1.84
  -3  11   2  300.10    6.91
  -3 -11  -2  294.15    7.04
   3  11  -2  286.23    7.16
  -3  11   2  296.79    7.00
   3 -11   2  290.58    7.08
   3 -11   2  284.25    7.17
   3  11  -2  284.40    7.06
  -3 -11  -2  283.89    6.92
   3  11  -2  288.82    6.97
  -3 -11  -2  286.97    7.14
   3  11   2  289.49    7.12
  -3  11  -2  281.25    6.94
  -3  11  -2  285.60    7.14
   3 -11  -2  291.51    7.07
   3 -11  -2  293.89    6.95
   3 -11  -2  286.83    6.86
  -3 -11   2  275.82    7.06
  -3 -11   2  286.81    7.16
   3 -11   3   47.32    1.46
   3  11  -3   47.02    1.47
  -3  11   3   47.72    1.17
  -3 -11  -3   46.89    1.32
   3  11  -3   45.55    1.38
   3  11  -3   46.53    1.46
  -3  11   3   47.69    1.18
  -3  11  -3   47.46    1.36
   3 -11  -3   46.58    1.24
   3  11   3   49.28    1.37
  -3 -11   3   47.55    1.43
  -3  11  -3   48.16    1.46
   3  11   3   46.51    1.36
  -3 -11   3   48.65    1.43
  -3 -11  -4  150.07    3.73
   3 -11   4  148.56    3.97
   3 -11   4  147.09    3.90
   3  11  -4  141.91    3.80
   3 -11  -4  157.05    3.65
  -3 -11   4  146.62    3.86
   4 -11   0    0.85    0.14
  -4  11   0    0.88    0.11
   4  11   0    0.75    0.15
   4  11   0    0.60    0.13
  -4 -11   0    0.71    0.16
  -4 -11   0    0.57    0.14
   4 -11   0    0.86    0.15
   4 -11   0    0.92    0.15
   4  11  -1    2.83    0.25
   4  11  -1    2.68    0.27
  -4  11   1    2.91    0.20
  -4 -11  -1    2.70    0.26
   4 -11   1    2.85    0.28
   4 -11   1    3.10    0.27
  -4 -11  -1    2.56    0.26
   4 -11  -1    2.63    0.22
   4 -11  -1    2.68    0.23
  -4 -11   1    2.71    0.29
   4 -11  -1    2.81    0.22
  -4  11  -1    2.62    0.22
  -4 -11   1    3.24    0.28
   4  11   1    3.08    0.24
   4  11  -2    0.59    0.17
  -4  11   2    0.68    0.10
   4 -11   2    0.49    0.18
   4 -11   2    0.47    0.18
   4  11  -2    0.47    0.20
  -4 -11  -2    0.74    0.17
  -4  11   2    0.53    0.07
  -4 -11  -2    0.29    0.15
   4  11  -2    0.30    0.19
  -4  11   2    0.44    0.08
  -4  11  -2    0.40    0.13
   4 -11  -2    0.65    0.13
   4  11   2    0.94    0.20
  -4 -11   2    0.54    0.19
   4  11   2    0.54    0.16
  -4 -11   2    0.33    0.20
   4 -11  -2    0.49    0.12
  -4  11  -2    0.15    0.17
   4 -11  -2    0.47    0.13
  -4 -11   2    0.49    0.19
   4  11  -3    1.83    0.30
   4  11  -3    1.45    0.32
   4  11  -3    1.65    0.24
   4 -11   3    2.03    0.29
  -4 -11  -3    1.41    0.19
   4 -11   3    2.05    0.32
   4 -11  -3    1.52    0.18
  -4 -11   3    1.87    0.28
  -4  11  -3    1.27    0.33
  -4  11  -3    1.49    0.22
   4  11   3    1.72    0.27
  -4 -11   3    1.53    0.27
   4 -11   4   -0.10    0.38
   4  11  -4    0.03    0.28
   4 -11   4   -0.06    0.30
  -4 -11  -4    0.43    0.22
  -4 -11   4    0.14    0.31
   5  11   0    1.33    0.18
  -5  11   0    1.71    0.16
   5 -11   0    1.93    0.22
   5 -11   0    1.34    0.17
   5 -11   0    2.10    0.22
   5  11   0    1.51    0.18
  -5 -11   0    1.79    0.23
  -5 -11   0    1.37    0.19
   5 -11   1    4.65    0.32
   5  11  -1    3.37    0.31
   5  11  -1    4.00    0.28
   5  11  -1    3.49    0.30
  -5 -11  -1    4.25    0.32
  -5  11   1    4.82    0.24
   5 -11   1    4.44    0.30
  -5 -11  -1    4.30    0.31
  -5 -11   1    4.36    0.33
   5 -11  -1    4.58    0.26
   5 -11  -1    4.29    0.26
  -5  11  -1    4.82    0.26
   5 -11  -1    4.06    0.25
   5  11   1    4.28    0.28
  -5 -11   1    4.25    0.31
  -5  11   2    1.59    0.14
   5 -11   2    1.63    0.25
  -5 -11  -2    1.40    0.19
   5  11  -2    1.45    0.23
   5  11  -2    1.84    0.27
  -5 -11  -2    1.57    0.22
   5 -11   2    1.47    0.23
   5  11  -2    1.13    0.19
  -5 -11   2    0.95    0.21
   5 -11  -2    1.62    0.16
   5 -11  -2    1.41    0.16
   5  11   2    1.70    0.25
  -5 -11   2    1.64    0.26
  -5 -11   2    1.11    0.22
   5  11   2    1.43    0.23
  -5  11  -2    1.33    0.18
   5  11  -3    3.04    0.36
  -5 -11  -3    2.71    0.30
   5  11  -3    3.08    0.41
   5 -11   3    3.05    0.35
   5  11  -3    2.64    0.29
   5 -11   3    2.37    0.32
   5  11   3    3.26    0.32
  -5  11  -3    3.17    0.33
   5 -11  -3    2.71    0.25
  -5 -11   3    3.66    0.42
  -5 -11   3    2.94    0.34
   5  11   3    3.17    0.33
   5 -11   4    0.72    0.36
   5  11  -4    0.82    0.29
  -5 -11  -4    1.24    0.26
   5 -11   4    0.60    0.42
  -5 -11   4    0.53    0.36
  -6 -11   0    0.13    0.13
  -6 -11   0    0.15    0.15
   6  11   0    0.23    0.14
   6 -11   0    0.21    0.13
   6  11   0    0.13    0.15
   6 -11   0    0.30    0.13
  -6  11   0    0.30    0.08
   6 -11   0    0.13    0.12
   6  11  -1    0.44    0.18
   6  11  -1    0.66    0.14
  -6 -11  -1    0.35    0.16
   6  11  -1    0.73    0.21
   6 -11   1    0.54    0.15
  -6 -11  -1    0.76    0.19
  -6  11   1    0.89    0.12
   6 -11   1    0.57    0.16
   6  11   1    0.60    0.15
  -6  11  -1    0.73    0.14
  -6 -11   1    0.59    0.17
   6 -11  -1    0.78    0.14
  -6 -11   1    0.58    0.16
   6 -11  -1    0.80    0.14
   6 -11  -1    0.90    0.14
   6  11  -2    0.33    0.23
  -6 -11  -2    0.30    0.18
   6 -11   2   -0.06    0.16
   6  11  -2    0.08    0.22
   6 -11   2    0.01    0.17
  -6 -11  -2    0.23    0.13
  -6 -11   2   -0.04    0.19
  -6 -11   2    0.36    0.20
   6 -11  -2    0.21    0.10
   6  11   2    0.32    0.21
   6 -11  -2    0.14    0.12
   6  11   2    0.11    0.18
   6 -11  -2    0.03    0.10
  -6 -11   2   -0.12    0.20
  -6  11  -2    0.49    0.15
   6  11  -3    0.55    0.22
   6 -11   3    0.53    0.26
   6 -11   3    0.35    0.22
  -6 -11  -3    0.19    0.18
   6  11  -3    0.41    0.34
  -6 -11   3    0.42    0.25
  -6 -11   3    0.36    0.23
  -6 -11   3    0.40    0.25
  -6  11  -3    0.38    0.18
   6  11   3    0.27    0.25
   6  11  -4    0.10    0.30
   6 -11   4   -0.14    0.35
   6 -11   4    0.00    0.38
  -6 -11   4    0.07    0.35
   7  11   0   75.75    2.04
   7 -11   0   71.78    1.92
   7 -11   0   75.05    1.99
  -7  11   0   74.96    1.83
  -7 -11   0   74.81    2.04
  -7 -11   0   76.13    2.02
   7  11   0   73.67    1.98
   7 -11   0   73.39    1.96
   7  11  -1   78.02    2.10
   7  11  -1   73.95    2.11
  -7 -11  -1   77.45    2.12
  -7 -11  -1   79.77    2.05
   7  11  -1   78.73    2.15
  -7 -11  -1   80.03    2.17
  -7  11   1   79.38    1.98
   7 -11   1   77.97    2.11
   7 -11   1   78.67    2.13
   7 -11  -1   77.97    1.99
   7 -11  -1   80.85    2.02
  -7 -11   1   80.76    2.16
   7  11   1   77.94    2.08
   7  11   1   78.56    2.13
   7 -11  -1   80.92    2.06
  -7  11  -1   80.90    2.01
  -7 -11   1   77.89    2.12
   7 -11   2   59.44    1.69
   7 -11   2   59.76    1.72
  -7 -11  -2   58.24    1.61
   7  11  -2   61.20    1.73
   7  11  -2   57.69    1.66
   7  11  -2   58.40    1.70
   7  11   2   58.87    1.69
  -7 -11   2   57.74    1.67
   7 -11  -2   56.92    1.53
  -7 -11   2   62.20    1.71
   7 -11  -2   57.55    1.50
   7  11   2   60.43    1.72
   7  11  -3   52.40    1.68
   7 -11   3   50.85    1.58
   7 -11   3   49.88    1.67
  -7 -11  -3   52.22    1.49
   7  11  -3   49.92    1.53
  -7 -11   3   51.72    1.58
   7  11   3   53.24    1.61
   7  11   3   54.20    1.57
  -7 -11   3   52.76    1.55
  -7  11  -3   51.89    1.49
   7  11  -4   34.00    1.21
   7 -11   4   33.00    1.29
  -7 -11  -4   32.46    1.12
   7 -11   4   34.79    1.36
   8  11   0   16.75    0.67
  -8  11   0   17.03    0.47
   8 -11   0   16.33    0.66
  -8  11   0   17.19    0.47
  -8 -11   0   16.53    0.67
   8 -11   0   16.45    0.60
   8  11   0   16.09    0.68
   8 -11   0   16.55    0.60
  -8 -11   0   17.02    0.65
   8  11  -1    2.57    0.27
   8  11  -1    2.09    0.29
  -8  11   1    2.02    0.18
  -8 -11  -1    1.91    0.21
   8  11  -1    1.78    0.25
  -8 -11  -1    2.47    0.29
   8 -11   1    2.38    0.26
   8 -11  -1    1.98    0.23
  -8 -11   1    2.45    0.29
   8 -11  -1    2.08    0.21
  -8  11  -1    1.90    0.19
   8  11   1    2.42    0.30
   8  11   1    2.04    0.27
  -8 -11   1    1.97    0.25
   8  11  -2   12.85    0.68
   8 -11   2   12.40    0.61
   8 -11   2   12.94    0.59
   8  11  -2   12.82    0.67
  -8 -11  -2   12.14    0.53
   8  11  -2   12.50    0.57
  -8  11  -2   12.52    0.52
   8  11   2   12.66    0.62
   8  11   2   14.06    0.66
  -8 -11   2   12.83    0.59
   8 -11  -2   12.64    0.46
  -8 -11   2   13.14    0.62
   8  11  -3    1.38    0.29
   8 -11   3    1.47    0.34
   8 -11   3    1.71    0.32
  -8 -11  -3    1.31    0.25
  -8 -11   3    1.70    0.30
   8  11   3    1.78    0.32
  -8  11  -3    1.34    0.26
   8 -11   4    6.71    0.69
  -8 -11  -4    5.44    0.56
   8 -11   4    7.45    0.76
   9 -11   0   50.06    1.40
   9  11   0   51.14    1.44
  -9  11   0   52.69    1.22
  -9  11   0   51.47    1.22
   9  11   0   49.01    1.48
  -9 -11   0   49.24    1.45
  -9 -11   0   50.01    1.48
   9 -11   0   48.19    1.39
  -9 -11   0   47.61    1.37
   9 -11   0   47.45    1.40
   9  11  -1   35.82    1.17
  -9  11   1   36.05    0.98
   9  11  -1   35.81    1.13
  -9 -11  -1   35.97    1.14
   9 -11   1   34.92    1.12
  -9 -11  -1   35.33    1.07
   9  11  -1   32.27    1.14
   9 -11   1   37.60    1.12
  -9 -11  -1   36.52    1.18
   9 -11  -1   36.04    1.02
   9  11   1   36.69    1.11
  -9 -11   1   35.78    1.15
   9 -11  -1   36.46    1.03
   9  11   1   36.48    1.18
  -9  11  -1   36.85    1.01
  -9 -11   1   37.35    1.15
   9 -11  -1   36.05    1.04
   9  11  -2   40.57    1.34
   9 -11   2   41.87    1.31
   9  11  -2   39.70    1.26
  -9 -11  -2   41.31    1.22
   9 -11   2   41.33    1.28
   9  11  -2   40.57    1.34
   9  11   2   40.53    1.33
   9 -11  -2   39.82    1.11
  -9  11  -2   41.82    1.19
  -9 -11   2   42.46    1.30
   9 -11  -2   38.68    1.08
  -9 -11   2   42.29    1.28
  -9 -11  -3   24.42    0.89
   9  11  -3   26.47    0.97
   9 -11   3   24.93    1.03
   9 -11   3   24.50    0.97
  -9 -11   3   24.96    0.97
  -9  11  -3   24.46    0.89
  -9 -11   3   25.91    0.80
   9  11   3   26.30    1.01
  10  11   0    0.18    0.16
  10  11   0    0.12    0.24
  10 -11   0   -0.02    0.16
  10 -11   0    0.12    0.14
 -10 -11   0    0.24    0.15
 -10 -11   0    0.13    0.18
 -10  11   1    0.15    0.15
 -10 -11  -1    0.23    0.15
  10  11  -1    0.37    0.19
  10 -11   1    0.45    0.19
  10  11  -1    0.27    0.26
 -10 -11  -1    0.62    0.23
  10 -11   1    0.47    0.19
  10  11   1    0.17    0.23
  10 -11  -1    0.42    0.21
 -10 -11   1    0.07    0.20
 -10 -11   1    0.45    0.15
 -10  11  -1    0.42    0.14
  10  11   1    0.28    0.18
  10 -11  -1    0.30    0.15
 -10  11  -1    0.50    0.17
 -10 -11   1    0.49    0.22
  10 -11  -1    0.36    0.17
  10  11   1    0.61    0.27
  10 -11   2    0.09    0.22
  10 -11   2   -0.04    0.19
  10  11  -2    0.06    0.20
  10 -11  -2    0.10    0.13
 -10 -11   2   -0.21    0.25
 -10  11  -2   -0.06    0.17
 -10 -11   2    0.29    0.27
 -10 -11   2    0.19    0.16
  10  11   2    0.37    0.29
  10  11   2    0.32    0.26
  10 -11   3    0.41    0.32
  10  11  -3    0.11    0.27
  10 -11   3    0.12    0.33
 -10 -11  -3   -0.25    0.24
 -10  11  -3    0.03    0.24
 -10 -11   3    0.21    0.20
 -10 -11   3    0.03    0.33
  10  11   3   -0.06    0.31
  11 -11   0    3.86    0.34
 -11 -11   0    3.26    0.33
 -11 -11   0    4.43    0.45
  11 -11   0    4.26    0.36
  11  11   0    3.43    0.41
 -11 -11   0    4.02    0.42
 -11 -11  -1    0.56    0.18
  11 -11   1    0.78    0.23
 -11 -11  -1    1.06    0.28
  11 -11   1    0.53    0.22
  11  11  -1    1.28    0.25
  11  11   1    1.03    0.28
  11  11   1    0.93    0.30
  11 -11  -1    0.76    0.17
  11  11   1    0.56    0.21
 -11 -11   1    0.89    0.30
 -11 -11   1    0.81    0.19
  11 -11  -1    0.40    0.23
 -11 -11   1    0.64    0.25
 -11  11  -1    0.90    0.18
  11  11  -2    3.61    0.38
  11 -11   2    2.54    0.33
  11 -11   2    2.56    0.34
  11  11   2    2.90    0.40
 -11  11  -2    2.76    0.28
 -11 -11   2    4.23    0.48
  11  11   2    2.34    0.39
  11 -11  -2    3.34    0.23
  11 -11  -2    3.03    0.22
 -11 -11   2    3.14    0.33
  11 -11   3    0.70    0.33
  11  11  -3    0.56    0.34
  11 -11   3    0.25    0.35
  11  11   3    1.01    0.41
 -11  11  -3    0.56    0.28
 -12 -11   0    1.14    0.34
  12 -11   0    1.16    0.25
 -12 -11   0    0.68    0.26
  12  11   0    1.09    0.30
  12 -11   0    0.84    0.21
 -12 -11   0    1.00    0.23
  12 -11   1    2.04    0.29
  12  11  -1    1.64    0.29
 -12 -11  -1    1.87    0.27
  12 -11   1    1.72    0.29
  12  11   1    1.76    0.36
  12 -11  -1    1.78    0.23
 -12 -11   1    1.80    0.24
 -12 -11   1    1.86    0.35
 -12 -11   1    1.70    0.32
  12  11   1    1.05    0.31
  12 -11  -1    2.05    0.24
 -12  11  -1    1.59    0.21
  12  11  -2    0.82    0.29
  12 -11   2    0.78    0.29
  12 -11   2    0.41    0.30
  12  11   2    1.39    0.35
 -12 -11   2    0.85    0.23
 -12  11  -2    1.01    0.24
  12  11   2    1.03    0.44
  12 -11  -2    0.76    0.15
  12 -11  -2    0.68    0.15
  13  11   0  120.99    3.31
  13 -11   0  122.24    3.27
 -13 -11   0  129.32    3.39
 -13 -11   0  125.76    3.18
  13 -11   0  125.19    3.22
  13  11   0  124.69    3.39
 -13 -11  -1   51.89    1.51
  13 -11   1   53.90    1.60
  13  11  -1   52.00    1.58
  13 -11   1   52.79    1.57
 -13 -11   1   52.17    1.46
  13  11   1   52.46    1.67
  13 -11  -1   51.03    1.48
 -13 -11   1   52.28    1.59
  13  11   1   50.90    1.63
  13  11   1   50.81    1.66
  13 -11  -1   50.68    1.43
  13 -11   2  100.79    2.78
  13 -11   2  100.52    2.84
  13  11  -2  103.91    2.78
 -13  11  -2  100.45    2.61
  13  11   2   98.25    2.84
  13  11   2  103.86    2.91
 -13 -11   2  101.62    2.58
 -14 -11   0   -0.22    0.21
  14  11   0    0.30    0.34
  14 -11   0   -0.25    0.21
  14  11   0    0.04    0.29
 -14 -11  -1   -0.21    0.25
  14 -11   1    0.09    0.26
  14  11  -1    0.27    0.31
  14 -11   1    0.07    0.28
  14  11  -1   -0.04    0.35
  14 -11  -1    0.51    0.25
 -14 -11   1    0.55    0.37
  14  11   1   -0.28    0.37
 -14 -11   1    0.08    0.25
  14 -11  -1    0.33    0.22
  14  11   1    0.04    0.34
  15 -11   0   11.30    0.68
 -15 -11   0   11.93    0.65
  15  11   0   10.93    0.86
   0  12   0   90.47    2.25
   0 -12   0   90.93    2.34
   0 -12   0   86.57    2.36
   0 -12   1   40.62    1.21
   0  12  -1   40.49    1.16
   0 -12  -1   40.98    1.19
   0 -12  -1   41.55    1.21
   0 -12  -1   40.72    1.15
   0  12   1   41.17    1.09
   0  12  -1   43.85    1.21
   0 -12   1   42.22    1.24
   0  12  -2   67.67    1.82
   0 -12  -2   69.94    1.83
   0  12  -2   68.10    1.89
   0 -12  -2   68.00    1.77
   0  12   2   69.44    1.81
   0 -12  -2   66.54    1.85
   0  12   2   65.54    1.76
   0 -12   2   68.29    1.89
   0 -12   2   70.28    1.92
   0  12   3   25.75    0.81
   0  12  -3   27.56    0.90
   0 -12   3   26.66    0.97
   0  12  -3   27.76    1.02
   0  12   3   26.32    0.79
   0 -12  -3   25.50    0.82
   0 -12   3   25.54    0.99
   0 -12   4   35.56    1.27
   0  12  -4   36.13    1.22
   0 -12  -4   38.83    1.12
   1 -12   0   17.62    0.61
  -1  12   0   17.15    0.55
  -1 -12   0   17.09    0.63
  -1 -12   0   17.30    0.62
   1 -12   0   16.43    0.61
   1  12   0   17.19    0.57
   1  12  -1   12.07    0.50
  -1  12   1   11.74    0.39
   1 -12   1   12.05    0.51
  -1 -12  -1   11.94    0.50
   1  12  -1   12.31    0.48
  -1 -12  -1   12.60    0.50
  -1 -12  -1   12.34    0.50
   1 -12   1   12.25    0.52
  -1  12  -1   12.12    0.47
  -1 -12   1   12.31    0.53
   1 -12  -1   12.40    0.49
   1 -12  -1   12.76    0.47
  -1 -12   1   11.56    0.51
   1  12   1   12.16    0.43
   1 -12  -1   12.07    0.49
  -1  12   2   13.09    0.48
  -1 -12  -2   13.49    0.56
   1 -12   2   14.40    0.60
   1 -12   2   14.57    0.62
   1  12  -2   14.87    0.57
  -1 -12  -2   13.70    0.53
   1  12  -2   15.66    0.63
  -1 -12  -2   15.73    0.57
  -1  12   2   14.80    0.50
  -1  12  -2   14.29    0.55
  -1 -12   2   13.36    0.58
   1  12   2   14.26    0.53
  -1  12  -2   14.67    0.62
   1 -12  -2   13.63    0.53
   1 -12  -2   14.16    0.52
   1 -12  -2   13.70    0.53
  -1 -12   2   14.62    0.62
  -1  12   3    8.70    0.39
   1  12  -3    7.99    0.46
   1  12  -3    9.60    0.63
  -1  12   3    9.63    0.37
   1 -12   3    9.32    0.51
  -1  12   3    7.73    0.37
   1 -12   3    9.79    0.57
  -1 -12  -3    7.86    0.45
  -1  12  -3    8.44    0.61
  -1  12  -3    8.41    0.46
   1 -12  -3    8.28    0.43
   1  12   3    8.92    0.44
  -1 -12   3    8.52    0.53
   1  12   3    9.09    0.45
  -1 -12   3    9.06    0.56
   1 -12   4    8.51    0.71
   1 -12   4    9.67    0.71
   1  12  -4    7.71    0.57
  -1 -12  -4    8.45    0.51
   1 -12  -4    9.11    0.49
  -1 -12   4    8.57    0.66
  -2 -12   0    0.64    0.17
   2 -12   0    0.52    0.14
   2  12   0    0.73    0.14
  -2 -12   0    0.38    0.15
   2 -12   0    0.44    0.14
  -2  12   0    0.47    0.11
   2 -12   0    0.31    0.13
   2 -12   1    7.59    0.39
  -2  12   1    7.50    0.26
   2 -12   1    7.54    0.41
  -2 -12  -1    7.12    0.39
   2  12  -1    7.63    0.40
  -2  12   1    7.64    0.33
  -2 -12  -1    7.18    0.38
   2  12  -1    7.81    0.37
  -2 -12   1    7.95    0.41
  -2  12  -1    7.54    0.35
  -2 -12   1    7.76    0.41
   2 -12  -1    7.19    0.35
   2  12   1    7.63    0.34
   2 -12  -1    8.17    0.37
   2 -12  -1    8.00    0.37
  -2  12   2    0.35    0.13
  -2 -12  -2    0.36    0.15
   2  12  -2    0.49    0.19
  -2 -12  -2    0.12    0.14
   2  12  -2    0.32    0.15
   2  12  -2    0.66    0.23
   2 -12   2    0.20    0.18
   2 -12   2    0.61    0.20
  -2  12   2    0.26    0.12
  -2 -12  -2    0.48    0.17
  -2 -12   2    0.34    0.15
  -2  12  -2    0.26    0.13
   2 -12  -2    0.28    0.13
   2 -12  -2    0.33    0.12
  -2 -12   2    0.30    0.19
  -2  12  -2    0.15    0.19
   2 -12  -2    0.30    0.13
   2  12  -3    3.95    0.37
   2 -12   3    4.64    0.45
  -2  12   3    4.11    0.27
  -2 -12  -3    4.15    0.32
   2  12  -3    2.80    0.37
   2 -12   3    3.91    0.46
  -2  12   3    3.75    0.26
  -2 -12   3    4.59    0.44
  -2 -12   3    3.72    0.43
   2 -12  -3    3.86    0.32
   2  12   3    3.36    0.36
  -2  12  -3    3.62    0.34
   2  12   3    4.19    0.38
  -2  12  -3    2.98    0.36
   2 -12   4    0.22    0.34
   2 -12   4    0.13    0.33
  -2 -12  -4   -0.05    0.24
   2  12  -4    0.35    0.25
   2 -12  -4    0.05    0.20
  -2 -12   4   -0.06    0.31
   3 -12   0    1.37    0.18
  -3 -12   0    1.78    0.23
   3 -12   0    1.65    0.19
   3  12   0    1.57    0.18
  -3  12   0    1.92    0.18
  -3 -12   0    1.18    0.19
   3 -12   0    1.98    0.21
   3  12   0    1.05    0.19
  -3 -12  -1    1.28    0.20
  -3  12   1    1.43    0.16
   3  12  -1    1.50    0.19
   3 -12   1    1.15    0.18
  -3 -12  -1    1.20    0.18
   3  12  -1    1.19    0.18
   3 -12   1    1.27    0.20
   3 -12  -1    1.50    0.19
  -3 -12   1    1.78    0.23
   3  12   1    1.47    0.17
   3 -12  -1    1.17    0.17
  -3 -12   1    1.46    0.22
  -3  12  -1    1.32    0.16
   3 -12  -1    1.49    0.18
   3  12  -2    1.40    0.24
  -3 -12  -2    1.15    0.21
   3  12  -2    1.05    0.22
  -3  12   2    1.58    0.15
  -3 -12  -2    1.01    0.21
  -3  12   2    1.30    0.15
  -3 -12  -2    1.25    0.21
   3 -12   2    1.01    0.22
   3 -12   2    1.16    0.20
  -3 -12   2    1.00    0.21
  -3 -12   2    1.46    0.22
  -3  12  -2    1.04    0.17
   3 -12  -2    1.51    0.18
   3 -12  -2    1.38    0.19
  -3  12  -2    1.46    0.26
   3 -12  -2    1.54    0.18
   3  12   2    0.96    0.20
  -3  12   3    1.09    0.12
   3 -12   3    1.34    0.30
   3  12  -3    0.74    0.33
  -3 -12  -3    0.72    0.18
   3  12  -3    1.28    0.23
  -3  12   3    0.85    0.12
   3 -12   3    1.21    0.29
   3 -12  -3    0.76    0.18
   3  12   3    1.09    0.25
  -3 -12   3    1.27    0.27
  -3  12  -3    0.94    0.34
  -3 -12   3    1.64    0.30
  -3  12  -3    0.93    0.21
   3  12   3    0.94    0.23
   3  12  -4    1.06    0.30
  -3 -12  -4    0.66    0.27
   3 -12   4    1.45    0.38
   3 -12   4    0.76    0.37
  -3 -12   4    0.23    0.35
   4 -12   0    0.03    0.12
   4 -12   0   -0.05    0.10
   4  12   0   -0.06    0.14
  -4 -12   0    0.03    0.12
  -4  12   0    0.06    0.08
  -4 -12   0   -0.05    0.14
   4 -12   0    0.19    0.13
   4  12   0   -0.05    0.11
   4 -12   1    7.40    0.42
  -4 -12  -1    7.46    0.41
   4  12  -1    7.77    0.42
  -4 -12  -1    7.87    0.42
   4  12  -1    8.19    0.40
  -4  12   1    8.30    0.34
   4 -12   1    8.01    0.41
  -4 -12   1    8.30    0.44
   4 -12  -1    7.46    0.35
   4  12   1    8.08    0.38
   4 -12  -1    7.66    0.38
  -4  12  -1    8.17    0.36
  -4 -12   1    7.75    0.41
   4 -12  -1    8.51    0.37
  -4  12   2    0.38    0.11
   4  12  -2   -0.12    0.22
   4  12  -2   -0.26    0.17
  -4  12   2    0.13    0.09
   4 -12   2    0.07    0.19
   4  12  -2    0.02    0.15
  -4  12  -2    0.15    0.13
   4 -12  -2    0.01    0.12
   4 -12  -2    0.01    0.11
   4  12   2   -0.05    0.16
   4 -12  -2    0.11    0.12
   4  12   2   -0.08    0.17
  -4 -12   2    0.01    0.16
  -4 -12   2   -0.09    0.18
   4  12  -3    5.32    0.57
   4 -12   3    5.89    0.48
   4  12  -3    5.87    0.44
   4 -12   3    5.62    0.52
  -4 -12  -3    5.17    0.37
  -4 -12   3    5.11    0.48
  -4  12  -3    5.52    0.40
   4 -12  -3    4.98    0.34
   4  12   3    6.25    0.47
  -4 -12   3    4.56    0.45
  -4 -12  -4    0.38    0.26
   4 -12   4   -0.26    0.35
   4 -12   4    0.61    0.43
   4  12  -4    0.03    0.26
  -4 -12   4    0.14    0.33
   5 -12   0   16.81    0.60
   5  12   0   16.81    0.61
  -5 -12   0   16.15    0.64
  -5 -12   0   15.88    0.62
   5  12   0   15.47    0.62
   5 -12   0   16.30    0.58
   5 -12   0   16.91    0.58
  -5  12   0   16.67    0.50
   5 -12   1    0.01    0.15
   5  12  -1    0.17    0.12
  -5 -12  -1    0.58    0.17
  -5  12   1    0.55    0.13
   5 -12   1    0.21    0.14
  -5 -12  -1    0.13    0.15
   5  12  -1    0.25    0.18
  -5 -12   1    0.06    0.15
   5 -12  -1    0.26    0.14
   5 -12  -1    0.24    0.13
   5 -12  -1    0.33    0.12
  -5 -12   1    0.20    0.17
  -5  12  -1    0.32    0.12
   5  12   1    0.20    0.14
   5  12  -2   14.85    0.64
  -5  12   2   13.22    0.42
  -5 -12  -2   12.41    0.62
   5  12  -2   13.93    0.66
  -5 -12  -2   12.59    0.59
   5  12  -2   14.33    0.59
   5 -12   2   14.51    0.64
   5 -12   2   13.47    0.61
   5 -12  -2   13.20    0.48
  -5 -12   2   14.36    0.62
   5 -12  -2   13.69    0.49
  -5 -12   2   13.82    0.63
   5  12   2   14.45    0.62
   5  12   2   14.57    0.63
   5 -12   3   -0.09    0.26
  -5 -12  -3   -0.08    0.15
   5  12  -3    0.08    0.20
   5 -12   3    0.03    0.23
  -5 -12   3    0.17    0.27
  -5  12  -3    0.10    0.18
  -5 -12   3   -0.38    0.21
   5  12   3    0.34    0.25
   5 -12   4    7.04    0.68
   5  12  -4    8.41    0.64
  -5 -12  -4    8.63    0.57
   5 -12   4    7.04    0.78
  -5 -12   4    7.91    0.68
   6 -12   0    2.77    0.29
  -6 -12   0    2.59    0.29
   6 -12   0    2.71    0.26
  -6  12   0    2.91    0.19
   6 -12   0    3.32    0.28
  -6 -12   0    3.26    0.31
   6  12   0    3.03    0.29
   6  12   0    2.82    0.29
   6  12  -1   17.98    0.70
   6 -12   1   17.75    0.68
   6  12  -1   17.31    0.66
   6  12  -1   15.20    0.67
  -6  12   1   17.99    0.56
   6 -12   1   16.95    0.66
  -6 -12  -1   18.27    0.70
  -6 -12  -1   17.42    0.67
   6 -12  -1   17.48    0.61
  -6 -12   1   17.59    0.69
   6  12   1   17.77    0.64
   6 -12  -1   17.08    0.58
  -6 -12   1   17.61    0.68
  -6  12  -1   17.40    0.58
   6 -12  -1   17.96    0.60
   6  12  -2    2.76    0.33
   6  12  -2    3.48    0.35
   6 -12   2    2.51    0.29
  -6 -12  -2    2.62    0.30
  -6  12   2    2.40    0.17
  -6 -12  -2    2.40    0.24
   6  12  -2    2.55    0.35
   6 -12   2    3.13    0.35
   6 -12  -2    2.48    0.26
  -6  12  -2    2.27    0.24
   6  12   2    3.07    0.32
   6 -12  -2    2.44    0.23
   6  12   2    2.90    0.32
  -6 -12   2    3.09    0.33
  -6 -12   2    2.82    0.31
   6 -12  -2    2.74    0.23
   6 -12   3   11.37    0.71
   6 -12   3   11.46    0.67
  -6 -12  -3   12.70    0.56
   6  12  -3   12.48    0.62
   6  12   3   13.10    0.65
  -6 -12   3   12.00    0.69
  -6  12  -3   12.07    0.58
  -6 -12   3   12.26    0.64
  -6 -12  -4    2.48    0.35
   6 -12   4    3.38    0.48
   6 -12   4    1.74    0.51
   6  12  -4    2.62    0.41
  -7 -12   0   40.56    1.23
  -7 -12   0   40.12    1.21
   7  12   0   37.47    1.19
   7 -12   0   37.42    1.12
  -7  12   0   39.40    1.01
   7 -12   0   39.22    1.14
   7  12   0   39.13    1.20
  -7 -12  -1   17.47    0.70
  -7  12   1   17.11    0.55
   7  12  -1   16.63    0.66
  -7 -12  -1   17.78    0.71
   7 -12   1   16.91    0.66
   7  12  -1   17.99    0.71
  -7 -12   1   17.09    0.68
  -7  12  -1   18.27    0.59
   7 -12  -1   18.13    0.60
  -7 -12   1   17.14    0.70
   7  12   1   17.87    0.65
   7 -12  -1   16.65    0.61
   7 -12  -1   18.03    0.60
  -7 -12  -2   31.52    1.08
   7  12  -2   32.13    1.03
  -7 -12  -2   29.83    0.97
   7  12  -2   32.37    1.18
   7  12  -2   32.63    1.10
   7 -12   2   31.37    1.05
   7 -12   2   31.83    1.07
   7 -12  -2   29.82    0.89
  -7 -12   2   32.67    1.06
  -7  12  -2   30.34    0.96
   7  12   2   32.64    1.09
   7 -12  -2   30.72    0.89
  -7 -12   2   32.79    1.08
   7 -12  -2   29.55    0.83
   7  12   2   31.34    1.06
   7 -12   3   12.24    0.70
   7 -12   3   13.70    0.75
   7  12  -3   12.85    0.66
  -7 -12  -3   12.78    0.60
  -7  12  -3   12.22    0.60
   7  12   3   12.53    0.71
  -7 -12   3   12.08    0.67
   7 -12   4   17.26    0.99
   7 -12   4   18.34    1.09
   7  12  -4   17.42    0.89
   8 -12   0    0.08    0.17
  -8 -12   0    0.44    0.20
   8  12   0    0.40    0.23
  -8 -12   0    0.67    0.21
   8 -12   0    0.46    0.15
  -8  12   0    0.48    0.09
   8  12   0    0.59    0.18
  -8  12   0    0.27    0.09
  -8  12   1   -0.03    0.14
   8  12  -1   -0.39    0.22
   8 -12   1   -0.11    0.16
   8  12  -1    0.37    0.18
  -8 -12  -1    0.09    0.13
   8 -12   1    0.14    0.18
  -8 -12  -1   -0.14    0.17
  -8 -12  -1    0.04    0.19
   8 -12  -1   -0.10    0.16
   8 -12  -1    0.00    0.14
   8  12   1    0.05    0.15
   8 -12  -1    0.18    0.14
  -8 -12   1    0.23    0.20
  -8  12  -1    0.08    0.13
   8  12   1    0.05    0.20
  -8 -12   1   -0.02    0.19
   8  12  -2    0.51    0.30
  -8 -12  -2    0.38    0.16
   8 -12   2    0.70    0.23
   8  12  -2    0.15    0.19
   8 -12   2    0.12    0.20
  -8 -12   2   -0.41    0.22
   8  12   2    0.38    0.28
   8 -12  -2    0.28    0.13
   8 -12  -2    0.51    0.17
  -8  12  -2    0.29    0.16
  -8 -12   2    0.13    0.23
   8  12   2    0.03    0.24
   8 -12   3   -0.41    0.28
   8  12  -3    0.37    0.28
   8 -12   3   -0.35    0.30
  -8 -12  -3   -0.16    0.21
  -8  12  -3    0.05    0.23
  -8 -12   3    0.46    0.30
   9 -12   0    5.72    0.37
  -9 -12   0    5.44    0.46
   9 -12   0    5.33    0.38
  -9 -12   0    4.58    0.42
   9  12   0    5.74    0.40
  -9 -12   0    6.05    0.36
   9  12   0    5.62    0.50
   9  12  -1    6.73    0.44
  -9 -12  -1    6.51    0.47
  -9  12   1    6.17    0.34
   9 -12   1    6.94    0.45
   9  12  -1    6.54    0.55
   9 -12   1    6.62    0.45
  -9 -12  -1    7.48    0.52
  -9 -12  -1    5.84    0.38
  -9 -12   1    6.38    0.47
   9  12   1    6.40    0.43
   9  12   1    7.09    0.53
  -9  12  -1    6.07    0.34
   9 -12  -1    6.16    0.40
  -9 -12   1    6.31    0.48
   9 -12  -1    7.19    0.37
  -9 -12  -2    4.93    0.40
   9 -12   2    4.75    0.45
   9  12  -2    4.91    0.44
   9 -12   2    5.21    0.50
   9 -12  -2    4.60    0.28
  -9  12  -2    5.04    0.39
  -9 -12   2    4.28    0.41
  -9 -12   2    5.02    0.50
   9  12   2    4.75    0.52
   9  12   2    5.46    0.57
  -9 -12  -3    5.16    0.49
   9 -12   3    6.14    0.61
   9  12  -3    3.85    0.40
   9 -12   3    5.56    0.64
  -9 -12   3    5.36    0.41
   9  12   3    3.42    0.45
  -9  12  -3    5.36    0.50
  10 -12   0    4.11    0.35
 -10 -12   0    5.22    0.43
 -10 -12   0    4.28    0.44
  10  12   0    2.99    0.38
  10 -12   0    3.59    0.36
  10  12   0    3.12    0.36
 -10 -12   0    3.86    0.33
  10  12  -1    3.58    0.40
  10 -12   1    2.46    0.31
  10  12  -1    2.60    0.30
  10 -12   1    2.83    0.33
 -10 -12  -1    2.93    0.35
 -10 -12  -1    2.77    0.34
 -10 -12   1    3.02    0.31
 -10  12  -1    3.13    0.34
  10  12   1    3.26    0.37
  10  12   1    3.07    0.35
  10 -12  -1    2.31    0.30
  10 -12  -1    3.54    0.32
  10  12   1    3.47    0.38
 -10 -12   1    3.41    0.39
 -10 -12   1    2.77    0.35
 -10  12  -1    3.04    0.29
  10 -12   2    3.95    0.43
 -10 -12  -2    3.77    0.40
  10 -12   2    3.84    0.39
  10  12  -2    3.47    0.37
  10  12   2    4.03    0.44
 -10  12  -2    3.16    0.30
  10  12   2    4.06    0.45
 -10 -12   2    4.10    0.35
  10 -12   3    2.22    0.39
  10 -12   3    2.91    0.49
  10  12  -3    3.19    0.43
  10  12   3    2.85    0.48
 -10  12  -3    2.63    0.35
 -10 -12   3    2.67    0.29
 -11 -12   0    6.00    0.39
 -11 -12   0    5.75    0.50
  11 -12   0    5.54    0.42
  11  12   0    4.90    0.46
 -11 -12   0    4.65    0.52
  11 -12   0    5.91    0.43
  11 -12   1    5.05    0.45
 -11 -12  -1    5.13    0.42
  11 -12   1    5.64    0.46
  11  12  -1    5.71    0.47
 -11 -12   1    4.61    0.54
  11 -12  -1    5.21    0.39
  11 -12  -1    5.02    0.37
  11  12   1    5.56    0.60
  11  12   1    4.85    0.49
 -11 -12   1    4.40    0.48
  11  12   1    4.12    0.43
 -11  12  -1    5.19    0.35
 -11 -12   1    5.28    0.39
  11 -12   2    4.30    0.43
  11 -12   2    4.45    0.43
  11  12  -2    4.88    0.52
  11  12   2    4.88    0.51
  11  12   2    5.55    0.62
 -11 -12   2    5.71    0.56
 -11  12  -2    4.85    0.43
 -11 -12   2    4.33    0.40
  11 -12  -2    4.53    0.29
  11 -12   3    4.00    0.52
  11  12  -3    3.22    0.45
  11  12   3    3.54    0.56
 -11  12  -3    4.21    0.42
 -12 -12   0    3.61    0.39
  12 -12   0    4.97    0.43
  12  12   0    3.97    0.45
 -12 -12   0    4.69    0.48
 -12 -12   0    3.62    0.40
  12 -12   0    3.92    0.37
  12 -12   1    0.85    0.28
  12  12  -1    0.91    0.28
 -12 -12  -1    0.80    0.24
  12 -12   1    0.70    0.25
  12  12   1    0.93    0.26
 -12 -12   1    0.73    0.31
  12 -12  -1    1.03    0.23
 -12  12  -1    0.88    0.20
  12  12   1    0.86    0.32
  12 -12  -1    0.61    0.21
  12  12   1    0.88    0.36
 -12 -12   1    1.02    0.24
  12  12  -2    3.65    0.43
  12 -12   2    2.79    0.39
  12 -12   2    3.98    0.46
  12  12   2    4.02    0.57
  12 -12  -2    3.41    0.27
 -12 -12   2    3.00    0.44
 -12  12  -2    3.55    0.34
  12  12   2    3.59    0.50
 -12 -12   2    3.67    0.34
 -13 -12   0   13.24    0.81
  13  12   0   13.78    0.83
  13 -12   0   13.02    0.65
  13  12   0   12.03    0.73
  13 -12   0   12.56    0.65
 -13 -12   0   12.73    0.63
  13 -12   1    1.22    0.30
  13 -12   1    1.62    0.34
  13  12  -1    1.47    0.31
 -13 -12  -1    1.68    0.30
  13  12   1    1.33    0.40
 -13 -12   1    1.98    0.38
 -13 -12   1    1.25    0.28
  13  12   1    1.07    0.38
  13 -12  -1    1.54    0.27
  13 -12  -1    1.44    0.26
  13  12  -2   10.67    0.74
  13 -12   2    9.61    0.75
  13  12   2   11.83    0.85
 -13  12  -2   10.02    0.60
 -13 -12   2   10.64    0.58
  14  12   0    0.72    0.41
  14 -12   0    0.34    0.27
  14 -12   0    0.09    0.31
  14  12   0    0.45    0.36
 -14 -12   0    0.87    0.28
  14 -12   1    0.26    0.34
  14  12  -1    1.00    0.41
 -14 -12  -1   -0.71    0.26
  14  12   1    0.33    0.41
 -14 -12   1    0.54    0.29
  14  12   1   -0.02    0.41
 -14 -12   1    0.33    0.40
  14 -12  -1    0.25    0.26
  14 -12  -1   -0.14    0.25
   0  13   0    0.15    0.11
   0 -13   0    0.17    0.13
   0 -13   0    0.08    0.12
   0 -13  -1   -0.04    0.13
   0  13   1   -0.07    0.09
   0 -13  -1    0.11    0.14
   0  13  -1    0.05    0.11
   0 -13   1    0.13    0.16
   0 -13   1    0.20    0.16
   0 -13  -1    0.02    0.15
   0 -13   2    0.10    0.18
   0  13   2   -0.09    0.13
   0 -13  -2    0.04    0.16
   0 -13  -2   -0.20    0.12
   0 -13  -2   -0.09    0.17
   0  13  -2   -0.16    0.13
   0 -13   2   -0.04    0.17
   0  13  -2   -0.05    0.22
   0  13   3   -0.29    0.17
   0 -13   3    0.12    0.24
   0 -13   3    0.07    0.25
   0  13  -3   -0.49    0.33
   0 -13  -4   -0.30    0.24
   0 -13   4    0.35    0.36
   1 -13   0    1.36    0.20
  -1 -13   0    1.25    0.19
  -1 -13   0    1.22    0.20
   1  13   0    1.31    0.17
   1 -13   0    1.12    0.19
  -1  13   0    1.38    0.16
   1  13  -1    6.69    0.36
   1  13  -1    7.33    0.41
   1 -13   1    7.19    0.41
  -1 -13  -1    6.35    0.37
  -1 -13  -1    6.81    0.38
   1 -13   1    6.96    0.40
  -1  13   1    6.82    0.28
   1 -13  -1    6.68    0.38
  -1  13  -1    7.30    0.35
  -1 -13   1    7.15    0.42
   1 -13  -1    6.60    0.37
   1 -13  -1    7.10    0.38
   1  13   1    6.27    0.31
  -1 -13   1    7.37    0.41
   1 -13   2    1.02    0.22
   1  13  -2    0.72    0.24
   1  13  -2    0.71    0.17
  -1  13   2    0.98    0.17
   1 -13   2    1.38    0.25
  -1 -13  -2    1.19    0.20
  -1 -13  -2    1.16    0.21
  -1 -13  -2    1.09    0.21
  -1 -13   2    0.85    0.20
   1 -13  -2    1.17    0.20
   1 -13  -2    0.80    0.17
  -1  13  -2    1.01    0.26
   1  13   2    1.34    0.19
  -1  13  -2    0.97    0.18
   1 -13  -2    0.90    0.20
  -1 -13   2    1.35    0.23
   1 -13   3    5.28    0.51
   1  13  -3    5.80    0.63
   1 -13   3    4.82    0.44
  -1 -13   3    4.94    0.51
   1 -13  -3    4.63    0.41
  -1  13  -3    4.40    0.46
  -1 -13   3    4.59    0.48
  -1  13  -3    4.58    0.40
   1  13   3    5.06    0.42
   1  13  -4    0.46    0.28
   1 -13   4    0.92    0.38
  -1 -13  -4    1.01    0.28
  -1 -13   4    0.98    0.41
   1 -13  -4    1.06    0.28
  -2 -13   0    1.12    0.20
   2 -13   0    1.18    0.20
   2  13   0    1.39    0.18
  -2 -13   0    1.00    0.18
   2 -13   0    0.79    0.16
  -2  13   0    0.95    0.13
   2 -13   1    9.60    0.46
  -2 -13  -1    9.57    0.47
   2  13  -1    8.54    0.47
   2  13  -1    9.66    0.43
   2 -13   1    9.52    0.47
  -2 -13  -1    9.89    0.47
  -2  13   1    9.31    0.31
  -2 -13   1    9.46    0.49
   2  13   1    9.08    0.39
  -2 -13   1    9.81    0.49
   2 -13  -1    9.13    0.42
   2 -13  -1    9.75    0.44
   2 -13  -1    9.34    0.44
  -2  13  -1    9.75    0.41
   2  13  -2    1.04    0.19
  -2  13   2    1.09    0.17
   2 -13   2    1.35    0.25
  -2  13   2    1.11    0.16
  -2 -13  -2    1.14    0.21
   2  13  -2    1.22    0.27
   2 -13  -2    1.22    0.19
  -2  13  -2    1.25    0.20
  -2 -13   2    1.42    0.25
  -2  13  -2    0.86    0.24
  -2 -13   2    0.80    0.23
   2 -13  -2    1.29    0.20
   2 -13  -2    0.99    0.18
  -2  13   3    4.63    0.34
  -2  13   3    4.89    0.23
   2  13  -3    5.28    0.51
   2 -13   3    5.08    0.47
   2 -13   3    3.51    0.41
   2 -13  -3    4.47    0.39
   2  13   3    4.41    0.44
  -2 -13   3    4.88    0.48
  -2 -13   3    4.63    0.48
   2  13  -4    0.37    0.28
   2 -13   4    0.73    0.39
  -2 -13  -4    0.59    0.27
  -2 -13   4    0.68    0.38
  -3 -13   0    1.38    0.22
  -3 -13   0    1.09    0.20
  -3  13   0    1.11    0.14
   3 -13   0    1.14    0.18
   3 -13   0    1.30    0.19
   3  13   0    1.17    0.17
  -3 -13  -1   38.74    1.17
   3 -13   1   38.02    1.14
  -3  13   1   36.01    1.04
   3  13  -1   36.49    1.10
  -3 -13  -1   36.53    1.14
   3  13  -1   37.07    1.15
   3 -13   1   37.53    1.16
   3 -13  -1   36.49    1.11
   3 -13  -1   36.71    1.10
   3 -13  -1   37.63    1.07
  -3 -13   1   38.32    1.17
  -3 -13   1   38.54    1.18
   3  13   1   38.03    1.07
  -3  13  -1   38.28    1.07
  -3 -13  -2    1.60    0.25
   3  13  -2    1.42    0.28
  -3 -13  -2    1.13    0.22
   3  13  -2    1.38    0.20
   3 -13   2    1.05    0.24
  -3  13   2    1.39    0.16
   3 -13   2    1.26    0.23
   3 -13  -2    0.79    0.18
  -3 -13   2    1.15    0.22
   3 -13  -2    1.08    0.19
   3 -13  -2    1.55    0.20
  -3 -13   2    1.19    0.24
  -3  13  -2    1.42    0.19
   3  13   2    0.71    0.20
   3 -13   3   26.04    1.00
   3 -13   3   26.02    0.95
   3  13  -3   23.58    1.04
   3  13  -3   25.73    0.91
  -3  13   3   24.50    0.69
  -3 -13   3   24.17    0.96
  -3 -13   3   25.28    0.94
   3 -13  -3   23.46    0.79
   3  13   3   24.57    0.89
   3 -13   4    1.30    0.43
  -3 -13  -4    1.41    0.30
   3  13  -4    0.86    0.30
  -3 -13   4    1.14    0.40
   4  13   0   13.08    0.52
  -4 -13   0   12.55    0.56
   4 -13   0   12.23    0.50
   4 -13   0   12.80    0.53
  -4 -13   0   12.13    0.55
  -4  13   0   13.12    0.44
   4 -13   0   12.73    0.52
  -4 -13  -1   30.38    1.00
  -4 -13  -1   30.06    0.98
   4 -13   1   30.36    0.97
   4 -13   1   31.61    1.00
   4  13  -1   29.57    0.99
   4  13  -1   31.86    0.95
  -4  13   1   29.59    0.88
  -4  13  -1   30.70    0.90
  -4 -13   1   30.51    0.99
   4 -13  -1   29.68    0.89
   4  13   1   30.93    0.92
   4 -13  -1   29.68    0.92
   4 -13  -1   29.74    0.93
  -4 -13   1   29.16    1.00
  -4  13   2   11.33    0.40
   4  13  -2   10.70    0.60
  -4 -13  -2   10.08    0.53
   4 -13   2   10.87    0.57
  -4  13   2   10.14    0.37
   4 -13   2   11.14    0.55
   4  13  -2   10.95    0.51
  -4 -13  -2   10.87    0.54
  -4  13  -2   11.06    0.49
  -4 -13   2   10.68    0.57
  -4 -13   2   10.35    0.56
   4 -13  -2   10.48    0.46
   4 -13  -2   10.72    0.45
   4  13   2   10.09    0.53
   4 -13  -2   10.40    0.45
   4 -13   3   20.46    0.90
   4 -13   3   21.43    0.87
   4  13  -3   20.76    0.81
  -4 -13  -3   20.68    0.75
  -4 -13   3   18.58    0.83
  -4  13  -3   19.45    0.76
   4  13   3   20.63    0.80
  -4 -13   3   19.29    0.86
  -4 -13  -4    6.30    0.57
   4 -13   4    7.89    0.84
   4 -13   4    8.06    0.74
   4  13  -4    6.43    0.63
  -4 -13   4    7.81    0.72
  -5  13   0    0.04    0.09
  -5 -13   0    0.06    0.15
   5 -13   0   -0.01    0.13
   5  13   0    0.06    0.14
  -5 -13   0   -0.25    0.15
   5 -13   0   -0.08    0.13
   5 -13   0    0.16    0.16
   5  13   0   -0.42    0.18
   5 -13   1   -0.13    0.14
   5  13  -1    0.14    0.16
   5  13  -1    0.11    0.21
  -5  13   1   -0.04    0.13
  -5 -13  -1   -0.08    0.16
   5 -13  -1   -0.16    0.15
   5  13   1    0.23    0.15
  -5 -13   1   -0.03    0.17
   5 -13  -1    0.08    0.15
  -5  13  -1    0.05    0.12
  -5 -13   1    0.00    0.17
  -5  13   2    0.12    0.12
   5  13  -2    0.38    0.19
   5  13  -2    0.15    0.28
   5 -13   2   -0.03    0.21
  -5 -13  -2    0.00    0.18
  -5 -13  -2    0.02    0.18
   5 -13   2    0.31    0.18
   5 -13  -2    0.10    0.15
   5  13   2    0.03    0.22
  -5  13  -2   -0.05    0.15
   5 -13  -2    0.00    0.17
  -5 -13   2   -0.33    0.21
   5  13   2    0.26    0.23
  -5 -13   2    0.16    0.21
   5 -13  -2    0.25    0.15
   5  13  -3    0.27    0.22
   5 -13   3    0.13    0.27
  -5 -13  -3    0.02    0.19
   5 -13   3   -0.11    0.29
  -5 -13   3   -0.33    0.26
   5  13   3    0.41    0.29
  -5 -13   3    0.14    0.31
  -5  13  -3    0.04    0.20
   5  13  -4   -0.28    0.31
   5 -13   4    0.28    0.43
  -5 -13  -4    0.39    0.32
   5 -13   4    0.68    0.49
  -5 -13   4    0.00    0.41
   6 -13   0    0.11    0.13
  -6  13   0    0.18    0.10
   6 -13   0   -0.06    0.16
  -6 -13   0    0.22    0.17
   6  13   0    0.27    0.20
   6 -13   0   -0.04    0.14
  -6 -13   0   -0.09    0.17
  -6 -13  -1    7.28    0.45
   6  13  -1    7.38    0.41
   6 -13   1    7.81    0.46
  -6 -13  -1    6.40    0.46
   6 -13   1    7.45    0.44
  -6  13   1    7.09    0.35
   6  13  -1    7.08    0.50
   6 -13  -1    7.63    0.39
   6 -13  -1    7.15    0.39
  -6 -13   1    7.73    0.48
   6 -13  -1    7.51    0.39
  -6 -13   1    7.15    0.45
  -6  13  -1    7.70    0.37
   6  13   1    7.38    0.41
  -6 -13  -2    0.41    0.20
   6 -13   2    0.16    0.20
  -6 -13  -2    0.23    0.16
   6  13  -2   -0.03    0.26
   6  13  -2   -0.01    0.16
   6 -13   2    0.12    0.22
  -6  13   2    0.37    0.11
  -6 -13   2    0.28    0.24
   6  13   2    0.16    0.24
   6 -13  -2   -0.21    0.17
   6  13   2    0.06    0.24
  -6 -13   2   -0.18    0.22
  -6  13  -2   -0.10    0.16
   6 -13  -2   -0.06    0.14
   6 -13  -2    0.09    0.15
  -6 -13  -3    3.98    0.40
   6  13  -3    5.07    0.48
   6 -13   3    4.80    0.47
   6 -13   3    5.13    0.61
  -6 -13   3    5.78    0.55
  -6  13  -3    5.04    0.46
   6  13   3    5.16    0.54
   6 -13   4    0.37    0.53
  -7 -13   0    2.30    0.30
  -7 -13   0    2.15    0.29
   7  13   0    1.75    0.28
   7  13   0    2.24    0.25
  -7  13   0    1.96    0.18
   7 -13   0    2.40    0.28
   7 -13   0    2.98    0.30
   7 -13   1    2.85    0.33
   7  13  -1    2.93    0.30
  -7 -13  -1    3.00    0.34
   7  13  -1    3.29    0.38
   7 -13   1    3.00    0.31
  -7 -13  -1    3.39    0.35
   7 -13  -1    3.55    0.31
   7 -13  -1    2.61    0.25
  -7 -13   1    2.78    0.34
   7  13   1    3.36    0.33
  -7 -13   1    2.37    0.29
  -7  13  -1    3.14    0.28
   7 -13  -1    2.98    0.32
   7 -13   2    2.41    0.30
   7  13  -2    1.59    0.33
  -7 -13  -2    2.65    0.35
   7 -13   2    2.14    0.31
  -7 -13  -2    2.23    0.26
   7  13  -2    2.58    0.30
  -7 -13   2    2.46    0.34
   7 -13  -2    2.09    0.24
   7  13   2    2.63    0.35
   7 -13  -2    2.07    0.23
  -7  13  -2    1.86    0.25
   7  13   2    2.67    0.36
   7 -13  -2    2.22    0.26
   7  13  -3    2.45    0.34
   7 -13   3    2.30    0.40
  -7 -13  -3    2.44    0.33
   7 -13   3    2.93    0.40
  -7 -13   3    2.36    0.39
  -7  13  -3    2.54    0.34
   7  13   3    2.61    0.40
  -8  13   0   13.56    0.39
   8  13   0   13.56    0.58
   8 -13   0   12.72    0.57
  -8  13   0   13.45    0.39
   8 -13   0   12.87    0.56
  -8 -13   0   13.05    0.62
  -8 -13   0   13.44    0.65
   8  13   0   11.78    0.64
  -8 -13  -1    8.33    0.52
   8 -13   1    8.70    0.52
   8  13  -1    9.75    0.50
   8 -13   1    9.11    0.51
  -8 -13  -1    8.06    0.55
  -8 -13  -1    8.70    0.45
   8  13  -1    9.08    0.60
   8 -13  -1    8.54    0.46
  -8  13  -1    9.56    0.42
  -8 -13   1    9.11    0.54
  -8 -13   1    9.55    0.55
   8  13   1    9.19    0.58
   8  13   1    8.61    0.48
   8 -13  -1    9.19    0.43
   8 -13  -1    9.34    0.44
   8 -13   2   11.58    0.65
   8  13  -2   10.57    0.57
  -8 -13  -2   11.00    0.65
  -8 -13  -2    9.73    0.51
   8 -13   2   10.59    0.60
   8 -13  -2    9.60    0.35
  -8 -13   2    9.57    0.59
  -8  13  -2   10.18    0.51
   8  13   2    9.86    0.67
  -8 -13   2   10.81    0.64
   8 -13  -2   10.13    0.43
  -8 -13  -3    4.32    0.50
   8 -13   3    6.50    0.67
   8  13  -3    5.24    0.55
   8 -13   3    5.10    0.51
  -8 -13   3    5.25    0.60
   8  13   3    5.89    0.65
  -8  13  -3    4.42    0.48
  -9 -13   0    0.26    0.22
  -9 -13   0    0.43    0.16
   9 -13   0    0.33    0.17
  -9 -13   0   -0.15    0.23
   9  13   0    0.49    0.20
   9 -13   0    0.11    0.17
   9  13  -1   27.57    1.09
   9 -13   1   30.53    1.02
   9 -13   1   29.30    1.00
  -9 -13  -1   28.77    1.02
  -9  13  -1   30.51    0.88
   9  13   1   28.93    0.99
   9 -13  -1   28.04    0.93
   9  13   1   30.28    1.09
  -9 -13   1   28.39    1.03
  -9 -13   1   30.32    1.06
   9 -13  -1   30.45    0.94
   9  13  -2    0.30    0.23
  -9 -13  -2    0.06    0.21
   9 -13   2    0.11    0.27
   9 -13   2    0.41    0.26
  -9  13  -2    0.47    0.20
   9  13   2    1.19    0.36
  -9 -13   2   -0.06    0.28
   9  13   2    0.23    0.31
  -9 -13   2    0.42    0.32
   9 -13  -2    0.46    0.15
   9  13  -3   21.28    0.90
   9 -13   3   20.57    1.03
   9 -13   3   19.06    0.93
  -9 -13  -3   19.80    0.86
   9  13   3   20.03    1.01
  -9  13  -3   20.32    0.83
  -9 -13   3   20.50    0.95
  10 -13   0   14.66    0.63
 -10 -13   0   14.73    0.60
 -10 -13   0   14.47    0.73
  10 -13   0   14.60    0.64
 -10 -13   0   14.12    0.71
 -10 -13  -1    8.15    0.49
  10  13  -1    8.40    0.55
 -10 -13  -1    8.83    0.63
  10 -13   1    7.09    0.52
 -10 -13  -1    9.02    0.59
  10 -13   1    8.11    0.54
  10  13   1    8.52    0.66
 -10 -13   1    8.90    0.63
 -10 -13   1    7.79    0.44
  10 -13  -1    7.53    0.44
  10  13   1    7.44    0.50
  10  13   1    8.14    0.61
  10 -13  -1    8.11    0.45
 -10 -13   1    8.83    0.57
 -10  13  -1    8.67    0.42
  10 -13   2   13.01    0.74
  10 -13   2   11.96    0.68
  10  13  -2   12.64    0.68
 -10 -13   2   11.78    0.56
 -10 -13   2   11.38    0.71
  10  13   2   12.74    0.76
 -10  13  -2   12.63    0.59
  10  13   2   12.26    0.80
  10 -13   3    7.15    0.66
  10  13  -3    6.88    0.65
 -10 -13   3    6.07    0.49
 -10  13  -3    6.93    0.57
  10  13   3    6.94    0.76
 -11 -13   0    0.04    0.20
 -11 -13   0   -0.42    0.26
 -11 -13   0    0.19    0.31
  11 -13   0    0.01    0.23
  11 -13   0   -0.17    0.20
 -11 -13  -1    1.51    0.26
  11 -13   1    0.64    0.27
 -11 -13  -1    0.64    0.33
  11 -13   1    1.14    0.29
 -11 -13   1    1.08    0.25
 -11  13  -1    0.82    0.21
 -11 -13   1    0.54    0.29
  11 -13  -1    0.92    0.23
  11  13   1    1.31    0.28
  11 -13  -1    1.28    0.23
  11  13   1    0.77    0.33
 -11 -13   1    1.28    0.37
  11 -13   2   -0.08    0.29
  11  13  -2    0.27    0.28
  11 -13   2    0.38    0.32
 -11 -13   2    0.00    0.35
 -11  13  -2    0.01    0.24
 -11 -13   2   -0.24    0.21
  11 -13  -2    0.13    0.16
  11  13   2    0.55    0.39
 -12 -13   0   -0.08    0.33
 -12 -13   0    0.35    0.24
 -12 -13   0    0.16    0.30
  12 -13   0    0.26    0.26
  12  13   0    0.44    0.33
  12 -13   0    0.44    0.24
 -12 -13  -1    5.02    0.49
  12 -13   1    5.99    0.54
  12 -13   1    5.12    0.56
  12  13   1    6.07    0.55
 -12 -13   1    5.99    0.60
  12 -13  -1    5.35    0.45
  12 -13  -1    4.58    0.44
 -12 -13   1    4.42    0.45
  12  13   1    5.78    0.57
  12  13   1    3.80    0.46
  12 -13   2    0.54    0.38
 -12 -13   2   -0.26    0.40
  12 -13  -2    0.13    0.16
 -12 -13   2   -0.13    0.25
  12  13   2   -0.46    0.42
 -12  13  -2   -0.13    0.26
  13 -13   0    2.05    0.32
  13  13   0    1.54    0.43
  13  13   0    1.64    0.41
 -13 -13   0    1.46    0.30
 -13 -13  -1    2.62    0.37
  13 -13   1    2.04    0.35
  13 -13   1    2.06    0.40
 -13 -13   1    2.47    0.34
  13 -13  -1    2.83    0.33
  13  13   1    2.36    0.49
 -13 -13   1    2.76    0.48
  13  13   1    2.04    0.43
  13 -13  -1    2.53    0.32
   0 -14   0  126.42    3.22
   0 -14   0  118.74    3.16
   0  14   0  122.33    3.05
   0 -14   1   94.05    2.55
   0 -14  -1   90.80    2.56
   0  14   1   93.94    2.34
   0  14  -1   97.02    2.43
   0 -14  -1   96.72    2.50
   0 -14   1   93.38    2.53
   0  14  -2   96.63    2.55
   0  14   2  100.55    2.56
   0  14  -2   95.83    2.65
   0 -14   2   97.81    2.68
   0 -14  -2   98.76    2.62
   0 -14   2   98.22    2.64
   0 -14  -2   96.26    2.57
   0 -14  -3   63.95    1.84
   0 -14   3   65.35    1.91
   0 -14   3   66.44    1.95
   0  14  -3   63.23    1.83
   0 -14   4   54.79    1.80
   0 -14  -4   57.44    1.63
   1 -14   0    5.82    0.38
   1  14   0    6.11    0.33
  -1 -14   0    5.88    0.39
  -1  14   0    5.49    0.30
  -1 -14   0    6.11    0.40
   1 -14   0    6.11    0.38
  -1 -14  -1    1.19    0.20
  -1  14   1    1.51    0.14
   1  14  -1    1.52    0.20
  -1 -14  -1    1.24    0.22
   1 -14   1    1.40    0.21
  -1  14  -1    1.58    0.20
   1  14   1    1.53    0.17
  -1 -14   1    1.19    0.21
   1 -14  -1    1.48    0.23
   1 -14  -1    1.56    0.23
  -1 -14   1    1.77    0.26
   1  14  -2    4.78    0.36
  -1  14   2    4.19    0.34
  -1 -14  -2    4.96    0.40
   1 -14   2    5.07    0.46
   1  14  -2    4.52    0.50
   1 -14   2    5.95    0.43
  -1 -14  -2    4.49    0.38
   1 -14  -2    4.95    0.36
  -1 -14   2    4.77    0.43
   1  14   2    4.86    0.38
  -1  14  -2    5.03    0.36
   1 -14  -2    5.56    0.40
  -1 -14   2    5.02    0.44
  -1 -14  -3    0.86    0.24
   1 -14   3    1.19    0.31
   1 -14   3    1.19    0.30
   1 -14  -3    1.54    0.25
  -1 -14   3    0.96    0.28
  -1 -14   3    1.32    0.33
   1 -14   4    2.51    0.49
  -1 -14  -4    2.55    0.37
  -1 -14   4    2.71    0.50
   1 -14  -4    2.95    0.37
   2 -14   0   13.07    0.55
   2  14   0   13.39    0.52
  -2  14   0   13.63    0.48
  -2 -14   0   13.28    0.58
   2 -14   0   13.17    0.57
  -2 -14   0   13.79    0.60
   2  14  -1    2.23    0.28
   2  14  -1    2.04    0.23
  -2 -14  -1    2.19    0.26
   2 -14   1    2.98    0.35
  -2  14   1    2.65    0.18
   2 -14  -1    2.52    0.27
  -2 -14   1    2.41    0.29
  -2  14  -1    2.66    0.27
  -2 -14   1    2.53    0.30
   2  14   1    2.18    0.23
   2 -14  -1    3.36    0.32
   2 -14  -1    2.21    0.25
  -2 -14  -2   10.80    0.55
  -2 -14  -2   10.26    0.53
   2 -14   2   10.59    0.56
  -2  14   2   10.96    0.45
   2 -14   2   11.17    0.59
   2  14  -2   10.61    0.51
   2  14  -2   11.01    0.62
  -2 -14   2   10.92    0.59
   2 -14  -2   10.08    0.49
   2 -14  -2   10.49    0.50
  -2 -14   2   10.53    0.55
  -2  14  -2   10.51    0.50
   2 -14  -2   10.41    0.49
   2 -14   3    1.56    0.34
   2 -14   3    1.48    0.31
  -2 -14   3    1.69    0.32
  -2 -14   3    2.06    0.38
   2 -14  -3    1.92    0.24
  -2 -14  -4    6.52    0.58
   2 -14   4    6.91    0.64
  -2 -14   4    6.07    0.61
   3 -14   0    3.84    0.33
  -3 -14   0    4.08    0.40
   3 -14   0    3.71    0.33
   3  14   0    4.20    0.31
  -3 -14   0    3.76    0.36
  -3  14   0    4.02    0.25
  -3 -14  -1   -0.19    0.16
  -3  14   1   -0.02    0.07
   3 -14   1   -0.16    0.16
  -3 -14  -1   -0.21    0.15
   3  14  -1   -0.04    0.18
   3 -14   1   -0.08    0.15
   3 -14  -1    0.08    0.12
   3 -14  -1    0.25    0.18
   3  14   1    0.08    0.14
  -3  14  -1   -0.02    0.12
   3 -14  -1   -0.05    0.16
  -3 -14   1    0.12    0.18
   3 -14   2    2.96    0.35
  -3 -14  -2    2.60    0.31
   3  14  -2    4.26    0.48
   3  14  -2    2.89    0.33
   3 -14   2    2.99    0.33
  -3 -14  -2    3.19    0.32
  -3 -14   2    3.21    0.36
   3 -14  -2    2.72    0.27
   3 -14  -2    3.33    0.33
   3 -14  -2    3.03    0.34
  -3  14  -2    2.22    0.25
  -3 -14   2    2.57    0.32
   3  14   2    2.49    0.29
   3  14  -3    0.21    0.20
   3 -14   3   -0.02    0.28
  -3 -14  -3   -0.01    0.19
  -3 -14   3   -0.05    0.28
   3  14   3    0.25    0.30
  -3 -14   3   -0.36    0.27
   3 -14  -3   -0.24    0.15
  -3  14  -3   -0.28    0.21
   3 -14   4    1.54    0.48
  -3 -14  -4    1.45    0.38
  -3 -14   4    1.08    0.45
  -4 -14   0   34.48    1.15
  -4  14   0   36.82    0.99
   4  14   0   36.95    1.09
   4 -14   1   41.91    1.27
   4  14  -1   39.97    1.29
  -4 -14  -1   41.41    1.29
   4  14  -1   44.42    1.25
  -4 -14   1   44.14    1.34
   4 -14  -1   41.15    1.24
   4 -14  -1   41.97    1.23
  -4  14  -1   43.42    1.19
   4  14   1   42.90    1.21
   4 -14  -1   39.54    1.19
   4  14  -2   28.12    1.04
  -4 -14  -2   30.32    1.00
   4 -14   2   27.90    1.00
  -4 -14  -2   29.56    1.02
  -4  14   2   29.20    0.82
   4  14  -2   28.34    0.97
  -4  14  -2   29.30    0.93
   4  14   2   28.85    1.04
  -4 -14   2   28.74    1.01
   4 -14  -2   27.32    0.89
  -4 -14   2   28.99    1.04
   4 -14  -2   28.67    0.93
   4 -14   3   28.85    1.13
   4 -14   3   28.26    1.08
  -4 -14   3   26.84    1.08
  -4 -14   3   28.29    1.07
  -4  14  -3   26.91    0.97
   4  14   3   29.11    1.04
   5 -14   0   31.51    1.00
  -5 -14   0   30.62    1.04
  -5 -14   0   32.66    1.08
   5 -14   0   32.34    1.02
  -5  14   0   31.51    0.87
   5  14  -1   18.85    0.70
  -5 -14  -1   19.51    0.75
   5 -14   1   18.89    0.75
   5 -14   1   18.72    0.72
   5  14  -1   18.03    0.77
  -5 -14   1   19.36    0.79
  -5  14  -1   19.25    0.65
   5 -14  -1   17.64    0.66
   5 -14  -1   19.02    0.68
   5 -14  -1   18.39    0.67
  -5 -14   1   18.04    0.75
   5  14   1   18.96    0.68
   5 -14   2   26.63    0.95
  -5  14   2   24.81    0.73
  -5  14   2   25.25    0.69
   5 -14   2   25.90    0.97
  -5 -14  -2   25.05    0.95
  -5 -14  -2   25.48    0.93
   5  14  -2   23.20    0.98
   5 -14  -2   23.92    0.82
  -5 -14   2   25.40    0.92
   5  14   2   27.53    0.97
   5  14   2   26.51    0.94
   5 -14  -2   24.42    0.82
  -5 -14   2   26.16    0.97
   5 -14  -2   24.72    0.80
  -5  14  -2   25.56    0.85
   5  14  -3   13.75    0.69
  -5 -14  -3   12.97    0.63
   5 -14   3   14.56    0.82
   5 -14   3   14.48    0.76
  -5 -14   3   11.68    0.73
  -5 -14   3   13.22    0.87
   5  14   3   14.01    0.76
  -5  14  -3   13.56    0.66
  -6 -14   0   14.67    0.64
  -6  14   0   14.47    0.46
  -6 -14   0   14.75    0.67
   6  14   0   14.88    0.61
   6 -14   0   14.36    0.59
   6 -14   0   14.54    0.60
  -6 -14  -1   67.84    1.97
  -6 -14  -1   70.46    2.03
   6  14  -1   70.45    1.93
   6 -14   1   70.67    1.99
   6 -14   1   73.52    1.96
   6  14  -1   68.42    2.01
   6  14   1   71.36    1.91
  -6 -14   1   71.82    2.00
   6 -14  -1   64.98    1.84
  -6  14  -1   71.41    1.84
   6 -14  -1   70.55    1.92
  -6 -14   1   71.57    2.02
   6 -14   2   13.76    0.65
  -6  14   2   11.55    0.44
   6 -14   2   13.54    0.70
   6  14  -2   12.98    0.75
  -6 -14  -2   13.89    0.66
  -6 -14  -2   13.95    0.69
  -6 -14  -2   13.44    0.59
   6 -14  -2   12.56    0.55
  -6 -14   2   12.69    0.66
   6  14   2   13.08    0.73
   6 -14  -2   12.65    0.51
  -6  14  -2   13.06    0.56
   6  14   2   14.45    0.69
   6 -14  -2   12.22    0.53
  -6 -14   2   13.18    0.71
   6  14  -3   49.33    1.54
   6 -14   3   48.50    1.59
  -6 -14  -3   46.61    1.46
   6 -14   3   50.68    1.65
  -6  14  -3   50.07    1.49
  -6 -14   3   50.10    1.58
   6  14   3   48.43    1.55
   7 -14   0    4.07    0.36
  -7 -14   0    3.15    0.35
   7  14   0    3.86    0.38
   7 -14   0    3.59    0.35
  -7 -14   0    4.28    0.43
  -7  14   0    3.91    0.22
   7 -14   1    0.81    0.22
   7  14  -1    0.48    0.18
  -7 -14  -1    0.24    0.24
  -7 -14  -1    0.21    0.21
   7  14  -1   -0.03    0.29
   7 -14   1    0.36    0.21
   7 -14  -1    0.42    0.18
  -7 -14   1    0.05    0.20
   7  14   1    0.46    0.19
  -7  14  -1    0.57    0.17
   7 -14  -1    0.64    0.24
  -7 -14   1    0.58    0.26
   7 -14  -1    0.32    0.19
  -7 -14  -2    2.87    0.31
   7  14  -2    2.52    0.29
   7 -14   2    2.59    0.34
  -7 -14  -2    2.72    0.36
   7 -14   2    2.44    0.36
   7  14   2    3.04    0.40
   7 -14  -2    2.73    0.31
   7  14   2    3.23    0.38
  -7 -14   2    2.50    0.37
  -7 -14   2    3.08    0.36
   7 -14  -2    2.84    0.30
  -7  14  -2    3.25    0.36
   7 -14   3    0.24    0.39
   7 -14   3    0.45    0.32
  -7 -14  -3    0.38    0.27
   7  14  -3    0.67    0.30
  -7  14  -3    0.44    0.27
  -7 -14   3    0.42    0.39
   8 -14   0    3.26    0.35
  -8  14   0    3.06    0.18
  -8 -14   0    3.26    0.39
  -8 -14   0    3.39    0.36
   8  14   0    2.18    0.27
   8 -14   0    2.30    0.29
   8  14  -1    0.50    0.22
   8  14  -1    0.04    0.31
  -8 -14  -1    0.82    0.28
   8 -14   1    0.74    0.25
  -8 -14  -1    0.37    0.25
   8 -14   1    1.33    0.27
  -8 -14   1    0.79    0.28
   8 -14  -1    0.77    0.20
  -8 -14   1    0.72    0.28
   8  14   1    0.43    0.21
  -8  14  -1    0.90    0.19
  -8 -14  -2    2.31    0.30
   8 -14   2    2.10    0.36
  -8 -14  -2    2.89    0.41
   8 -14   2    1.60    0.33
  -8  14  -2    2.38    0.28
  -8 -14   2    2.17    0.37
   8  14   2    2.47    0.45
   8  14   2    2.00    0.38
  -8 -14   2    1.50    0.34
   8 -14  -2    2.45    0.26
   8 -14  -2    2.30    0.24
   8 -14   3    0.24    0.34
   8 -14   3    0.07    0.42
  -8 -14  -3    0.33    0.28
   8  14   3    0.66    0.42
  -8  14  -3    0.41    0.28
  -8 -14   3    0.61    0.39
   9 -14   0   -0.06    0.20
   9 -14   0    0.00    0.18
  -9 -14   0    0.11    0.24
   9  14   0    0.15    0.19
  -9 -14   0   -0.34    0.26
   9 -14   1   -0.22    0.22
  -9 -14  -1    0.29    0.29
  -9 -14  -1   -0.18    0.23
   9 -14   1    0.16    0.23
   9  14   1    0.01    0.22
  -9  14  -1    0.22    0.18
   9 -14  -1   -0.28    0.19
  -9 -14   1    0.15    0.27
   9  14   1    0.15    0.28
  -9 -14   1    0.16    0.27
   9 -14  -1    0.11    0.18
   9 -14   2    0.17    0.28
  -9 -14  -2   -0.10    0.24
   9  14  -2    0.23    0.24
   9 -14   2   -0.19    0.29
  -9  14  -2    0.06    0.22
   9 -14  -2    0.48    0.17
  -9 -14   2   -0.32    0.30
   9  14   2   -0.03    0.31
   9 -14   3    0.37    0.46
  -9  14  -3   -0.48    0.30
  -9 -14   3    0.14    0.44
   9  14   3    0.67    0.48
 -10 -14   0   58.45    1.74
  10 -14   0   55.98    1.67
 -10 -14   0   57.18    1.77
 -10 -14   0   56.51    1.61
  10  14   0   54.50    1.68
  10 -14   0   58.02    1.64
  10 -14   1   16.57    0.75
  10 -14   1   14.63    0.73
 -10 -14  -1   15.44    0.83
 -10 -14  -1   15.32    0.77
  10  14   1   15.62    0.71
 -10 -14   1   15.77    0.78
 -10  14  -1   15.08    0.57
  10 -14  -1   14.17    0.63
 -10 -14   1   15.16    0.83
  10 -14  -1   15.09    0.61
 -10 -14   1   14.97    0.65
  10  14   1   15.58    0.80
  10  14   1   14.89    0.85
  10 -14   2   47.02    1.53
  10  14  -2   47.23    1.51
  10 -14   2   50.64    1.60
 -10 -14   2   48.09    1.40
  10  14   2   49.80    1.61
 -10 -14   2   47.20    1.56
  10 -14  -2   45.65    1.34
 -10  14  -2   46.75    1.39
  11 -14   0   21.90    0.85
 -11 -14   0   20.73    0.91
  11 -14   0   20.33    0.83
 -11 -14   0   21.29    0.81
  11 -14   1    4.58    0.52
  11 -14   1    4.40    0.45
 -11 -14  -1    5.07    0.54
 -11 -14  -1    3.92    0.37
 -11 -14   1    4.69    0.48
  11  14   1    5.50    0.57
  11  14   1    3.87    0.38
  11 -14  -1    4.85    0.44
 -11 -14   1    3.94    0.45
  11 -14  -1    4.41    0.43
  11  14   1    4.91    0.52
  11 -14   2   16.44    0.85
  11 -14   2   17.56    0.92
 -11 -14   2   17.94    0.93
 -11  14  -2   18.37    0.75
 -11 -14   2   17.69    0.75
  11 -14  -2   16.94    0.59
  11  14   2   18.58    0.99
  12  14   0   10.77    0.81
 -12 -14   0   11.42    0.81
  12 -14   0    9.32    0.61
 -12 -14   0    9.30    0.59
 -12 -14   0   10.00    0.74
  12 -14   1   24.43    0.98
  12 -14   1   24.16    0.99
  12  14   1   22.54    0.97
  12  14   1   24.14    1.16
  12 -14  -1   23.84    0.87
 -12 -14   1   23.67    1.05
 -12 -14   1   24.32    0.89
  12  14   1   23.96    1.08
  12 -14  -1   22.17    0.83
  13 -14   0    1.97    0.37
  13  14   0    1.81    0.52
 -13 -14   0    1.35    0.41
   0  15   0    0.01    0.13
   0 -15   0    0.20    0.17
   0 -15   1    0.11    0.17
   0 -15  -1    0.04    0.18
   0 -15  -1    0.01    0.15
   0  15   1    0.30    0.12
   0 -15   1    0.09    0.16
   0 -15  -2   -0.25    0.20
   0 -15  -2   -0.39    0.16
   0  15  -2   -0.07    0.17
   0  15   2   -0.13    0.19
   0 -15   2    0.01    0.21
   0 -15   2    0.00    0.22
   0 -15   3   -0.44    0.30
   0 -15  -3    0.24    0.21
   0 -15   3    0.07    0.29
  -1 -15   0    5.13    0.40
  -1 -15   0    5.19    0.40
   1 -15   0    5.00    0.38
   1  15   0    5.25    0.33
  -1  15   0    4.81    0.31
  -1 -15  -1    0.21    0.18
   1 -15   1    0.03    0.18
  -1  15   1    0.20    0.12
   1 -15   1    0.32    0.21
  -1 -15  -1   -0.22    0.17
   1  15  -1    0.34    0.16
  -1 -15   1    0.34    0.18
   1 -15  -1    0.35    0.17
  -1 -15   1    0.01    0.21
  -1  15  -1    0.23    0.15
   1  15   1    0.12    0.13
   1 -15  -1    0.58    0.19
   1 -15   2    4.24    0.47
   1  15  -2    3.53    0.35
  -1 -15  -2    4.66    0.41
   1 -15   2    3.77    0.40
  -1 -15  -2    3.53    0.36
  -1 -15   2    4.37    0.46
  -1 -15   2    3.95    0.45
   1  15   2    3.21    0.37
   1 -15  -2    3.55    0.37
  -1  15  -2    3.62    0.36
   1 -15  -2    3.85    0.40
   1 -15   3    0.10    0.31
  -1 -15  -3    0.04    0.23
  -1 -15   3    0.23    0.31
  -1  15  -3   -0.08    0.21
  -1 -15   3    0.50    0.31
   1 -15  -3   -0.15    0.21
  -2 -15   0   28.76    0.99
  -2  15   0   28.64    0.83
   2  15   0   28.90    0.89
  -2 -15   0   27.69    0.96
   2 -15   0   27.70    0.94
   2 -15   0   27.28    0.95
   2 -15   1   56.06    1.63
  -2  15   1   57.09    1.41
   2  15  -1   55.34    1.56
  -2 -15  -1   57.23    1.68
  -2 -15  -1   55.31    1.64
   2 -15  -1   56.48    1.61
   2 -15  -1   56.17    1.63
  -2 -15   1   55.27    1.65
  -2 -15   1   56.75    1.68
   2  15   1   56.89    1.51
  -2  15  -1   57.59    1.55
  -2 -15  -2   23.47    0.88
   2 -15   2   23.97    0.90
  -2 -15  -2   22.88    0.88
   2  15  -2   23.57    0.84
  -2 -15   2   22.75    0.91
  -2  15  -2   23.39    0.82
  -2 -15   2   22.91    0.90
   2 -15  -2   22.35    0.83
   2 -15  -2   23.34    0.83
  -2 -15  -3   39.14    1.29
   2 -15   3   37.57    1.36
   2 -15   3   37.18    1.31
  -2  15  -3   38.57    1.23
   2 -15  -3   36.27    1.19
  -2 -15   3   39.28    1.34
  -2 -15   3   39.08    1.34
  -3 -15   0   30.37    1.03
   3 -15   0   31.06    1.01
  -3  15   0   29.90    0.87
   3  15   0   30.99    0.95
  -3 -15   0   29.94    1.05
   3 -15   0   30.44    0.99
   3  15  -1   18.70    0.69
  -3  15   1   19.38    0.50
   3 -15   1   18.17    0.76
  -3 -15  -1   18.50    0.76
  -3 -15  -1   17.21    0.74
   3 -15   1   19.45    0.74
  -3 -15   1   18.61    0.74
  -3  15  -1   18.87    0.67
  -3 -15   1   19.68    0.80
   3 -15  -1   18.72    0.71
   3  15   1   19.04    0.66
   3 -15  -1   18.95    0.71
  -3 -15  -2   24.23    0.91
   3 -15   2   24.34    0.92
  -3 -15  -2   24.90    0.93
   3 -15   2   25.23    0.97
  -3 -15   2   25.19    0.94
  -3  15  -2   24.16    0.85
  -3 -15   2   25.32    0.98
   3 -15  -2   23.97    0.86
   3 -15  -2   24.05    0.84
   3  15   2   24.35    0.92
   3 -15   3   14.07    0.82
  -3 -15  -3   13.37    0.65
   3 -15   3   13.32    0.76
   3 -15  -3   12.37    0.59
  -3 -15   3   13.10    0.81
  -3 -15   3   13.19    0.75
  -3  15  -3   13.47    0.66
  -4 -15   0    7.56    0.50
   4  15   0    7.13    0.42
  -4 -15   0    5.61    0.45
   4 -15   0    7.11    0.44
   4 -15   0    7.48    0.45
  -4  15   0    6.68    0.32
  -4 -15  -1   58.69    1.74
   4 -15   1   58.55    1.72
   4  15  -1   59.06    1.64
  -4 -15  -1   57.60    1.70
   4 -15   1   58.90    1.68
   4 -15  -1   57.70    1.63
  -4  15  -1   58.00    1.57
  -4 -15   1   56.04    1.71
   4 -15  -1   56.15    1.65
  -4 -15   1   60.57    1.76
   4  15   1   59.45    1.60
  -4 -15  -2    6.27    0.49
   4 -15   2    5.63    0.55
  -4 -15  -2    7.04    0.52
   4 -15   2    6.99    0.52
   4 -15  -2    6.13    0.42
  -4  15  -2    6.02    0.43
  -4 -15   2    6.52    0.57
   4 -15  -2    7.11    0.54
   4 -15  -2    5.64    0.42
  -4 -15   2    6.18    0.51
  -4 -15  -3   36.20    1.18
   4 -15   3   37.43    1.37
   4 -15   3   36.21    1.29
  -4  15  -3   36.70    1.20
  -4 -15   3   39.21    1.39
   4 -15  -3   33.71    1.08
  -4 -15   3   37.63    1.31
  -5 -15   0    0.62    0.21
   5 -15   0    0.90    0.21
   5  15   0    0.70    0.20
  -5  15   0    0.85    0.15
  -5 -15   0    1.13    0.26
   5 -15   0    1.07    0.22
   5 -15   1    0.27    0.18
   5 -15   1    0.41    0.21
  -5 -15  -1    0.65    0.25
  -5 -15  -1    0.40    0.21
   5  15  -1    0.98    0.21
   5  15   1    0.58    0.19
  -5 -15   1    0.44    0.26
  -5  15  -1    0.55    0.17
   5 -15  -1    0.30    0.17
  -5 -15   1    0.15    0.23
   5 -15  -1    0.44    0.21
   5 -15   2    0.54    0.27
   5 -15   2    0.54    0.29
   5  15  -2    0.58    0.23
  -5 -15  -2    0.79    0.26
  -5 -15  -2    0.78    0.28
   5 -15  -2    0.56    0.20
   5 -15  -2    0.64    0.22
  -5  15  -2    0.83    0.22
  -5 -15   2    0.33    0.29
  -5 -15   2    1.03    0.34
   5 -15   3    0.18    0.34
   5 -15   3    0.55    0.38
  -5 -15  -3    0.22    0.26
  -5  15  -3    0.31    0.27
  -5 -15   3    0.41    0.36
  -6  15   0    0.01    0.11
   6 -15   0   -0.03    0.19
  -6 -15   0   -0.08    0.24
   6  15   0   -0.04    0.19
  -6 -15   0    0.22    0.23
   6 -15   0    0.29    0.19
   6 -15   1    1.39    0.27
   6 -15   1    1.39    0.26
   6  15  -1    1.43    0.27
  -6 -15  -1    1.30    0.28
  -6 -15  -1    1.31    0.28
   6 -15  -1    1.85    0.24
   6  15   1    1.61    0.24
  -6 -15   1    1.32    0.29
  -6  15  -1    1.66    0.21
   6 -15  -1    1.31    0.24
  -6 -15   1    2.12    0.34
   6 -15   2    0.03    0.25
  -6 -15  -2    0.00    0.26
  -6 -15  -2   -0.07    0.19
   6 -15   2    0.49    0.31
  -6 -15  -2    0.58    0.28
  -6 -15   2    0.03    0.28
  -6 -15   2    0.31    0.31
   6  15   2    0.23    0.31
  -6  15  -2   -0.03    0.19
   6 -15  -2    0.06    0.18
   6 -15   3    1.64    0.42
   6 -15   3    1.41    0.46
  -6 -15  -3    1.03    0.30
   6  15  -3    0.96    0.33
  -6 -15   3    1.21    0.43
  -6  15  -3    1.11    0.31
   7 -15   0    3.02    0.32
  -7  15   0    3.03    0.22
   7  15   0    2.90    0.33
  -7 -15   0    2.18    0.33
   7 -15   0    3.18    0.32
  -7 -15  -1    3.56    0.40
  -7 -15  -1    3.28    0.38
   7 -15   1    4.45    0.47
   7 -15   1    5.01    0.43
   7 -15  -1    3.63    0.39
   7  15   1    4.38    0.41
  -7 -15   1    2.75    0.36
  -7 -15   1    4.72    0.52
  -7  15  -1    3.89    0.32
   7 -15  -1    3.98    0.37
  -7 -15  -2    2.38    0.40
   7 -15   2    3.22    0.41
   7 -15   2    2.77    0.40
  -7 -15  -2    2.15    0.30
  -7  15  -2    2.19    0.29
  -7 -15   2    2.73    0.40
   7  15   2    2.18    0.39
   7 -15  -2    1.90    0.26
  -7 -15   2    2.48    0.41
   7 -15   3    3.11    0.47
  -7 -15  -3    2.95    0.40
   7 -15   3    2.80    0.51
  -7 -15   3    2.54    0.49
  -7  15  -3    2.19    0.36
   8 -15   0   59.82    1.77
  -8 -15   0   62.34    1.84
   8 -15   0   60.86    1.74
   8  15   0   61.78    1.76
  -8 -15   0   62.87    1.95
   8  15  -1   78.73    2.23
  -8 -15  -1   75.28    2.19
  -8 -15  -1   75.56    2.09
   8 -15   1   76.46    2.16
   8 -15   1   77.78    2.20
  -8 -15  -1   76.00    2.25
  -8 -15   1   76.24    2.21
  -8  15  -1   77.12    1.99
   8 -15  -1   77.45    2.06
   8  15   1   76.36    2.11
  -8 -15   1   76.77    2.24
   8 -15  -1   77.61    2.10
   8 -15   2   49.67    1.58
   8 -15   2   52.65    1.63
  -8 -15  -2   51.21    1.65
  -8 -15  -2   50.36    1.49
  -8 -15   2   48.11    1.60
  -8  15  -2   49.75    1.44
   8  15   2   53.61    1.62
  -8 -15   2   46.65    1.66
   8 -15  -2   46.45    1.30
   8 -15  -2   46.82    1.39
  -9 -15   0   -0.18    0.29
   9  15   0   -0.08    0.22
   9 -15   0    0.59    0.22
  -9 -15   0    0.20    0.27
   9 -15   0   -0.14    0.23
  -9 -15  -1    8.29    0.62
   9 -15   1    8.81    0.62
  -9 -15  -1    9.47    0.70
   9 -15   1    9.44    0.59
  -9 -15   1    9.23    0.70
   9 -15  -1    8.06    0.50
  -9  15  -1    9.20    0.46
   9  15   1    9.23    0.57
   9  15   1    8.87    0.72
  -9 -15   1    9.76    0.68
   9 -15  -1    9.36    0.52
   9 -15   2    0.21    0.33
  -9 -15  -2    1.13    0.39
  -9 -15  -2    0.36    0.27
   9 -15   2    0.06    0.35
   9  15   2   -0.33    0.35
  -9 -15   2    0.30    0.39
  -9  15  -2    0.27    0.25
   9 -15  -2    0.15    0.20
  10 -15   0    2.49    0.34
  10  15   0    1.90    0.30
  10 -15   0    2.29    0.32
 -10 -15   0    1.99    0.29
 -10 -15   0    1.82    0.39
 -10 -15   0    1.88    0.38
  10 -15   1    8.94    0.63
  10 -15   1    6.69    0.61
 -10 -15  -1    6.16    0.63
 -10 -15  -1    8.19    0.73
  10 -15  -1    6.93    0.50
 -10 -15   1    6.49    0.72
  10  15   1    6.67    0.77
 -10 -15   1    8.24    0.66
 -10 -15   1    7.44    0.52
  10  15   1    8.58    0.59
  10 -15  -1    6.79    0.51
  10 -15   2    1.18    0.41
  10 -15   2    1.66    0.42
 -10  15  -2    1.45    0.32
 -10 -15   2    1.01    0.43
 -10 -15   2    1.86    0.32
  10 -15  -2    1.68    0.25
  10  15   2    1.31    0.50
 -11 -15   0    0.03    0.40
  11 -15   0    0.17    0.26
 -11 -15   0   -0.16    0.33
 -11 -15   0    0.16    0.25
  11 -15   0    0.17    0.28
  11 -15   1   -0.39    0.28
 -11 -15  -1    0.34    0.45
  11 -15   1    0.34    0.32
  11  15   1    0.80    0.45
  11 -15  -1   -0.02    0.26
  11  15   1    0.45    0.41
 -11 -15   1    0.16    0.26
  11 -15  -1    0.32    0.25
 -11 -15   1   -0.16    0.39
  11  15   1   -0.27    0.28
  12 -15   0    8.05    0.63
 -12 -15   0    6.92    0.60
  12  15   0   10.11    0.89
 -12 -15   0   10.05    0.82
   0 -16   0   25.87    0.94
   0  16   0   26.58    0.83
   0 -16   0   26.16    0.93
   0 -16  -1    5.99    0.46
   0 -16   1    5.87    0.47
   0 -16  -1    5.67    0.44
   0  16   1    6.28    0.32
   0 -16   1    6.36    0.49
   0  16  -1    6.32    0.40
   0 -16  -2   19.71    0.81
   0 -16   2   19.61    0.85
   0 -16   2   20.80    0.87
   0  16  -2   20.58    0.78
   0 -16  -2   19.94    0.82
   0  16  -3    3.38    0.40
   0 -16   3    3.31    0.45
   0 -16   3    3.53    0.46
   0 -16  -3    2.97    0.38
   1  16   0    0.49    0.16
  -1 -16   0   -0.02    0.18
  -1  16   0    0.19    0.15
  -1 -16   0   -0.31    0.19
   1 -16   0   -0.05    0.19
   1 -16   0    0.00    0.19
  -1  16   1    9.16    0.35
   1 -16   1    8.85    0.55
   1  16  -1    8.83    0.45
  -1 -16  -1    8.08    0.51
   1 -16   1    8.91    0.52
  -1 -16  -1    8.11    0.52
  -1 -16   1    8.99    0.54
   1 -16  -1    8.48    0.51
   1 -16  -1    8.15    0.51
  -1  16  -1    8.93    0.45
  -1 -16   1    9.24    0.56
   1  16   1    8.30    0.40
   1 -16   2    0.28    0.27
   1  16  -2    0.02    0.19
  -1 -16  -2    0.06    0.22
   1 -16   2   -0.02    0.27
  -1 -16  -2    0.14    0.25
  -1 -16   2    0.38    0.27
  -1  16  -2    0.31    0.21
   1 -16  -2   -0.66    0.22
   1 -16  -2   -0.48    0.21
  -1 -16  -3    4.84    0.54
   1 -16   3    5.81    0.57
   1 -16   3    5.91    0.66
  -1 -16   3    6.55    0.72
  -1  16  -3    6.50    0.53
   1 -16  -3    6.23    0.52
  -1 -16   3    5.35    0.53
   2 -16   0    1.11    0.22
  -2  16   0    1.42    0.19
  -2 -16   0    1.20    0.26
   2 -16   0    1.25    0.25
  -2 -16   0    2.18    0.29
  -2 -16  -1   11.57    0.61
  -2  16   1   11.09    0.37
   2 -16   1   11.55    0.61
  -2 -16  -1   10.30    0.58
   2 -16   1   11.15    0.57
   2  16  -1   10.78    0.52
   2 -16  -1   11.34    0.56
   2 -16  -1   10.74    0.56
  -2 -16   1   11.50    0.61
  -2  16  -1   11.24    0.50
   2  16   1   10.84    0.47
   2  16  -2    1.66    0.29
   2 -16   2    1.59    0.34
  -2 -16  -2    1.97    0.32
   2 -16   2    1.23    0.31
  -2 -16  -2    0.97    0.27
  -2 -16   2    1.51    0.35
   2 -16  -2    1.55    0.26
  -2 -16   2    1.10    0.32
  -2  16  -2    1.11    0.23
   2 -16  -2    1.39    0.29
  -2 -16  -3    6.56    0.62
   2 -16   3    7.51    0.67
   2 -16   3    8.71    0.78
   2 -16  -3    7.98    0.54
  -2 -16   3    6.89    0.66
  -2 -16   3    8.11    0.83
  -2  16  -3    7.30    0.57
  -3 -16   0    1.70    0.29
   3 -16   0    1.48    0.25
  -3  16   0    1.50    0.19
   3 -16   0    2.09    0.28
   3  16   0    1.51    0.22
  -3 -16   0    1.00    0.27
   3  16  -1   -0.02    0.17
   3 -16   1    0.05    0.23
  -3 -16  -1   -0.28    0.21
  -3 -16  -1    0.18    0.20
   3 -16   1    0.07    0.22
  -3 -16   1    0.34    0.24
  -3  16  -1    0.06    0.17
   3  16   1   -0.08    0.15
   3 -16  -1    0.05    0.18
   3 -16  -1    0.23    0.20
  -3 -16  -2    1.11    0.30
   3  16  -2    1.18    0.26
   3 -16   2    1.61    0.35
   3 -16   2    1.55    0.32
  -3 -16  -2    1.20    0.32
  -3 -16   2    1.06    0.30
   3 -16  -2    1.39    0.25
  -3 -16   2    2.09    0.38
  -3  16  -2    1.02    0.24
  -3 -16  -3    0.31    0.28
   3 -16   3   -0.02    0.35
   3 -16   3   -0.07    0.34
  -3 -16   3   -0.14    0.36
  -3  16  -3   -0.33    0.25
   3 -16  -3    0.20    0.25
   4  16   0    4.71    0.39
   4 -16   0    4.74    0.40
  -4  16   0    4.99    0.29
  -4 -16   0    4.07    0.44
  -4 -16   0    4.47    0.45
   4 -16   0    5.02    0.40
  -4 -16  -1   11.01    0.61
  -4 -16  -1   10.97    0.63
   4  16  -1   10.85    0.54
   4 -16   1   10.41    0.60
   4 -16   1    9.39    0.57
  -4 -16   1   11.12    0.62
  -4 -16   1   10.37    0.68
   4  16   1   11.17    0.52
   4 -16  -1   10.76    0.55
   4 -16  -1   10.51    0.54
   4 -16   2    3.08    0.40
  -4 -16  -2    3.52    0.39
  -4 -16  -2    3.80    0.40
   4 -16   2    3.29    0.41
  -4 -16   2    2.98    0.42
  -4  16  -2    3.31    0.33
  -4 -16   2    4.01    0.42
   4 -16  -2    3.76    0.43
   4 -16  -2    4.38    0.43
  -4 -16  -3    6.71    0.58
   4 -16   3    8.09    0.81
   4 -16   3    7.94    0.71
  -4  16  -3    6.23    0.56
  -4 -16   3    7.96    0.72
   4 -16  -3    7.03    0.48
   5  16   0    4.72    0.40
  -5 -16   0    3.63    0.38
  -5  16   0    4.39    0.28
   5 -16   0    4.39    0.41
  -5 -16   0    5.43    0.50
   5 -16   0    4.42    0.40
  -5 -16  -1    0.02    0.24
   5 -16   1    0.41    0.24
   5 -16   1    0.22    0.23
   5  16  -1    0.29    0.20
  -5 -16  -1    0.29    0.24
   5  16   1    0.52    0.22
   5 -16  -1    0.79    0.21
  -5 -16   1    0.32    0.29
  -5 -16   1    0.78    0.28
   5 -16  -1    0.34    0.22
   5 -16   2    3.59    0.42
  -5 -16  -2    3.57    0.40
   5 -16   2    4.30    0.45
  -5 -16  -2    3.79    0.44
  -5 -16   2    4.65    0.50
   5 -16  -2    4.01    0.42
   5 -16  -2    3.23    0.34
  -5 -16   2    3.26    0.42
  -5  16  -2    3.60    0.41
   5 -16   3    0.10    0.47
  -5 -16  -3    0.14    0.30
   5 -16   3    0.84    0.40
  -5 -16   3    0.79    0.42
  -5  16  -3    0.25    0.30
  -6 -16   0   10.91    0.65
   6  16   0   10.77    0.58
  -6  16   0   11.51    0.41
  -6 -16   0   11.47    0.66
   6 -16   0   11.00    0.59
   6 -16   0   11.50    0.58
   6  16  -1    0.61    0.23
   6 -16   1    0.87    0.26
  -6 -16  -1    0.51    0.29
   6 -16   1    0.75    0.28
  -6 -16  -1    0.64    0.29
   6 -16  -1    1.24    0.27
  -6 -16   1    0.37    0.31
   6 -16  -1    0.86    0.22
   6  16   1    1.02    0.25
   6 -16   2    9.91    0.63
   6 -16   2   10.53    0.70
  -6 -16  -2    9.72    0.69
  -6 -16  -2    8.86    0.66
  -6 -16  -2    8.76    0.57
  -6 -16   2    8.22    0.66
  -6 -16   2    8.34    0.72
  -6  16  -2    9.60    0.56
   6 -16  -2    9.63    0.51
   6 -16  -2    8.41    0.51
  -6 -16  -3    0.46    0.32
   6 -16   3    0.16    0.46
  -6 -16   3    0.19    0.46
  -6  16  -3   -0.18    0.30
  -7 -16   0    1.72    0.32
  -7 -16   0    1.87    0.36
   7 -16   0    1.87    0.31
   7 -16   0    1.66    0.29
   7  16   0    1.76    0.30
   7  16  -1    0.59    0.23
  -7 -16  -1    0.18    0.27
   7 -16   1    0.40    0.28
  -7 -16  -1    0.46    0.33
   7 -16   1    1.01    0.29
   7  16   1    0.40    0.25
  -7 -16   1    0.25    0.28
   7 -16  -1    0.79    0.22
  -7  16  -1    0.64    0.20
   7 -16   2    1.54    0.35
  -7 -16  -2    1.65    0.31
  -7 -16  -2    2.01    0.38
   7 -16   2    1.62    0.41
  -7 -16   2    1.10    0.36
   7  16   2    2.02    0.44
   7 -16  -2    1.65    0.27
  -7 -16   2    2.14    0.47
  -7  16  -2    1.76    0.31
   7 -16  -2    1.76    0.27
   8 -16   0    0.08    0.24
   8  16   0    0.11    0.23
   8 -16   0    0.04    0.25
  -8 -16   0    0.49    0.28
  -8 -16   0   -0.36    0.31
   8 -16   1    0.14    0.28
   8  16  -1    0.17    0.29
   8 -16   1   -0.02    0.25
  -8 -16  -1   -0.34    0.31
  -8 -16  -1   -0.08    0.35
  -8 -16   1   -0.01    0.32
   8 -16  -1    0.14    0.22
  -8  16  -1   -0.04    0.21
   8 -16  -1    0.13    0.25
   8  16   1    0.30    0.26
  -8 -16  -2    0.08    0.27
   8 -16   2    0.65    0.33
   8 -16   2    0.52    0.36
  -8 -16  -2   -0.30    0.35
  -8 -16   2   -0.10    0.39
   8 -16  -2    0.43    0.22
   8  16   2    0.09    0.42
   8 -16  -2    0.34    0.23
  -8  16  -2    0.04    0.28
  -9 -16   0   -0.17    0.30
  -9 -16   0   -0.80    0.31
   9 -16   0    0.31    0.27
   9 -16   0    0.02    0.24
   9  16   0   -0.48    0.22
  -9 -16  -1    0.14    0.31
   9 -16   1    0.40    0.30
   9 -16   1   -0.14    0.29
  -9 -16  -1   -0.14    0.39
  -9 -16   1    0.39    0.33
   9  16   1    1.00    0.49
   9  16   1    0.56    0.28
   9 -16  -1    0.40    0.24
  -9 -16   1    0.08    0.37
   9 -16  -1    0.17    0.28
  -9  16  -1   -0.07    0.22
  -9 -16  -2    1.00    0.44
   9 -16   2    0.39    0.39
   9  16   2   -0.06    0.46
  -9  16  -2    0.17    0.30
  -9 -16   2    0.31    0.44
  10 -16   0    0.15    0.30
 -10 -16   0    0.31    0.28
 -10 -16   0   -0.50    0.38
  10  16   0   -0.22    0.28
  10 -16   0   -0.11    0.26
 -10 -16   0   -0.30    0.36
  10 -16   1    2.87    0.41
 -10 -16  -1    2.68    0.45
 -10 -16  -1    3.89    0.51
  10 -16   1    3.46    0.42
  10 -16  -1    2.99    0.37
  10  16   1    2.91    0.40
  10 -16  -1    2.92    0.33
 -10 -16   1    3.22    0.38
 -10 -16   1    3.15    0.49
 -11 -16   0   -0.61    0.41
 -11 -16   0   -0.60    0.44
   0 -17   0    0.15    0.26
   0  17   0    0.17    0.17
   0 -17   0   -0.20    0.21
   0  17  -1    0.08    0.18
   0 -17   1   -0.21    0.25
   0  17   1    0.00    0.14
   0 -17  -1    0.15    0.26
   0 -17   1    0.00    0.24
   0 -17  -1   -0.13    0.21
   0  17  -2   -0.04    0.22
   0 -17  -2    0.09    0.26
   0 -17   2    0.00    0.29
   0 -17  -2   -0.34    0.27
   0 -17   2    0.37    0.29
   0 -17   3   -0.19    0.40
   0 -17   3   -0.08    0.44
   0 -17  -3    0.44    0.31
  -1  17   0    4.63    0.33
   1 -17   0    4.43    0.44
   1  17   0    3.84    0.35
  -1 -17   0    4.04    0.48
   1 -17   0    4.44    0.43
  -1 -17   0    3.97    0.43
  -1 -17  -1   23.14    0.91
   1 -17   1   23.08    0.91
   1  17  -1   24.15    0.83
   1 -17   1   23.52    0.93
  -1 -17  -1   21.76    0.91
  -1  17   1   23.17    0.69
   1 -17  -1   21.58    0.87
  -1 -17   1   24.03    0.95
  -1  17  -1   24.13    0.81
   1  17   1   23.14    0.74
  -1 -17   1   24.35    0.93
   1 -17  -1   22.40    0.89
  -1 -17  -2    3.39    0.40
   1  17  -2    2.73    0.33
  -1 -17  -2    3.64    0.41
   1 -17   2    3.30    0.41
   1 -17   2    3.27    0.41
  -1 -17   2    3.16    0.44
  -1  17  -2    3.37    0.35
  -1 -17   2    3.95    0.46
   1 -17  -2    3.89    0.40
   1 -17  -2    3.36    0.40
  -1 -17  -3   14.38    0.80
   1 -17   3   15.83    0.97
   1 -17   3   16.89    0.91
   1 -17  -3   15.28    0.78
  -1 -17   3   15.82    0.91
  -1  17  -3   14.83    0.80
  -1 -17   3   16.10    0.99
  -2  17   0   12.15    0.48
   2 -17   0   10.42    0.60
  -2 -17   0   11.62    0.66
   2  17   0   11.34    0.53
   2 -17   0   11.24    0.60
  -2 -17   0   11.40    0.62
  -2 -17  -1    8.18    0.57
   2 -17   1    6.81    0.55
   2  17  -1    6.76    0.46
   2 -17   1    7.48    0.52
  -2  17   1    7.72    0.30
  -2 -17  -1    7.18    0.56
  -2  17  -1    7.55    0.45
   2 -17  -1    6.94    0.51
  -2 -17   1    6.94    0.58
   2  17   1    7.63    0.41
  -2 -17   1    7.37    0.55
   2 -17  -1    7.72    0.52
   2 -17   2   10.39    0.65
  -2 -17  -2    9.85    0.66
   2  17  -2    9.87    0.59
  -2 -17  -2    9.63    0.65
   2 -17   2    9.46    0.70
  -2 -17   2    9.68    0.71
  -2  17  -2   10.72    0.56
   2 -17  -2    9.49    0.62
   2 -17  -2   10.21    0.60
  -2 -17   2    9.02    0.66
  -2 -17  -3    5.18    0.53
   2 -17   3    5.67    0.60
   2 -17   3    4.92    0.54
  -2 -17   3    5.67    0.59
   2 -17  -3    6.07    0.57
  -2  17  -3    5.19    0.56
   3 -17   0    4.01    0.45
   3  17   0    4.21    0.39
  -3 -17   0    3.67    0.39
  -3  17   0    4.26    0.32
  -3 -17   0    3.28    0.37
   3 -17   0    3.66    0.39
  -3 -17  -1    0.33    0.24
   3  17  -1    0.45    0.21
   3 -17   1    0.59    0.26
  -3 -17  -1   -0.04    0.24
   3 -17   1    0.07    0.25
  -3 -17   1   -0.06    0.28
  -3 -17   1    0.13    0.25
   3 -17  -1   -0.04    0.23
   3 -17  -1   -0.06    0.21
  -3 -17  -2    2.87    0.42
  -3 -17  -2    3.39    0.43
   3  17  -2    4.30    0.46
   3 -17   2    3.69    0.45
   3 -17   2    2.97    0.41
  -3  17  -2    2.74    0.32
  -3 -17   2    3.76    0.44
   3 -17  -2    3.15    0.35
  -3 -17   2    3.23    0.45
   3 -17  -2    3.78    0.39
   3 -17   3    0.72    0.46
   3 -17   3    0.31    0.43
  -3 -17  -3    0.59    0.35
  -3  17  -3   -0.11    0.30
  -3 -17   3   -0.29    0.41
   3 -17  -3    0.00    0.28
  -4 -17   0    7.63    0.58
   4 -17   0    7.67    0.52
  -4 -17   0    7.28    0.56
   4 -17   0    7.93    0.54
   4  17   0    7.89    0.49
  -4  17   0    8.07    0.38
  -4 -17  -1    1.70    0.34
   4  17  -1    1.30    0.26
   4 -17   1    1.17    0.29
   4 -17   1    1.52    0.31
  -4 -17  -1    1.38    0.30
   4 -17  -1    1.43    0.28
   4  17   1    1.31    0.23
   4 -17  -1    1.44    0.27
  -4 -17   1    1.48    0.34
  -4 -17   1    2.13    0.38
  -4  17  -1    1.07    0.23
   4  17  -2    7.02    0.52
   4 -17   2    6.74    0.65
   4 -17   2    5.75    0.58
  -4 -17  -2    7.16    0.62
  -4 -17  -2    7.30    0.64
  -4 -17   2    6.50    0.63
  -4  17  -2    6.34    0.51
  -4 -17   2    6.29    0.57
   4 -17  -2    7.22    0.53
   4 -17  -2    5.69    0.52
  -5 -17   0    6.94    0.59
   5  17   0    7.06    0.49
   5 -17   0    7.15    0.51
  -5 -17   0    6.40    0.57
  -5  17   0    7.47    0.36
   5 -17   0    7.07    0.51
   5 -17   1    7.72    0.60
  -5 -17  -1    7.48    0.58
  -5 -17  -1    7.82    0.62
   5  17  -1    7.92    0.52
   5 -17   1    6.81    0.57
   5 -17  -1    8.05    0.52
  -5 -17   1    6.15    0.63
  -5  17  -1    7.60    0.46
   5 -17  -1    7.30    0.50
  -5 -17   1    7.72    0.60
   5  17   1    7.16    0.49
  -5 -17  -2    4.92    0.51
  -5 -17  -2    5.40    0.53
   5 -17   2    5.37    0.59
   5  17  -2    5.84    0.53
   5 -17   2    5.50    0.65
  -5 -17   2    5.08    0.55
  -5  17  -2    5.19    0.50
   5 -17  -2    6.21    0.52
  -5 -17   2    6.95    0.73
   5 -17  -2    6.55    0.51
  -6 -17   0   -0.39    0.30
  -6 -17   0    0.00    0.29
   6 -17   0    0.04    0.25
   6  17   0    0.28    0.24
   6 -17   0    0.09    0.24
   6 -17   1   -0.32    0.26
   6 -17   1   -0.27    0.26
  -6 -17  -1   -0.11    0.31
  -6 -17  -1    0.04    0.31
   6  17  -1    0.26    0.25
  -6 -17   1   -0.63    0.30
   6 -17  -1    0.07    0.26
  -6 -17   1   -0.26    0.31
   6 -17  -1    0.01    0.22
   6  17   1   -0.17    0.22
  -6  17  -1    0.29    0.21
   6 -17   2    0.27    0.32
  -6 -17  -2    0.32    0.28
  -6 -17  -2    0.31    0.36
  -6 -17  -2    0.04    0.35
   6 -17   2    0.30    0.36
  -6 -17   2    0.12    0.36
   6 -17  -2    0.41    0.27
   6  17   2    0.07    0.41
   6 -17  -2   -0.21    0.23
  -6  17  -2    0.19    0.27
  -6 -17   2    0.01    0.38
   7 -17   0    2.18    0.32
  -7 -17   0    2.09    0.40
   7  17   0    1.88    0.30
   7 -17   0    2.20    0.34
  -7 -17   0    1.69    0.39
   7 -17   1    8.84    0.65
   7  17  -1    9.55    0.62
  -7 -17  -1    9.36    0.76
   7 -17   1    9.47    0.66
  -7 -17  -1    8.25    0.67
  -7  17  -1    9.00    0.49
   7 -17  -1    8.85    0.56
  -7 -17   1    9.03    0.75
  -7 -17   1    8.37    0.70
   7  17   1    9.47    0.61
   7 -17  -1    9.63    0.60
   7 -17   2    1.92    0.41
   7 -17   2    2.52    0.48
  -7 -17  -2    1.74    0.45
  -7 -17  -2    2.05    0.37
   7  17   2    1.57    0.51
   7 -17  -2    1.53    0.29
   7 -17  -2    1.44    0.30
  -7  17  -2    1.98    0.33
  -7 -17   2    1.19    0.44
  -8 -17   0   21.04    1.04
  -8 -17   0   21.25    0.97
   8  17   0   19.73    0.86
   8 -17   0   21.14    0.86
   8 -17   0   21.52    0.89
  -8 -17  -1   28.54    1.21
   8 -17   1   28.74    1.06
   8 -17   1   27.92    1.11
  -8 -17  -1   27.16    1.13
  -8 -17   1   27.82    1.16
  -8 -17   1   28.03    1.19
   8  17   1   27.26    1.01
   8 -17  -1   27.64    0.99
   8 -17  -1   28.91    1.01
   9 -17   0    4.08    0.46
  -9 -17   0    4.08    0.51
   9 -17   0    3.84    0.41
  -9 -17   0    4.09    0.58
   9  17   0    3.23    0.37
  -9 -17  -1   14.31    0.96
   9 -17   1   15.60    0.84
  -9 -17  -1   13.28    0.85
   9 -17   1   13.70    0.81
   9 -17  -1   13.78    0.69
   9  17   1   14.77    0.78
   9 -17  -1   14.04    0.72
  -9 -17   1   15.36    0.91
  -9 -17   1   15.14    0.96
 -10 -17   0    0.73    0.43
 -10 -17   0    0.47    0.47
   0 -18   0   -0.08    0.24
   0 -18   0    0.26    0.26
   0  18   0    0.19    0.20
   0  18   1    8.62    0.41
   0 -18  -1    8.12    0.59
   0 -18   1    8.60    0.62
   0 -18  -1    8.28    0.58
   0 -18   1    7.56    0.63
   0  18  -1    8.81    0.49
   0 -18  -2   -0.08    0.28
   0 -18   2    0.15    0.34
   0 -18   2    0.35    0.32
   0  18  -2    0.21    0.26
   0 -18  -2   -0.20    0.31
  -1 -18   0   43.96    1.43
   1 -18   0   44.33    1.41
  -1 -18   0   42.31    1.44
   1  18   0   45.41    1.29
   1 -18   0   43.36    1.43
  -1 -18  -1   31.70    1.16
  -1 -18  -1   30.90    1.16
   1 -18   1   32.35    1.17
   1 -18   1   31.06    1.14
  -1  18   1   32.72    0.89
   1  18  -1   30.51    1.02
   1 -18  -1   28.97    1.12
  -1 -18   1   31.74    1.19
  -1 -18   1   30.82    1.14
   1 -18  -1   31.54    1.13
  -1  18  -1   32.88    1.03
   1  18   1   32.19    0.94
   1 -18   2   36.89    1.30
   1  18  -2   36.60    1.20
  -1 -18  -2   34.08    1.28
   1 -18   2   35.90    1.34
  -1 -18  -2   34.73    1.27
   1 -18  -2   34.51    1.24
  -1 -18   2   34.60    1.35
  -1  18  -2   35.63    1.18
   1 -18  -2   34.26    1.24
  -1 -18   2   36.86    1.32
   2  18   0    1.82    0.27
  -2 -18   0    2.72    0.35
  -2  18   0    2.31    0.25
   2 -18   0    2.36    0.35
  -2 -18   0    1.45    0.31
   2 -18   0    2.70    0.37
   2 -18   1    0.70    0.28
   2  18  -1    0.95    0.25
  -2 -18  -1    0.51    0.28
  -2 -18  -1    0.22    0.30
   2 -18   1    0.62    0.27
  -2  18  -1    0.96    0.23
   2 -18  -1    0.11    0.28
  -2 -18   1    0.45    0.32
   2 -18  -1    0.65    0.25
  -2 -18   1    0.57    0.29
  -2 -18  -2    1.68    0.39
  -2 -18  -2    1.22    0.36
   2  18  -2    1.51    0.33
   2 -18   2    1.21    0.39
   2 -18   2    1.77    0.41
   2 -18  -2    2.20    0.35
  -2 -18   2    3.00    0.48
  -2 -18   2    2.32    0.44
  -2  18  -2    1.53    0.31
  -3  18   0    0.12    0.18
  -3 -18   0    0.00    0.26
   3 -18   0    0.34    0.28
   3  18   0    0.07    0.21
  -3 -18   0   -0.08    0.26
   3 -18   0    0.06    0.25
   3 -18   1    0.50    0.28
  -3 -18  -1    0.99    0.34
  -3 -18  -1    0.83    0.32
   3  18  -1    0.54    0.24
   3 -18   1    0.48    0.28
   3 -18  -1    0.63    0.30
  -3 -18   1    0.28    0.30
   3 -18  -1    1.36    0.29
  -3  18  -1    0.83    0.23
  -3 -18   1    1.08    0.37
   3  18   1    0.47    0.21
   3 -18   2    0.36    0.33
  -3 -18  -2   -0.56    0.34
  -3 -18  -2    0.33    0.33
   3  18  -2   -0.05    0.26
   3 -18   2   -0.10    0.35
  -3 -18   2    0.24    0.35
  -3  18  -2   -0.28    0.26
   3 -18  -2    0.57    0.29
   3 -18  -2   -0.02    0.32
  -3 -18   2   -0.29    0.38
  -4 -18   0    0.81    0.32
   4  18   0    1.36    0.27
   4 -18   0    1.01    0.27
  -4 -18   0    0.93    0.31
   4 -18   0    1.60    0.32
  -4  18   0    1.13    0.21
   4  18  -1    0.63    0.25
  -4 -18  -1    0.56    0.31
  -4 -18  -1    1.49    0.35
   4 -18   1    0.24    0.29
   4 -18   1    0.69    0.30
  -4  18  -1    0.78    0.24
  -4 -18   1    0.70    0.32
   4  18   1    0.59    0.25
   4 -18  -1    1.13    0.28
   4 -18  -1    0.61    0.30
  -4 -18   1    0.18    0.33
  -4 -18  -2    0.67    0.37
   4 -18   2    0.36    0.40
  -4 -18  -2    0.75    0.38
   4 -18   2    1.46    0.41
   4 -18  -2    0.91    0.30
  -4  18  -2    0.90    0.31
  -4 -18   2    1.04    0.47
   4 -18  -2    1.53    0.35
  -4 -18   2    1.19    0.42
   5 -18   0  131.22    3.61
   5  18   0  133.26    3.48
  -5 -18   0  137.85    3.66
  -5 -18   0  138.04    3.72
   5 -18   0  138.78    3.58
   5 -18   1   32.21    1.15
  -5 -18  -1   29.96    1.18
   5  18  -1   31.34    1.08
   5 -18   1   29.51    1.17
  -5 -18  -1   30.92    1.23
   5  18   1   30.72    1.03
   5 -18  -1   30.34    1.09
  -5  18  -1   31.32    0.98
   5 -18  -1   30.54    1.09
  -5 -18   1   29.61    1.17
  -5 -18   1   30.82    1.23
   5 -18   2  114.48    3.17
   5 -18   2  114.73    3.14
  -5 -18  -2  108.67    3.13
  -5 -18  -2  108.53    3.07
  -5  18  -2  113.87    2.90
   5 -18  -2  104.98    2.97
  -5 -18   2  111.85    3.17
  -5 -18   2  109.85    3.09
   5 -18  -2  106.42    2.88
   6 -18   0    0.94    0.29
  -6 -18   0    0.81    0.37
   6  18   0    1.37    0.30
   6 -18   0    0.89    0.31
  -6 -18   0    1.28    0.40
  -6 -18  -1   -0.55    0.35
   6 -18   1   -0.12    0.32
  -6 -18  -1   -0.55    0.32
   6  18  -1    0.46    0.30
   6 -18   1   -0.56    0.31
   6 -18  -1    0.37    0.26
  -6  18  -1    0.29    0.23
   6  18   1    0.43    0.30
  -6 -18   1   -0.59    0.35
   6 -18  -1   -0.27    0.30
  -6 -18   1   -0.66    0.32
   7 -18   0    5.15    0.54
   7  18   0    5.18    0.54
  -7 -18   0    3.88    0.53
  -7 -18   0    4.51    0.51
   7 -18   0    5.29    0.57
   7 -18   1    3.58    0.48
  -7 -18  -1    3.44    0.54
   7 -18   1    3.47    0.44
   7  18  -1    3.22    0.42
  -7 -18   1    3.26    0.52
  -7 -18   1    2.82    0.50
   7 -18  -1    3.41    0.37
   7 -18  -1    2.95    0.40
   7  18   1    3.61    0.41
   8 -18   0    0.68    0.33
   8  18   0    0.08    0.29
  -8 -18   0    0.28    0.45
   8 -18   0    0.20    0.33
  -8 -18   0    1.08    0.42
  -8 -18  -1   -0.45    0.42
  -8 -18   1    0.13    0.44
  -8 -18   1   -0.42    0.45
   8 -18  -1    0.08    0.33
   0  19   0    0.02    0.21
   0 -19   0    0.36    0.31
   0 -19   0   -0.15    0.28
   0 -19   1    0.42    0.34
   0 -19  -1   -0.02    0.29
   0  19  -1    0.26    0.24
   0 -19  -1    0.05    0.33
   0 -19   1    0.28    0.33
   0 -19  -2    0.00    0.39
   0 -19   2   -0.49    0.41
   0 -19   2    0.10    0.42
   0  19  -2   -0.05    0.30
   1 -19   0    3.67    0.43
  -1 -19   0    3.90    0.44
   1 -19   0    3.58    0.42
  -1 -19   0    3.65    0.43
   1  19   0    4.04    0.44
  -1  19   0    3.81    0.40
  -1 -19  -1    2.29    0.39
   1  19  -1    2.14    0.33
   1 -19   1    2.91    0.41
  -1 -19  -1    2.05    0.39
   1 -19   1    1.78    0.40
  -1 -19   1    1.93    0.37
  -1  19  -1    2.23    0.32
   1 -19  -1    1.88    0.35
  -1 -19   1    2.23    0.46
   1 -19  -1    1.70    0.36
   1  19   1    2.43    0.26
   1 -19   2    3.59    0.50
   1 -19   2    3.62    0.48
   1  19  -2    2.51    0.36
  -1 -19  -2    3.74    0.51
  -1 -19   2    3.01    0.49
  -1  19  -2    3.43    0.40
  -1 -19   2    3.98    0.51
   2  19   0   15.98    0.69
   2 -19   0   15.00    0.79
  -2 -19   0   15.50    0.84
  -2 -19   0   15.39    0.80
   2 -19   0   16.33    0.78
   2 -19   1   13.71    0.80
   2 -19   1   12.70    0.76
  -2 -19  -1   13.05    0.81
   2  19  -1   13.89    0.69
  -2 -19  -1   13.71    0.81
  -2 -19   1   13.35    0.83
   2  19   1   13.13    0.59
  -2 -19   1   13.97    0.79
   2 -19  -1   13.58    0.76
  -2  19  -1   13.62    0.64
   2 -19  -1   13.35    0.73
  -2 -19  -2   12.18    0.84
   2  19  -2   13.56    0.72
   2 -19   2   12.44    0.93
  -2 -19   2   13.46    0.95
  -2  19  -2   13.78    0.74
   2 -19  -2   12.13    0.80
  -2 -19   2   13.49    0.88
   3 -19   0    5.16    0.56
   3  19   0    5.56    0.50
   3 -19   0    4.35    0.45
  -3  19   0    5.74    0.40
  -3 -19   0    4.55    0.50
  -3 -19   0    5.36    0.55
  -3 -19  -1   21.84    1.02
  -3 -19  -1   22.08    0.98
   3  19  -1   22.76    0.88
   3 -19   1   21.77    0.98
   3 -19   1   22.35    0.99
   3  19   1   21.60    0.81
   3 -19  -1   20.39    0.93
  -3  19  -1   21.84    0.82
  -3 -19   1   23.92    1.08
  -3 -19   1   21.60    0.98
   3 -19  -1   21.23    0.94
   4 -19   0    0.72    0.30
  -4 -19   0    1.01    0.36
  -4 -19   0    0.04    0.34
   4 -19   0    0.14    0.32
   4  19   0    0.53    0.27
  -4 -19  -1    0.97    0.37
   4 -19   1    0.10    0.32
   4 -19   1    0.43    0.33
   4  19  -1   -0.07    0.27
  -4 -19  -1   -0.32    0.35
  -4  19  -1    0.17    0.25
   4  19   1   -0.01    0.26
  -4 -19   1    0.67    0.37
   4 -19  -1    0.60    0.30
   4 -19  -1    0.40    0.33
  -4 -19   1    0.29    0.40
  -5 -19   0    4.43    0.53
  -5 -19   0    3.20    0.48
   5 -19   0    3.64    0.45
   5 -19   0    3.97    0.44
   5  19   0    3.84    0.39
  -5 -19  -1   -0.19    0.36
   5 -19   1    0.43    0.37
  -5 -19  -1    0.35    0.42
   5 -19   1    0.10    0.32
   5  19  -1    0.51    0.32
  -5 -19   1    0.58    0.40
   5 -19  -1    0.28    0.29
  -5  19  -1    0.37    0.28
   5  19   1    0.46    0.29
  -5 -19   1   -0.32    0.38
  -6 -19   0    0.42    0.37
   6 -19   0   -0.20    0.36
   6  19   0    0.46    0.32
  -6 -19   0    0.40    0.37
   6 -19   0    0.47    0.31
   6 -19   1   -0.27    0.41
  -6 -19  -1   -0.72    0.42
   6 -19  -1   -0.04    0.34
  -6 -19   1   -0.21    0.42
  -6 -19   1    0.02    0.41
   0  20   0    0.17    0.26
   0 -20   0    0.02    0.32
   0 -20   0    0.12    0.34
   0 -20  -1   11.99    0.81
   0  20  -1   11.46    0.65
   0 -20   1   11.47    0.84
   0 -20  -1    9.32    0.75
  -1 -20   0    1.13    0.36
   1 -20   0    1.13    0.36
  -1 -20   0    0.57    0.37
   1 -20   0    1.25    0.37
  -1  20   0    1.24    0.28
   1  20   0    1.05    0.30
   1 -20   1    9.31    0.77
  -1 -20  -1    6.93    0.71
   1  20  -1    8.33    0.61
  -1 -20  -1    6.94    0.73
  -1  20  -1    8.01    0.57
  -1 -20   1    7.79    0.77
   1 -20  -1    6.74    0.70
  -2 -20   0    4.35    0.53
   2 -20   0    5.98    0.63
   2  20   0    6.59    0.53
   2 -20   0    4.36    0.49
  -2 -20   0    6.04    0.69
   2 -20   1    4.03    0.55
   2  20  -1    4.97    0.56
  -2 -20  -1    4.21    0.52
  -2  20  -1    4.03    0.40
  -2 -20   1    5.13    0.58
   2 -20  -1    2.89    0.46
  -3 -20   0    0.10    0.37
   3  20   0    0.63    0.30
   3 -20   0   -0.14    0.33
   3 -20   0   -0.31    0.34
  -4 -20   0    0.31    0.43
   0   0   0    0.00    0.00
;
_shelx_hkl_checksum              40273
loop_
_space_group_symop_operation_xyz
'x, y, z'
'-x, -y, z'
'-x+1/2, y+1/2, -z'
'x+1/2, -y+1/2, -z'
'-x, -y, -z'
'x, y, -z'
'x-1/2, -y-1/2, z'
'-x-1/2, y-1/2, z'
loop_
_atom_site_label
_atom_site_type_symbol
_atom_site_fract_x
_atom_site_fract_y
_atom_site_fract_z
_atom_site_U_iso_or_equiv
_atom_site_adp_type
_atom_site_occupancy
_atom_site_site_symmetry_order
_atom_site_calc_flag
_atom_site_refinement_flags_posn
_atom_site_refinement_flags_adp
_atom_site_refinement_flags_occupancy
Pr1 Pr 0.34050(2) 0.31843(2) 0.0000 0.00729(5) Uani 1 2 d S T P
Co1 Co 0.03472(2) 0.40578(2) 0.0000 0.00691(7) Uani 1 2 d S T P
Co2 Co 0.15167(2) 0.09649(2) 0.0000 0.00437(7) Uani 1 2 d S T P
Al1 Al 0.02543(5) 0.13205(5) 0.5000 0.00608(13) Uani 1 2 d S T P
Al2 Al 0.16001(5) 0.37913(5) 0.5000 0.00652(14) Uani 1 2 d S T P
Al3 Al 0.23637(6) 0.17268(5) 0.5000 0.00680(14) Uani 1 2 d S T P
Al4 Al 0.33153(5) 0.49120(5) 0.5000 0.00674(14) Uani 1 2 d S T P
Al5 Al 0.45265(6) 0.17981(5) 0.5000 0.00637(14) Uani 1 2 d S T P
Al6 Al 0.09601(5) 0.25318(4) 0.0000 0.00691(14) Uani 1 2 d S T P
Al7 Al 0.34000(5) 0.04462(5) 0.0000 0.00900(15) Uani 1 2 d S T P
Al8 Al 0.0000 0.5000 0.5000 0.00634(19) Uani 1 4 d S T P
Al9 Al 0.0000 0.0000 0.0000 0.00651(19) Uani 1 4 d S T P
loop_
_atom_site_aniso_label
_atom_site_aniso_U_11
_atom_site_aniso_U_22
_atom_site_aniso_U_33
_atom_site_aniso_U_23
_atom_site_aniso_U_13
_atom_site_aniso_U_12
Pr1 0.00711(7) 0.01003(8) 0.00474(8) 0.000 0.000 -0.00111(4)
Co1 0.00831(14) 0.00636(15) 0.00606(15) 0.000 0.000 0.00075(11)
Co2 0.00483(13) 0.00449(14) 0.00378(15) 0.000 0.000 -0.00013(10)
Al1 0.0064(3) 0.0063(3) 0.0056(3) 0.000 0.000 0.0007(2)
Al2 0.0052(3) 0.0074(3) 0.0069(3) 0.000 0.000 0.0000(2)
Al3 0.0062(3) 0.0081(3) 0.0061(3) 0.000 0.000 -0.0020(2)
Al4 0.0083(3) 0.0057(3) 0.0063(3) 0.000 0.000 -0.0017(2)
Al5 0.0061(3) 0.0058(3) 0.0072(3) 0.000 0.000 0.0013(2)
Al6 0.0082(3) 0.0054(3) 0.0071(3) 0.000 0.000 0.0005(2)
Al7 0.0060(3) 0.0116(4) 0.0094(4) 0.000 0.000 0.0024(2)
Al8 0.0095(4) 0.0050(4) 0.0046(4) 0.000 0.000 0.0012(3)
Al9 0.0065(4) 0.0057(4) 0.0074(5) 0.000 0.000 -0.0022(3)
loop_
_atom_type_symbol
_atom_type_description
_atom_type_scat_dispersion_real
_atom_type_scat_dispersion_imag
_atom_type_scat_source
Al Al 0.0645 0.0514 'International Tables Vol C Tables 4.2.6.8 and 6.1.1.4'
Co Co 0.3494 0.9721 'International Tables Vol C Tables 4.2.6.8 and 6.1.1.4'
Pr Pr -0.2180 2.8214 'International Tables Vol C Tables 4.2.6.8 and 6.1.1.4'
loop_
_geom_angle_atom_site_label_1
_geom_angle_atom_site_label_2
_geom_angle_atom_site_label_3
_geom_angle
_geom_angle_site_symmetry_1
_geom_angle_site_symmetry_3
Al1 Pr1 Al1 79.479(16) 7_665 7_664
Al1 Pr1 Al2 150.73(2) 7_665 1_554
Al1 Pr1 Al2 93.153(14) 7_664 1_554
Al1 Pr1 Al2 93.154(14) 7_665 .
Al1 Pr1 Al2 150.73(2) 7_664 .
Al2 Pr1 Al2 79.466(15) 1_554 .
Al1 Pr1 Al5 53.937(17) 7_665 .
Al1 Pr1 Al5 102.963(16) 7_664 .
Al2 Pr1 Al5 154.148(19) 1_554 .
Al2 Pr1 Al5 94.993(13) . .
Al1 Pr1 Al5 102.963(16) 7_665 1_554
Al1 Pr1 Al5 53.937(17) 7_664 1_554
Al2 Pr1 Al5 94.993(13) 1_554 1_554
Al2 Pr1 Al5 154.147(19) . 1_554
Al5 Pr1 Al5 78.967(16) . 1_554
Al1 Pr1 Al3 92.652(13) 7_665 .
Al1 Pr1 Al3 148.561(19) 7_664 .
Al2 Pr1 Al3 107.097(16) 1_554 .
Al2 Pr1 Al3 59.148(18) . .
Al5 Pr1 Al3 50.429(19) . .
Al5 Pr1 Al3 99.529(17) 1_554 .
Al1 Pr1 Al3 148.561(19) 7_665 1_554
Al1 Pr1 Al3 92.652(13) 7_664 1_554
Al2 Pr1 Al3 59.148(18) 1_554 1_554
Al2 Pr1 Al3 107.097(16) . 1_554
Al5 Pr1 Al3 99.529(17) . 1_554
Al5 Pr1 Al3 50.430(19) 1_554 1_554
Al3 Pr1 Al3 78.263(16) . 1_554
Al1 Pr1 Al6 140.260(8) 7_665 .
Al1 Pr1 Al6 140.260(8) 7_664 .
Al2 Pr1 Al6 52.887(13) 1_554 .
Al2 Pr1 Al6 52.887(13) . .
Al5 Pr1 Al6 103.743(16) . .
Al5 Pr1 Al6 103.743(16) 1_554 .
Al3 Pr1 Al6 54.239(14) . .
Al3 Pr1 Al6 54.239(14) 1_554 .
Al1 Pr1 Al4 56.489(16) 7_665 .
Al1 Pr1 Al4 104.513(16) 7_664 .
Al2 Pr1 Al4 99.203(16) 1_554 .
Al2 Pr1 Al4 50.010(18) . .
Al5 Pr1 Al4 96.182(13) . .
Al5 Pr1 Al4 154.968(18) 1_554 .
Al3 Pr1 Al4 95.871(13) . .
Al3 Pr1 Al4 153.470(17) 1_554 .
Al6 Pr1 Al4 101.266(15) . .
Al1 Pr1 Al4 104.514(16) 7_665 1_554
Al1 Pr1 Al4 56.490(16) 7_664 1_554
Al2 Pr1 Al4 50.008(18) 1_554 1_554
Al2 Pr1 Al4 99.202(16) . 1_554
Al5 Pr1 Al4 154.969(18) . 1_554
Al5 Pr1 Al4 96.183(13) 1_554 1_554
Al3 Pr1 Al4 153.470(17) . 1_554
Al3 Pr1 Al4 95.871(13) 1_554 1_554
Al6 Pr1 Al4 101.265(15) . 1_554
Al4 Pr1 Al4 77.776(17) . 1_554
Al1 Pr1 Al9 51.270(11) 7_665 3
Al1 Pr1 Al9 51.270(11) 7_664 3
Al2 Pr1 Al9 102.303(14) 1_554 3
Al2 Pr1 Al9 102.304(14) . 3
Al5 Pr1 Al9 103.549(13) . 3
Al5 Pr1 Al9 103.549(13) 1_554 3
Al3 Pr1 Al9 140.543(8) . 3
Al3 Pr1 Al9 140.543(8) 1_554 3
Al6 Pr1 Al9 144.402(12) . 3
Al4 Pr1 Al9 53.313(11) . 3
Al4 Pr1 Al9 53.314(11) 1_554 3
Al6 Co1 Al8 125.327(6) . .
Al6 Co1 Al8 125.327(6) . 1_554
Al8 Co1 Al8 109.319(12) . 1_554
Al6 Co1 Al7 125.57(3) . 7_565
Al8 Co1 Al7 71.083(11) . 7_565
Al8 Co1 Al7 71.083(11) 1_554 7_565
Al6 Co1 Al7 122.77(3) . 3
Al8 Co1 Al7 71.000(11) . 3
Al8 Co1 Al7 71.000(11) 1_554 3
Al7 Co1 Al7 111.66(2) 7_565 3
Al6 Co1 Al5 71.222(19) . 7_564
Al8 Co1 Al5 146.28(2) . 7_564
Al8 Co1 Al5 63.671(13) 1_554 7_564
Al7 Co1 Al5 75.683(19) 7_565 7_564
Al7 Co1 Al5 128.565(13) 3 7_564
Al6 Co1 Al5 71.222(19) . 7_565
Al8 Co1 Al5 63.671(13) . 7_565
Al8 Co1 Al5 146.28(2) 1_554 7_565
Al7 Co1 Al5 75.683(19) 7_565 7_565
Al7 Co1 Al5 128.565(13) 3 7_565
Al5 Co1 Al5 102.83(3) 7_564 7_565
Al6 Co1 Al2 70.09(2) . .
Al8 Co1 Al2 63.424(14) . .
Al8 Co1 Al2 145.64(2) 1_554 .
Al7 Co1 Al2 128.672(12) 7_565 .
Al7 Co1 Al2 75.12(2) 3 .
Al5 Co1 Al2 141.31(3) 7_564 .
Al5 Co1 Al2 63.947(19) 7_565 .
Al6 Co1 Al2 70.09(2) . 1_554
Al8 Co1 Al2 145.64(2) . 1_554
Al8 Co1 Al2 63.424(14) 1_554 1_554
Al7 Co1 Al2 128.672(12) 7_565 1_554
Al7 Co1 Al2 75.12(2) 3 1_554
Al5 Co1 Al2 63.947(19) 7_564 1_554
Al5 Co1 Al2 141.31(3) 7_565 1_554
Al2 Co1 Al2 102.56(2) . 1_554
Al6 Co1 Co1 178.52(2) . 5_565
Al8 Co1 Co1 54.660(6) . 5_565
Al8 Co1 Co1 54.660(6) 1_554 5_565
Al7 Co1 Co1 55.91(2) 7_565 5_565
Al7 Co1 Co1 55.747(19) 3 5_565
Al5 Co1 Co1 109.608(18) 7_564 5_565
Al5 Co1 Co1 109.608(18) 7_565 5_565
Al2 Co1 Co1 109.08(2) . 5_565
Al2 Co1 Co1 109.08(2) 1_554 5_565
Al9 Co2 Al6 109.16(2) . .
Al9 Co2 Al7 126.10(2) . .
Al6 Co2 Al7 124.74(3) . .
Al9 Co2 Al3 126.550(14) . 1_554
Al6 Co2 Al3 72.994(19) . 1_554
Al7 Co2 Al3 74.46(2) . 1_554
Al9 Co2 Al3 126.551(14) . .
Al6 Co2 Al3 72.994(19) . .
Al7 Co2 Al3 74.46(2) . .
Al3 Co2 Al3 105.64(3) 1_554 .
Al9 Co2 Al4 73.245(17) . 3_545
Al6 Co2 Al4 126.742(15) . 3_545
Al7 Co2 Al4 74.874(19) . 3_545
Al3 Co2 Al4 65.97(2) 1_554 3_545
Al3 Co2 Al4 149.33(2) . 3_545
Al9 Co2 Al4 73.245(17) . 3_546
Al6 Co2 Al4 126.742(15) . 3_546
Al7 Co2 Al4 74.874(19) . 3_546
Al3 Co2 Al4 149.34(2) 1_554 3_546
Al3 Co2 Al4 65.97(2) . 3_546
Al4 Co2 Al4 105.39(3) 3_545 3_546
Al9 Co2 Al1 68.190(16) . 1_554
Al6 Co2 Al1 68.527(19) . 1_554
Al7 Co2 Al1 129.517(12) . 1_554
Al3 Co2 Al1 63.485(19) 1_554 1_554
Al3 Co2 Al1 141.52(3) . 1_554
Al4 Co2 Al1 63.559(19) 3_545 1_554
Al4 Co2 Al1 141.44(2) 3_546 1_554
Al9 Co2 Al1 68.190(16) . .
Al6 Co2 Al1 68.527(19) . .
Al7 Co2 Al1 129.518(12) . .
Al3 Co2 Al1 141.52(3) 1_554 .
Al3 Co2 Al1 63.486(19) . .
Al4 Co2 Al1 141.43(2) 3_545 .
Al4 Co2 Al1 63.559(19) 3_546 .
Al1 Co2 Al1 100.96(3) 1_554 .
Co2 Al1 Co2 100.96(3) 1_556 .
Co2 Al1 Al3 56.763(15) 1_556 .
Co2 Al1 Al3 56.762(14) . .
Co2 Al1 Al4 56.805(16) 1_556 3_546
Co2 Al1 Al4 56.805(16) . 3_546
Al3 Al1 Al4 61.17(3) . 3_546
Co2 Al1 Al9 119.42(3) 1_556 .
Co2 Al1 Al9 51.548(10) . .
Al3 Al1 Al9 105.04(2) . .
Al4 Al1 Al9 64.069(16) 3_546 .
Co2 Al1 Al9 51.548(10) 1_556 1_556
Co2 Al1 Al9 119.42(3) . 1_556
Al3 Al1 Al9 105.04(2) . 1_556
Al4 Al1 Al9 64.069(17) 3_546 1_556
Al9 Al1 Al9 92.35(2) . 1_556
Co2 Al1 Al6 51.627(16) 1_556 1_556
Co2 Al1 Al6 119.02(3) . 1_556
Al3 Al1 Al6 63.78(2) . 1_556
Al4 Al1 Al6 105.04(2) 3_546 1_556
Al9 Al1 Al6 167.98(3) . 1_556
Al9 Al1 Al6 86.779(10) 1_556 1_556
Co2 Al1 Al6 119.02(3) 1_556 .
Co2 Al1 Al6 51.627(16) . .
Al3 Al1 Al6 63.78(2) . .
Al4 Al1 Al6 105.04(2) 3_546 .
Al9 Al1 Al6 86.780(10) . .
Al9 Al1 Al6 167.98(3) 1_556 .
Al6 Al1 Al6 91.58(3) 1_556 .
Co2 Al1 Al5 112.26(2) 1_556 7_565
Co2 Al1 Al5 112.26(2) . 7_565
Al3 Al1 Al5 96.01(3) . 7_565
Al4 Al1 Al5 157.18(3) 3_546 7_565
Al9 Al1 Al5 127.683(16) . 7_565
Al9 Al1 Al5 127.683(16) 1_556 7_565
Al6 Al1 Al5 60.648(19) 1_556 7_565
Al6 Al1 Al5 60.647(19) . 7_565
Co2 Al1 Al4 111.82(2) 1_556 7_565
Co2 Al1 Al4 111.82(2) . 7_565
Al3 Al1 Al4 156.28(3) . 7_565
Al4 Al1 Al4 95.11(3) 3_546 7_565
Al9 Al1 Al4 60.275(15) . 7_565
Al9 Al1 Al4 60.275(15) 1_556 7_565
Al6 Al1 Al4 128.431(18) 1_556 7_565
Al6 Al1 Al4 128.431(18) . 7_565
Al5 Al1 Al4 107.71(3) 7_565 7_565
Co2 Al1 Pr1 169.24(2) 1_556 7_565
Co2 Al1 Pr1 89.775(6) . 7_565
Al3 Al1 Pr1 131.912(18) . 7_565
Al4 Al1 Pr1 130.981(18) 3_546 7_565
Al9 Al1 Pr1 67.044(9) . 7_565
Al9 Al1 Pr1 122.17(2) 1_556 7_565
Al6 Al1 Pr1 123.23(3) 1_556 7_565
Al6 Al1 Pr1 68.375(15) . 7_565
Al5 Al1 Pr1 63.336(16) 7_565 7_565
Al4 Al1 Pr1 62.724(15) 7_565 7_565
Co2 Al1 Pr1 89.775(6) 1_556 7_566
Co2 Al1 Pr1 169.24(2) . 7_566
Al3 Al1 Pr1 131.911(18) . 7_566
Al4 Al1 Pr1 130.981(18) 3_546 7_566
Al9 Al1 Pr1 122.17(2) . 7_566
Al9 Al1 Pr1 67.044(9) 1_556 7_566
Al6 Al1 Pr1 68.375(15) 1_556 7_566
Al6 Al1 Pr1 123.23(3) . 7_566
Al5 Al1 Pr1 63.336(16) 7_565 7_566
Al4 Al1 Pr1 62.724(15) 7_565 7_566
Pr1 Al1 Pr1 79.480(16) 7_565 7_566
Co1 Al2 Co1 102.56(2) 1_556 .
Co1 Al2 Al8 56.226(14) 1_556 .
Co1 Al2 Al8 56.226(14) . .
Co1 Al2 Al4 113.29(2) 1_556 .
Co1 Al2 Al4 113.29(2) . .
Al8 Al2 Al4 101.92(3) . .
Co1 Al2 Al5 57.941(14) 1_556 7_565
Co1 Al2 Al5 57.941(14) . 7_565
Al8 Al2 Al5 59.224(19) . 7_565
Al4 Al2 Al5 161.14(4) . 7_565
Co1 Al2 Al6 118.63(3) 1_556 .
Co1 Al2 Al6 50.835(16) . .
Al8 Al2 Al6 102.05(2) . .
Al4 Al2 Al6 127.806(19) . .
Al5 Al2 Al6 62.01(2) 7_565 .
Co1 Al2 Al6 50.835(16) 1_556 1_556
Co1 Al2 Al6 118.64(3) . 1_556
Al8 Al2 Al6 102.05(2) . 1_556
Al4 Al2 Al6 127.806(19) . 1_556
Al5 Al2 Al6 62.01(2) 7_565 1_556
Al6 Al2 Al6 90.77(3) . 1_556
Co1 Al2 Pr1 167.35(2) 1_556 .
Co1 Al2 Pr1 88.756(7) . .
Al8 Al2 Pr1 136.324(14) . .
Al4 Al2 Pr1 66.101(17) . .
Al5 Al2 Pr1 126.49(2) 7_565 .
Al6 Al2 Pr1 64.483(15) . .
Al6 Al2 Pr1 118.64(3) 1_556 .
Co1 Al2 Pr1 88.756(7) 1_556 1_556
Co1 Al2 Pr1 167.35(2) . 1_556
Al8 Al2 Pr1 136.324(14) . 1_556
Al4 Al2 Pr1 66.101(17) . 1_556
Al5 Al2 Pr1 126.49(2) 7_565 1_556
Al6 Al2 Pr1 118.64(3) . 1_556
Al6 Al2 Pr1 64.483(15) 1_556 1_556
Pr1 Al2 Pr1 79.465(15) . 1_556
Co2 Al3 Co2 105.64(3) . 1_556
Co2 Al3 Al1 59.752(16) . .
Co2 Al3 Al1 59.751(16) 1_556 .
Co2 Al3 Al5 115.823(19) . .
Co2 Al3 Al5 115.823(19) 1_556 .
Al1 Al3 Al5 169.65(4) . .
Co2 Al3 Al4 57.091(15) . 3_546
Co2 Al3 Al4 57.091(15) 1_556 3_546
Al1 Al3 Al4 59.50(3) . 3_546
Al5 Al3 Al4 110.15(3) . 3_546
Co2 Al3 Al6 118.12(3) . 1_556
Co2 Al3 Al6 50.962(15) 1_556 1_556
Al1 Al3 Al6 59.872(19) . 1_556
Al5 Al3 Al6 125.96(2) . 1_556
Al4 Al3 Al6 101.15(2) 3_546 1_556
Co2 Al3 Al6 50.963(15) . .
Co2 Al3 Al6 118.12(3) 1_556 .
Al1 Al3 Al6 59.872(19) . .
Al5 Al3 Al6 125.96(2) . .
Al4 Al3 Al6 101.15(2) 3_546 .
Al6 Al3 Al6 87.43(3) 1_556 .
Co2 Al3 Pr1 87.445(8) . .
Co2 Al3 Pr1 163.96(2) 1_556 .
Al1 Al3 Pr1 122.80(2) . .
Al5 Al3 Pr1 64.329(16) . .
Al4 Al3 Pr1 138.877(12) 3_546 .
Al6 Al3 Pr1 114.79(3) 1_556 .
Al6 Al3 Pr1 63.066(15) . .
Co2 Al3 Pr1 163.96(2) . 1_556
Co2 Al3 Pr1 87.446(8) 1_556 1_556
Al1 Al3 Pr1 122.80(2) . 1_556
Al5 Al3 Pr1 64.329(16) . 1_556
Al4 Al3 Pr1 138.877(12) 3_546 1_556
Al6 Al3 Pr1 63.067(15) 1_556 1_556
Al6 Al3 Pr1 114.79(3) . 1_556
Pr1 Al3 Pr1 78.263(16) . 1_556
Co2 Al4 Co2 105.39(3) 3_556 3
Co2 Al4 Al2 115.321(19) 3_556 .
Co2 Al4 Al2 115.321(19) 3 .
Co2 Al4 Al1 59.636(16) 3_556 3_556
Co2 Al4 Al1 59.636(16) 3 3_556
Al2 Al4 Al1 168.37(4) . 3_556
Co2 Al4 Al3 56.943(16) 3_556 3_556
Co2 Al4 Al3 56.943(16) 3 3_556
Al2 Al4 Al3 109.04(3) . 3_556
Al1 Al4 Al3 59.33(3) 3_556 3_556
Co2 Al4 Al9 50.581(10) 3_556 3_556
Co2 Al4 Al9 117.57(2) 3 3_556
Al2 Al4 Al9 127.092(19) . 3_556
Al1 Al4 Al9 59.335(15) 3_556 3_556
Al3 Al4 Al9 100.46(2) 3_556 3_556
Co2 Al4 Al9 117.57(2) 3_556 3
Co2 Al4 Al9 50.581(9) 3 3
Al2 Al4 Al9 127.092(19) . 3
Al1 Al4 Al9 59.335(15) 3_556 3
Al3 Al4 Al9 100.46(2) 3_556 3
Al9 Al4 Al9 87.269(18) 3_556 3
Co2 Al4 Al1 106.742(19) 3_556 7_665
Co2 Al4 Al1 106.742(19) 3 7_665
Al2 Al4 Al1 106.74(3) . 7_665
Al1 Al4 Al1 84.89(3) 3_556 7_665
Al3 Al4 Al1 144.22(3) 3_556 7_665
Al9 Al4 Al1 56.161(13) 3_556 7_665
Al9 Al4 Al1 56.161(13) 3 7_665
Co2 Al4 Pr1 87.970(8) 3_556 1_556
Co2 Al4 Pr1 164.43(2) 3 1_556
Al2 Al4 Pr1 63.890(18) . 1_556
Al1 Al4 Pr1 124.092(19) 3_556 1_556
Al3 Al4 Pr1 138.630(12) 3_556 1_556
Al9 Al4 Pr1 64.870(9) 3_556 1_556
Al9 Al4 Pr1 116.22(2) 3 1_556
Al1 Al4 Pr1 60.787(16) 7_665 1_556
Co2 Al4 Pr1 164.43(2) 3_556 .
Co2 Al4 Pr1 87.970(8) 3 .
Al2 Al4 Pr1 63.889(18) . .
Al1 Al4 Pr1 124.092(19) 3_556 .
Al3 Al4 Pr1 138.630(12) 3_556 .
Al9 Al4 Pr1 116.22(2) 3_556 .
Al9 Al4 Pr1 64.870(9) 3 .
Al1 Al4 Pr1 60.788(16) 7_665 .
Pr1 Al4 Pr1 77.776(17) 1_556 .
Co1 Al5 Co1 102.83(3) 7_665 7_666
Co1 Al5 Al8 56.198(14) 7_665 3_546
Co1 Al5 Al8 56.198(14) 7_666 3_546
Co1 Al5 Al3 112.34(2) 7_665 .
Co1 Al5 Al3 112.34(2) 7_666 .
Al8 Al5 Al3 100.68(3) 3_546 .
Co1 Al5 Al2 58.112(16) 7_665 7_665
Co1 Al5 Al2 58.112(16) 7_666 7_665
Al8 Al5 Al2 58.99(2) 3_546 7_665
Al3 Al5 Al2 159.67(3) . 7_665
Co1 Al5 Al1 109.15(2) 7_665 7_665
Co1 Al5 Al1 109.15(2) 7_666 7_665
Al8 Al5 Al1 148.60(3) 3_546 7_665
Al3 Al5 Al1 110.72(3) . 7_665
Al2 Al5 Al1 89.62(3) 7_665 7_665
Co1 Al5 Al6 117.50(3) 7_665 7_666
Co1 Al5 Al6 50.428(16) 7_666 7_666
Al8 Al5 Al6 100.94(2) 3_546 7_666
Al3 Al5 Al6 129.681(18) . 7_666
Al2 Al5 Al6 60.68(2) 7_665 7_666
Al1 Al5 Al6 58.720(19) 7_665 7_666
Co1 Al5 Al6 50.428(16) 7_665 7_665
Co1 Al5 Al6 117.50(3) 7_666 7_665
Al8 Al5 Al6 100.94(2) 3_546 7_665
Al3 Al5 Al6 129.681(18) . 7_665
Al2 Al5 Al6 60.68(2) 7_665 7_665
Al1 Al5 Al6 58.720(19) 7_665 7_665
Al6 Al5 Al6 89.31(3) 7_666 7_665
Co1 Al5 Pr1 167.63(2) 7_665 1_556
Co1 Al5 Pr1 89.009(7) 7_666 1_556
Al8 Al5 Pr1 135.617(13) 3_546 1_556
Al3 Al5 Pr1 65.242(16) . 1_556
Al2 Al5 Pr1 128.168(19) 7_665 1_556
Al1 Al5 Pr1 62.727(15) 7_665 1_556
Al6 Al5 Pr1 67.492(15) 7_666 1_556
Al6 Al5 Pr1 120.73(3) 7_665 1_556
Co1 Al5 Pr1 89.010(7) 7_665 .
Co1 Al5 Pr1 167.63(2) 7_666 .
Al8 Al5 Pr1 135.617(13) 3_546 .
Al3 Al5 Pr1 65.242(17) . .
Al2 Al5 Pr1 128.168(19) 7_665 .
Al1 Al5 Pr1 62.728(15) 7_665 .
Al6 Al5 Pr1 120.73(3) 7_666 .
Al6 Al5 Pr1 67.493(15) 7_665 .
Pr1 Al5 Pr1 78.967(16) 1_556 .
Co1 Al6 Co2 177.92(3) . .
Co1 Al6 Al1 118.98(2) . 1_554
Co2 Al6 Al1 59.845(18) . 1_554
Co1 Al6 Al1 118.98(2) . .
Co2 Al6 Al1 59.845(18) . .
Al1 Al6 Al1 91.58(3) 1_554 .
Co1 Al6 Al2 59.074(18) . .
Co2 Al6 Al2 122.07(2) . .
Al1 Al6 Al2 177.85(3) 1_554 .
Al1 Al6 Al2 88.787(16) . .
Co1 Al6 Al2 59.074(18) . 1_554
Co2 Al6 Al2 122.07(2) . 1_554
Al1 Al6 Al2 88.787(16) 1_554 1_554
Al1 Al6 Al2 177.85(3) . 1_554
Al2 Al6 Al2 90.77(3) . 1_554
Co1 Al6 Al5 58.350(18) . 7_564
Co2 Al6 Al5 120.46(2) . 7_564
Al1 Al6 Al5 60.632(19) 1_554 7_564
Al1 Al6 Al5 121.14(3) . 7_564
Al2 Al6 Al5 117.42(3) . 7_564
Al2 Al6 Al5 57.313(19) 1_554 7_564
Co1 Al6 Al5 58.350(18) . 7_565
Co2 Al6 Al5 120.46(2) . 7_565
Al1 Al6 Al5 121.14(3) 1_554 7_565
Al1 Al6 Al5 60.631(19) . 7_565
Al2 Al6 Al5 57.313(19) . 7_565
Al2 Al6 Al5 117.42(3) 1_554 7_565
Al5 Al6 Al5 89.31(3) 7_564 7_565
Co1 Al6 Al3 125.09(2) . 1_554
Co2 Al6 Al3 56.043(17) . 1_554
Al1 Al6 Al3 56.351(19) 1_554 1_554
Al1 Al6 Al3 115.89(3) . 1_554
Al2 Al6 Al3 125.28(3) . 1_554
Al2 Al6 Al3 66.031(19) 1_554 1_554
Al5 Al6 Al3 91.512(15) 7_564 1_554
Al5 Al6 Al3 176.19(3) 7_565 1_554
Co1 Al6 Al3 125.09(2) . .
Co2 Al6 Al3 56.043(17) . .
Al1 Al6 Al3 115.89(3) 1_554 .
Al1 Al6 Al3 56.35(2) . .
Al2 Al6 Al3 66.030(19) . .
Al2 Al6 Al3 125.28(3) 1_554 .
Al5 Al6 Al3 176.19(3) 7_564 .
Al5 Al6 Al3 91.512(15) 7_565 .
Al3 Al6 Al3 87.43(3) 1_554 .
Co1 Al6 Pr1 92.08(2) . .
Co2 Al6 Pr1 90.00(2) . .
Al1 Al6 Pr1 118.92(2) 1_554 .
Al1 Al6 Pr1 118.92(2) . .
Al2 Al6 Pr1 62.630(17) . .
Al2 Al6 Pr1 62.630(17) 1_554 .
Al5 Al6 Pr1 119.94(2) 7_564 .
Al5 Al6 Pr1 119.94(2) 7_565 .
Al3 Al6 Pr1 62.695(17) 1_554 .
Al3 Al6 Pr1 62.694(17) . .
Co1 Al6 Pr1 88.72(2) . 7_565
Co2 Al6 Pr1 89.20(2) . 7_565
Al1 Al6 Pr1 60.621(18) 1_554 7_565
Al1 Al6 Pr1 60.620(18) . 7_565
Al2 Al6 Pr1 117.849(19) . 7_565
Al2 Al6 Pr1 117.849(19) 1_554 7_565
Al5 Al6 Pr1 60.536(17) 7_564 7_565
Al5 Al6 Pr1 60.536(17) 7_565 7_565
Al3 Al6 Pr1 116.80(2) 1_554 7_565
Al3 Al6 Pr1 116.80(2) . 7_565
Pr1 Al6 Pr1 179.20(2) . 7_565
Co2 Al7 Co1 146.00(4) . 7_665
Co2 Al7 Co1 145.66(3) . 3_545
Co1 Al7 Co1 68.35(2) 7_665 3_545
Co2 Al7 Al8 136.246(9) . 3_546
Co1 Al7 Al8 53.320(11) 7_665 3_546
Co1 Al7 Al8 53.282(12) 3_545 3_546
Co2 Al7 Al8 136.246(9) . 3_545
Co1 Al7 Al8 53.320(11) 7_665 3_545
Co1 Al7 Al8 53.282(12) 3_545 3_545
Al8 Al7 Al8 87.506(17) 3_546 3_545
Co1 Al8 Co1 180.0 . 5_566
Co1 Al8 Co1 70.681(12) . 5_565
Co1 Al8 Co1 109.318(12) 5_566 5_565
Co1 Al8 Co1 109.319(12) . 1_556
Co1 Al8 Co1 70.682(12) 5_566 1_556
Co1 Al8 Co1 180.000(12) 5_565 1_556
Co1 Al8 Al2 119.650(8) . 5_566
Co1 Al8 Al2 60.350(8) 5_566 5_566
Co1 Al8 Al2 60.350(8) 5_565 5_566
Co1 Al8 Al2 119.650(8) 1_556 5_566
Co1 Al8 Al2 60.350(8) . .
Co1 Al8 Al2 119.650(8) 5_566 .
Co1 Al8 Al2 119.650(8) 5_565 .
Co1 Al8 Al2 60.350(8) 1_556 .
Al2 Al8 Al2 180.0 5_566 .
Co1 Al8 Al5 60.131(8) . 7_565
Co1 Al8 Al5 119.870(8) 5_566 7_565
Co1 Al8 Al5 119.870(8) 5_565 7_565
Co1 Al8 Al5 60.130(8) 1_556 7_565
Al2 Al8 Al5 118.21(2) 5_566 7_565
Al2 Al8 Al5 61.79(2) . 7_565
Co1 Al8 Al5 119.869(8) . 3_556
Co1 Al8 Al5 60.130(8) 5_566 3_556
Co1 Al8 Al5 60.130(8) 5_565 3_556
Co1 Al8 Al5 119.870(8) 1_556 3_556
Al2 Al8 Al5 61.79(2) 5_566 3_556
Al2 Al8 Al5 118.21(2) . 3_556
Al5 Al8 Al5 180.0 7_565 3_556
Co1 Al8 Al7 55.599(13) . 7_565
Co1 Al8 Al7 124.401(13) 5_566 7_565
Co1 Al8 Al7 55.720(15) 5_565 7_565
Co1 Al8 Al7 124.280(15) 1_556 7_565
Al2 Al8 Al7 68.096(17) 5_566 7_565
Al2 Al8 Al7 111.904(17) . 7_565
Al5 Al8 Al7 68.364(18) 7_565 7_565
Al5 Al8 Al7 111.636(18) 3_556 7_565
Co1 Al8 Al7 124.401(13) . 3_556
Co1 Al8 Al7 55.599(13) 5_566 3_556
Co1 Al8 Al7 124.280(15) 5_565 3_556
Co1 Al8 Al7 55.720(15) 1_556 3_556
Al2 Al8 Al7 111.904(17) 5_566 3_556
Al2 Al8 Al7 68.096(17) . 3_556
Al5 Al8 Al7 111.636(18) 7_565 3_556
Al5 Al8 Al7 68.364(18) 3_556 3_556
Al7 Al8 Al7 180.0 7_565 3_556
Co1 Al8 Al7 124.280(15) . 7_566
Co1 Al8 Al7 55.720(15) 5_566 7_566
Co1 Al8 Al7 124.401(13) 5_565 7_566
Co1 Al8 Al7 55.599(13) 1_556 7_566
Al2 Al8 Al7 68.096(17) 5_566 7_566
Al2 Al8 Al7 111.904(17) . 7_566
Al5 Al8 Al7 68.364(18) 7_565 7_566
Al5 Al8 Al7 111.636(18) 3_556 7_566
Al7 Al8 Al7 87.505(18) 7_565 7_566
Al7 Al8 Al7 92.495(17) 3_556 7_566
Co1 Al8 Al7 55.720(15) . 3
Co1 Al8 Al7 124.280(15) 5_566 3
Co1 Al8 Al7 55.599(13) 5_565 3
Co1 Al8 Al7 124.401(13) 1_556 3
Al2 Al8 Al7 111.904(17) 5_566 3
Al2 Al8 Al7 68.096(17) . 3
Al5 Al8 Al7 111.636(18) 7_565 3
Al5 Al8 Al7 68.364(18) 3_556 3
Al7 Al8 Al7 92.495(17) 7_565 3
Al7 Al8 Al7 87.505(18) 3_556 3
Al7 Al8 Al7 180.0 7_566 3
Co2 Al9 Co2 180.0 5 .
Co2 Al9 Al1 119.738(14) 5 .
Co2 Al9 Al1 60.262(13) . .
Co2 Al9 Al1 60.262(13) 5 5
Co2 Al9 Al1 119.738(13) . 5
Al1 Al9 Al1 180.00(2) . 5
Co2 Al9 Al1 60.262(13) 5 5_556
Co2 Al9 Al1 119.738(13) . 5_556
Al1 Al9 Al1 87.65(2) . 5_556
Al1 Al9 Al1 92.35(2) 5 5_556
Co2 Al9 Al1 119.738(13) 5 1_554
Co2 Al9 Al1 60.262(13) . 1_554
Al1 Al9 Al1 92.35(2) . 1_554
Al1 Al9 Al1 87.65(2) 5 1_554
Al1 Al9 Al1 180.00(2) 5_556 1_554
Co2 Al9 Al4 56.173(13) 5 7_564
Co2 Al9 Al4 123.827(13) . 7_564
Al1 Al9 Al4 123.402(19) . 7_564
Al1 Al9 Al4 56.597(19) 5 7_564
Al1 Al9 Al4 116.435(18) 5_556 7_564
Al1 Al9 Al4 63.565(18) 1_554 7_564
Co2 Al9 Al4 123.827(13) 5 3_546
Co2 Al9 Al4 56.173(13) . 3_546
Al1 Al9 Al4 56.598(19) . 3_546
Al1 Al9 Al4 123.403(19) 5 3_546
Al1 Al9 Al4 63.565(18) 5_556 3_546
Al1 Al9 Al4 116.435(18) 1_554 3_546
Al4 Al9 Al4 180.00(3) 7_564 3_546
Co2 Al9 Al4 56.173(14) 5 7_565
Co2 Al9 Al4 123.827(13) . 7_565
Al1 Al9 Al4 63.565(18) . 7_565
Al1 Al9 Al4 116.435(18) 5 7_565
Al1 Al9 Al4 56.597(19) 5_556 7_565
Al1 Al9 Al4 123.403(19) 1_554 7_565
Al4 Al9 Al4 87.268(18) 7_564 7_565
Al4 Al9 Al4 92.732(18) 3_546 7_565
Co2 Al9 Al4 123.827(14) 5 3_545
Co2 Al9 Al4 56.173(13) . 3_545
Al1 Al9 Al4 116.435(18) . 3_545
Al1 Al9 Al4 63.565(18) 5 3_545
Al1 Al9 Al4 123.403(19) 5_556 3_545
Al1 Al9 Al4 56.597(19) 1_554 3_545
Al4 Al9 Al4 92.732(18) 7_564 3_545
Al4 Al9 Al4 87.268(18) 3_546 3_545
Al4 Al9 Al4 180.000(18) 7_565 3_545
Co2 Al9 Pr1 91.013(8) 5 3_545
Co2 Al9 Pr1 88.987(8) . 3_545
Al1 Al9 Pr1 118.314(13) . 3_545
Al1 Al9 Pr1 61.686(13) 5 3_545
Al1 Al9 Pr1 61.686(13) 5_556 3_545
Al1 Al9 Pr1 118.314(13) 1_554 3_545
Al4 Al9 Pr1 118.183(13) 7_564 3_545
Al4 Al9 Pr1 61.817(13) 3_546 3_545
Al4 Al9 Pr1 118.183(13) 7_565 3_545
Al4 Al9 Pr1 61.817(13) 3_545 3_545
Co2 Al9 Pr1 88.987(8) 5 7_565
Co2 Al9 Pr1 91.013(8) . 7_565
Al1 Al9 Pr1 61.686(13) . 7_565
Al1 Al9 Pr1 118.314(13) 5 7_565
Al1 Al9 Pr1 118.314(13) 5_556 7_565
Al1 Al9 Pr1 61.686(13) 1_554 7_565
Al4 Al9 Pr1 61.817(13) 7_564 7_565
Al4 Al9 Pr1 118.183(13) 3_546 7_565
Al4 Al9 Pr1 61.817(13) 7_565 7_565
Al4 Al9 Pr1 118.183(13) 3_545 7_565
Pr1 Al9 Pr1 180.0 3_545 7_565
loop_
_geom_bond_atom_site_label_1
_geom_bond_atom_site_label_2
_geom_bond_distance
_geom_bond_site_symmetry_2
Pr1 Al1 3.1363(5) 7_665
Pr1 Al1 3.1363(5) 7_664
Pr1 Al2 3.1368(5) 1_554
Pr1 Al2 3.1368(5) .
Pr1 Al5 3.1533(5) .
Pr1 Al5 3.1533(5) 1_554
Pr1 Al3 3.1770(5) .
Pr1 Al3 3.1771(5) 1_554
Pr1 Al6 3.1876(6) .
Pr1 Al4 3.1938(6) .
Pr1 Al4 3.1938(6) 1_554
Pr1 Al9 3.28039(14) 3
Co1 Al6 2.3227(7) .
Co1 Al8 2.45798(19) .
Co1 Al8 2.45798(19) 1_554
Co1 Al7 2.5289(7) 7_565
Co1 Al7 2.5338(8) 3
Co1 Al5 2.5651(5) 7_564
Co1 Al5 2.5651(5) 7_565
Co1 Al2 2.5698(4) .
Co1 Al2 2.5699(4) 1_554
Co1 Co1 2.8436(6) 5_565
Co2 Al9 2.3442(3) .
Co2 Al6 2.3566(7) .
Co2 Al7 2.4622(7) .
Co2 Al3 2.5166(5) 1_554
Co2 Al3 2.5166(5) .
Co2 Al4 2.5208(5) 3_545
Co2 Al4 2.5208(5) 3_546
Co2 Al1 2.5992(5) 1_554
Co2 Al1 2.5992(5) .
Al1 Co2 2.5992(5) 1_556
Al1 Al3 2.6924(10) .
Al1 Al4 2.6973(10) 3_546
Al1 Al9 2.7791(5) .
Al1 Al9 2.7791(5) 1_556
Al1 Al6 2.7973(7) 1_556
Al1 Al6 2.7973(7) .
Al1 Al5 2.8524(10) 7_565
Al1 Al4 2.9961(10) 7_565
Al1 Pr1 3.1363(5) 7_565
Al1 Pr1 3.1363(5) 7_566
Al2 Co1 2.5698(4) 1_556
Al2 Al8 2.6446(7) .
Al2 Al4 2.6764(10) .
Al2 Al5 2.7191(9) 7_565
Al2 Al6 2.8167(7) .
Al2 Al6 2.8167(7) 1_556
Al2 Pr1 3.1368(5) 1_556
Al3 Co2 2.5166(5) 1_556
Al3 Al5 2.6969(11) .
Al3 Al4 2.7423(10) 3_546
Al3 Al6 2.9013(7) 1_556
Al3 Al6 2.9014(7) .
Al3 Pr1 3.1771(5) 1_556
Al4 Co2 2.5208(5) 3_556
Al4 Co2 2.5208(5) 3
Al4 Al1 2.6972(10) 3_556
Al4 Al3 2.7423(10) 3_556
Al4 Al9 2.9056(5) 3_556
Al4 Al9 2.9056(5) 3
Al4 Al1 2.9961(10) 7_665
Al4 Pr1 3.1938(6) 1_556
Al5 Co1 2.5651(5) 7_665
Al5 Co1 2.5651(5) 7_666
Al5 Al8 2.6511(7) 3_546
Al5 Al2 2.7191(9) 7_665
Al5 Al1 2.8524(10) 7_665
Al5 Al6 2.8529(7) 7_666
Al5 Al6 2.8529(7) 7_665
Al5 Pr1 3.1533(5) 1_556
Al6 Al1 2.7973(7) 1_554
Al6 Al2 2.8167(7) 1_554
Al6 Al5 2.8529(7) 7_564
Al6 Al5 2.8528(7) 7_565
Al6 Al3 2.9014(7) 1_554
Al6 Pr1 3.3459(6) 7_565
Al7 Co1 2.5289(7) 7_665
Al7 Co1 2.5337(8) 3_545
Al7 Al8 2.8993(5) 3_546
Al7 Al8 2.8993(5) 3_545
Al8 Co1 2.45800(19) 5_566
Al8 Co1 2.45800(19) 5_565
Al8 Co1 2.45800(19) 1_556
Al8 Al2 2.6446(7) 5_566
Al8 Al5 2.6511(7) 7_565
Al8 Al5 2.6511(7) 3_556
Al8 Al7 2.8994(5) 7_565
Al8 Al7 2.8994(5) 3_556
Al8 Al7 2.8994(5) 7_566
Al8 Al7 2.8994(5) 3
Al9 Co2 2.3442(3) 5
Al9 Al1 2.7791(5) 5
Al9 Al1 2.7791(5) 5_556
Al9 Al1 2.7791(5) 1_554
Al9 Al4 2.9057(5) 7_564
Al9 Al4 2.9057(5) 3_546
Al9 Al4 2.9057(5) 7_565
Al9 Al4 2.9057(5) 3_545
Al9 Pr1 3.28037(15) 3_545
Al9 Pr1 3.28037(15) 7_565
_cod_duplicate_entry 4513195
