#------------------------------------------------------------------------------
#$Date: 2015-09-05 23:37:04 +0300 (Sat, 05 Sep 2015) $
#$Revision: 154548 $
#$URL: svn://www.crystallography.net/cod/cif/4/51/34/4513428.cif $
#------------------------------------------------------------------------------
#
# This file is available in the Crystallography Open Database (COD),
# http://www.crystallography.net/
#
# All data on this site have been placed in the public domain by the
# contributors.
#
data_4513428
loop_
_publ_author_name
'Awwadi, Firas F.'
'Willett, Roger D.'
'Twamley, Brendan'
'Turnbull, Mark M.'
'Landee, Christopher P.'
_publ_section_title
;
 Dual Behavior of Bromine Atoms in Supramolecular Chemistry: The Crystal
 Structure and Magnetic Properties of Two Copper(II) Coordination Polymers
;
_journal_issue                   8
_journal_name_full               'Crystal Growth &amp; Design'
_journal_page_first              3746
_journal_paper_doi               10.1021/acs.cgd.5b00393
_journal_volume                  15
_journal_year                    2015
_chemical_formula_moiety         'C10 H8 Br2 Cl6 Cu3 N2'
_chemical_formula_sum            'C10 H8 Br2 Cl6 Cu3 N2'
_chemical_formula_weight         719.32
_chemical_name_common            '[(2-BrPy)2Cu2Cl6]n'
_space_group_crystal_system      monoclinic
_space_group_IT_number           14
_space_group_name_Hall           '-P 2ybc'
_space_group_name_H-M_alt        'P 1 21/c 1'
_symmetry_space_group_name_Hall  '-P 2ybc'
_symmetry_space_group_name_H-M   'P 1 21/c 1'
_atom_sites_solution_hydrogens   geom
_audit_creation_method           SHELXL-2014/7
_cell_angle_alpha                90
_cell_angle_beta                 109.39(3)
_cell_angle_gamma                90
_cell_formula_units_Z            2
_cell_length_a                   7.4469(15)
_cell_length_b                   15.272(3)
_cell_length_c                   9.1109(18)
_cell_measurement_reflns_used    3834
_cell_measurement_temperature    297(2)
_cell_measurement_theta_max      29.88
_cell_measurement_theta_min      2.66
_cell_volume                     977.4(4)
_computing_cell_refinement       'Bruker SAINT+ v. 6.36a'
_computing_data_collection       'Bruker SMART v. 5.626'
_computing_data_reduction        'Bruker SAINT+ v. 6.36a'
_computing_molecular_graphics    'XP, Bruker SHELXTL v. 6.12'
_computing_publication_material  'XCIF, Bruker SHELXTL v. 6.12'
_computing_structure_refinement  'XL, Bruker SHELXTL v. 6.12'
_computing_structure_solution    'XS, Bruker SHELXTL v. 6.12'
_diffrn_ambient_temperature      297(2)
_diffrn_detector_area_resol_mean 8.3
_diffrn_measured_fraction_theta_full 0.999
_diffrn_measured_fraction_theta_max 1.000
_diffrn_measurement_device_type  'Bruker/Siemens SMART APEX'
_diffrn_measurement_method       \w
_diffrn_radiation_monochromator  graphite
_diffrn_radiation_source         'normal-focus sealed tube'
_diffrn_radiation_type           MoK\a
_diffrn_radiation_wavelength     0.71073
_diffrn_reflns_av_R_equivalents  0.0301
_diffrn_reflns_av_unetI/netI     0.0321
_diffrn_reflns_laue_measured_fraction_full 0.999
_diffrn_reflns_laue_measured_fraction_max 1.000
_diffrn_reflns_limit_h_max       9
_diffrn_reflns_limit_h_min       -9
_diffrn_reflns_limit_k_max       19
_diffrn_reflns_limit_k_min       -18
_diffrn_reflns_limit_l_max       11
_diffrn_reflns_limit_l_min       -11
_diffrn_reflns_number            7605
_diffrn_reflns_point_group_measured_fraction_full 0.999
_diffrn_reflns_point_group_measured_fraction_max 1.000
_diffrn_reflns_theta_full        25.242
_diffrn_reflns_theta_max         27.497
_diffrn_reflns_theta_min         2.667
_exptl_absorpt_coefficient_mu    8.137
_exptl_absorpt_correction_T_max  0.442
_exptl_absorpt_correction_T_min  0.160
_exptl_absorpt_correction_type   multi-scan
_exptl_absorpt_process_details   'SADABS (SAINT+, 2001)'
_exptl_crystal_colour            green
_exptl_crystal_density_diffrn    2.444
_exptl_crystal_description       block
_exptl_crystal_F_000             682
_exptl_crystal_size_max          0.320
_exptl_crystal_size_mid          0.120
_exptl_crystal_size_min          0.100
_refine_diff_density_max         0.857
_refine_diff_density_min         -0.464
_refine_diff_density_rms         0.103
_refine_ls_extinction_method     none
_refine_ls_goodness_of_fit_ref   1.051
_refine_ls_hydrogen_treatment    constr
_refine_ls_matrix_type           full
_refine_ls_number_parameters     106
_refine_ls_number_reflns         2246
_refine_ls_number_restraints     0
_refine_ls_restrained_S_all      1.051
_refine_ls_R_factor_all          0.0382
_refine_ls_R_factor_gt           0.0299
_refine_ls_shift/su_max          0.001
_refine_ls_shift/su_mean         0.000
_refine_ls_structure_factor_coef Fsqd
_refine_ls_weighting_details
'w=1/[\s^2^(Fo^2^)+(0.0305P)^2^+0.5200P] where P=(Fo^2^+2Fc^2^)/3'
_refine_ls_weighting_scheme      calc
_refine_ls_wR_factor_gt          0.0660
_refine_ls_wR_factor_ref         0.0688
_reflns_Friedel_coverage         0.000
_reflns_number_gt                1901
_reflns_number_total             2246
_reflns_threshold_expression     'I > 2\s(I)'
_cod_data_source_file            cg5b00393_si_001.cif
_cod_data_source_block           bt670
_cod_depositor_comments
'Adding full bibliography for 4513427--4513428.cif.'
_cod_original_cell_volume        977.5(4)
_cod_database_code               4513428
_shelx_shelxl_version_number     2014/7
_shelx_space_group_comment
;
The symmetry employed for this shelxl refinement is uniquely defined
by the following loop, which should always be used as a source of
symmetry information in preference to the above space-group names.
They are only intended as comments.
;
_shelx_estimated_absorpt_t_min   0.180
_shelx_estimated_absorpt_t_max   0.497
_shelx_res_file
;

    bt670.res created by SHELXL-2014/7

TITL bt670 in P2(1)/c
CELL 0.71073   7.4469  15.2725   9.1109  90.000 109.386  90.000
ZERR    2.00   0.0015   0.0031   0.0018   0.000   0.030   0.000
LATT 1
SYMM -X, 0.5+Y, 0.5-Z
SFAC C  H  N  Cl Cu Br
UNIT 20 16 4 12 6 4
OMIT 0 3 2
OMIT  -2.00  55.00
L.S. 10
ACTA
BOND $H
FMAP 2
PLAN 20
CONF
HTAB

EQIV $1 x, -y+3/2, z+1/2
HTAB C3 Cl2_$1
EQIV $2 -x+1, -y+1, -z+1
HTAB C5 Cl2_$2
EQIV $3 -x, -y+1, -z+1
HTAB C6 Cl1_$3
HTAB C6 Cl2_$2

SIZE 0.32 0.12 0.1
TEMP 24
WGHT    0.030500    0.520000
FVAR       0.41248
MOLE 1
BR1   6    0.068273    0.773562    0.298337    11.00000    0.04358    0.04088 =
         0.04307    0.01289    0.00749    0.00360
C2    1    0.263638    0.728517    0.471200    11.00000    0.03092    0.03105 =
         0.02895    0.00131    0.01187    0.00194
C3    1    0.404514    0.783853    0.558630    11.00000    0.04088    0.02820 =
         0.04534   -0.00984    0.01820   -0.00799
AFIX  43
H3    2    0.406982    0.842341    0.530956    11.00000   -1.20000
AFIX   0
C4    1    0.540630    0.750674    0.687100    11.00000    0.03127    0.04383 =
         0.04887   -0.01794    0.00594   -0.01070
AFIX  43
H4    2    0.635602    0.786671    0.750501    11.00000   -1.20000
AFIX   0
C5    1    0.534981    0.663051    0.721248    11.00000    0.03126    0.04721 =
         0.03605   -0.00433    0.00091    0.00450
AFIX  43
H5    2    0.626808    0.639213    0.807887    11.00000   -1.20000
AFIX   0
C6    1    0.393264    0.611229    0.626802    11.00000    0.03221    0.03142 =
         0.03305    0.00024    0.00421    0.00074
AFIX  43
H6    2    0.391986    0.551952    0.649797    11.00000   -1.20000
AFIX   0
CL1   4   -0.147833    0.588372    0.498041    11.00000    0.03370    0.03192 =
         0.02881   -0.00377    0.01337   -0.00080
CL2   4    0.240614    0.543769    0.209758    11.00000    0.03265    0.04732 =
         0.02595   -0.00651    0.01057   -0.00357
CL3   4   -0.198051    0.531511    0.134113    11.00000    0.03084    0.06250 =
         0.02681   -0.01152    0.00836   -0.00065
CU1   5    0.050342    0.568244    0.361073    11.00000    0.02871    0.03163 =
         0.02240   -0.00475    0.00815   -0.00330
CU2   5    0.000000    0.500000    0.000000    10.50000    0.03246    0.03352 =
         0.02123   -0.00266    0.00842    0.00104
N1    3    0.255608    0.643450    0.501585    11.00000    0.02711    0.02700 =
         0.02617   -0.00306    0.00985   -0.00106
HKLF 4

REM  bt670 in P2(1)/c
REM R1 =  0.0299 for    1901 Fo > 4sig(Fo)  and  0.0382 for all    2246 data
REM    106 parameters refined using      0 restraints

END

WGHT      0.0305      0.5200

REM Instructions for potential hydrogen bonds
HTAB C3 Cl2_$1
HTAB C5 Cl2_$2
HTAB C6 Cl1_$3
HTAB C6 Cl2_$2

REM Highest difference peak  0.857,  deepest hole -0.464,  1-sigma level  0.103
Q1    1   0.0078  0.7786  0.3584  11.00000  0.05    0.86
Q2    1   0.0243  0.7287  0.2635  11.00000  0.05    0.51
Q3    1   0.0702  0.8277  0.3062  11.00000  0.05    0.42
Q4    1   0.2424  0.4936  0.2199  11.00000  0.05    0.42
Q5    1  -0.3131  0.5169  0.0681  11.00000  0.05    0.41
Q6    1   0.5079  0.7111  0.7138  11.00000  0.05    0.39
Q7    1   0.1877  0.7754  0.3161  11.00000  0.05    0.39
Q8    1  -0.1705  0.5783  0.1227  11.00000  0.05    0.38
Q9    1   0.0268  0.5071  0.3594  11.00000  0.05    0.36
Q10   1   0.1707  0.5583  0.3411  11.00000  0.05    0.35
Q11   1   0.1355  0.4973  0.0213  11.00000  0.05    0.35
Q12   1   0.3561  0.4735  0.7606  11.00000  0.05    0.34
Q13   1   0.4693  0.7505  0.6060  11.00000  0.05    0.34
Q14   1   0.0296  0.4452  0.0257  11.00000  0.05    0.33
Q15   1  -0.1308  0.4957  0.1347  11.00000  0.05    0.33
Q16   1   0.1323  0.6192  0.4884  11.00000  0.05    0.31
Q17   1   0.5517  0.7202  0.5204  11.00000  0.05    0.30
Q18   1  -0.0348  0.5690  0.4433  11.00000  0.05    0.30
Q19   1   0.3274  0.7581  0.5282  11.00000  0.05    0.30
Q20   1   0.2701  0.6904  0.5037  11.00000  0.05    0.30
;
_shelx_res_checksum              47253
_shelx_hkl_file
;
   1   0   0 9997.64  289.18
   1   0   0 9964.56  294.68
   2   0   0 1598.83   48.15
  -2   0   0 1511.81   48.74
   2   0   0 1583.29   47.69
  -3   0   0  174.05    9.54
   3   0   0  174.94    8.99
   3   0   0  180.29    7.69
  -4   0   0  805.35   30.38
   4   0   0  837.80   27.37
   4   0   0  802.23   29.32
   5   0   0  169.59   11.16
   5   0   0  190.00    9.22
  -5   0   0  177.94   11.94
   6   0   0  288.96   16.00
   6   0   0  260.24   12.37
  -6   0   0  287.64   16.26
  -7   0   0  186.95   13.36
   7   0   0  166.37   13.07
   8   0   0   51.53    9.55
  -8   0   0   78.95    9.92
   9   0   0   76.86   11.72
   0  -1   0    0.73    0.36
   0  -1   0   -0.51    0.23
   0  -1   0   -1.18    0.23
   0   1   0   -1.33    0.11
   0   1   0   -0.98    0.18
   0   1   0   -0.67    0.33
   1   1   0 1707.77   50.70
   1   1   0 1660.07   49.46
   1  -1   0 1638.01   49.93
  -1   1   0 1697.01   50.55
  -1  -1   0 1668.21   49.50
  -1   1   0 1662.89   50.02
   2  -1   0  695.59   21.54
  -2   1   0  682.28   23.86
  -2  -1   0  685.22   22.97
   2   1   0  687.83   22.61
   2  -1   0  685.07   23.10
   2   1   0  700.72   22.74
  -3  -1   0 1073.61   36.50
   3  -1   0 1089.77   36.40
   3   1   0 1105.91   35.92
  -3   1   0 1080.99   37.46
   3   1   0 1131.40   35.60
   3  -1   0 1119.09   34.36
   4  -1   0 2500.62   77.91
  -4  -1   0 2475.94   78.44
   4   1   0 2454.68   77.33
   4   1   0 2515.92   76.82
   4  -1   0 2515.25   75.64
  -4   1   0 2453.72   79.35
   5  -1   0 1454.39   49.12
   5  -1   0 1427.44   45.24
   5   1   0 1396.68   48.25
  -5  -1   0 1402.19   49.20
   5   1   0 1429.98   46.41
  -5   1   0 1440.83   50.28
   6   1   0  515.59   20.26
   6   1   0  506.03   22.88
   6  -1   0  487.49   23.07
  -6   1   0  539.89   24.32
   7  -1   0   29.15    6.81
  -7   1   0   23.56    5.96
   7   1   0    8.29    5.16
  -7  -1   0   23.20    5.90
   8   1   0   -1.85    4.54
  -8   1   0    7.36    5.50
   8  -1   0   -2.17    5.13
   9   1   0   11.54    7.20
   9  -1   0   21.20    7.41
   0   2   0  841.40   26.78
   0  -2   0  856.71   23.60
   0   2   0  879.00   25.99
  -1   2   0 1549.06   46.78
  -1  -2   0 1538.91   45.35
  -1   2   0 1552.19   46.06
   1  -2   0 1500.98   46.26
   1   2   0 1544.12   47.38
  -1  -2   0 1534.65   45.31
  -2  -2   0  695.64   22.48
   2   2   0  710.88   23.63
   2  -2   0  677.10   23.64
   2   2   0  720.08   22.82
  -2   2   0  707.08   24.55
   3   2   0    0.05    1.61
  -3   2   0    2.95    2.19
   3  -2   0    0.54    1.56
   3   2   0    1.00    1.87
  -3  -2   0   -1.44    1.69
   4  -2   0  674.84   25.71
   4   2   0  660.72   24.68
  -4   2   0  665.28   26.93
  -4  -2   0  711.63   25.74
   4   2   0  677.21   24.38
   5   2   0 1166.52   38.87
   5   2   0 1109.96   39.76
  -5  -2   0 1157.16   40.60
  -5   2   0 1143.64   42.23
   5  -2   0 1137.71   41.10
  -6   2   0  383.80   20.84
   6  -2   0  444.87   21.11
   6   2   0  419.29   19.99
   6   2   0  418.59   17.93
  -6  -2   0  426.04   20.44
  -7   2   0   58.90    9.32
   7  -2   0   42.31    8.50
  -7  -2   0   62.48    7.95
   7   2   0   37.08    7.46
   8  -2   0   60.58   10.09
  -8   2   0   58.41    9.74
   8   2   0   66.93   10.11
   9  -2   0   10.66    6.94
   9   2   0   30.65    8.67
   0   3   0   -2.49    1.11
   0  -3   0   -2.58    0.78
   0   3   0   -1.44    0.85
   1   3   0  369.16   14.21
   1  -3   0  394.66   11.64
  -1   3   0  389.38   12.81
   1   3   0  403.23   12.26
  -2  -3   0 1316.87   39.48
   2   3   0 1319.16   40.03
   2  -3   0 1272.93   41.22
  -2   3   0 1301.94   42.15
   2   3   0 1313.02   42.06
   3  -3   0  168.79    8.97
  -3  -3   0  144.46    7.45
   3   3   0  149.43    7.59
   3   3   0  157.84    8.46
  -3   3   0  137.92    9.18
  -4  -3   0   45.61    5.36
   4   3   0   61.92    5.84
   4  -3   0   42.74    5.72
  -4   3   0   51.26    6.66
   4   3   0   52.62    5.19
  -5   3   0  437.80   21.01
   5   3   0  436.92   18.14
   5  -3   0  457.32   20.27
  -5  -3   0  440.81   19.20
   5   3   0  399.84   18.54
   6  -3   0  111.16   10.35
  -6   3   0  110.73   10.61
  -6  -3   0   94.02    9.08
   6   3   0   91.31    8.00
   6   3   0  105.16    9.45
   7   3   0    1.60    3.93
   7   3   0   -1.54    4.52
   7  -3   0    5.35    4.79
  -7   3   0    3.48    4.78
   8   3   0    6.60    5.77
  -8   3   0    1.70    5.32
   8  -3   0   -1.14    5.35
   9   3   0   59.44   10.47
  -9   3   0   54.55   11.24
   9  -3   0   56.02   10.34
   0   4   0 4381.88  128.28
   0   4   0 4401.93  131.41
  -1   4   0 2246.90   66.28
   1   4   0 2050.75   67.47
   1  -4   0 2195.31   58.88
  -1   4   0 2226.74   66.17
   1   4   0 2208.69   64.25
   2  -4   0  584.42   21.04
  -2   4   0  595.35   22.01
  -2   4   0  614.82   19.29
  -2  -4   0  612.87   19.06
   2   4   0  597.45   21.97
  -3   4   0  257.71   14.04
   3  -4   0  328.71   14.18
  -3  -4   0  317.95   11.87
   3   4   0  319.80   13.89
   3   4   0  324.51   12.55
   4  -4   0  495.91   20.61
  -4  -4   0  494.86   18.87
  -4   4   0  457.66   21.28
   4   4   0  479.51   19.72
   4   4   0  479.15   18.76
   5  -4   0   54.18    7.74
   5   4   0   44.88    6.44
  -5   4   0   46.16    7.56
   5   4   0   54.14    6.39
  -5  -4   0   55.55    6.56
   6   4   0   50.62    6.21
  -6  -4   0   48.53    7.15
   6   4   0   48.19    7.40
   6  -4   0   47.44    8.15
  -6   4   0   54.64    9.04
   7   4   0   95.40    8.61
   7   4   0   70.41    9.28
  -7   4   0   91.23   10.39
   7  -4   0   79.91   10.14
  -8   4   0   34.71    7.93
   8  -4   0   27.32    8.13
   8   4   0   30.23    7.39
   9   4   0   13.20    7.50
  -9   4   0   32.62    8.67
   9  -4   0   16.57    7.15
   0   5   0   -1.08    0.89
   0   5   0   -1.61    1.45
  -1   5   0  377.69   14.02
   1   5   0  376.41   12.15
   1   5   0  350.78   14.72
  -1   5   0  369.00   13.66
   1  -5   0  361.01   11.85
   2   5   0  661.16   23.90
  -2   5   0  656.75   21.13
  -2   5   0  650.22   23.67
  -2  -5   0  640.59   20.29
  -2  -5   0  633.36   20.24
   2  -5   0  632.78   19.33
   3   5   0 1368.71   42.20
  -3  -5   0 1325.26   41.18
   3  -5   0 1295.92   43.92
   3   5   0 1311.52   44.79
  -3   5   0 1338.14   45.51
  -3   5   0 1348.21   41.01
  -4   5   0 2160.74   73.33
  -4  -5   0 2268.80   69.08
   4   5   0 2234.41   69.49
  -4   5   0 2199.88   67.34
   4   5   0 2296.86   72.43
   4  -5   0 2244.73   71.95
   5   5   0 1583.59   51.39
   5   5   0 1367.42   52.05
  -5  -5   0 1639.66   51.20
   5  -5   0 1537.20   53.59
  -5   5   0 1577.48   55.38
   6  -5   0  313.94   17.89
   6   5   0  289.47   15.84
   6   5   0  289.23   15.44
  -6   5   0  327.02   18.91
   7   5   0   -0.28    4.60
  -7   5   0   -8.68    3.82
   7  -5   0    1.74    4.89
   7   5   0    4.84    4.33
   8   5   0    3.24    5.05
   8  -5   0    6.82    6.24
  -8   5   0    2.83    5.72
  -9   5   0   13.23    7.48
   9   5   0    9.16    6.48
   9  -5   0   23.40    7.92
   0   6   0 3055.79   89.35
   0   6   0 2959.71   92.42
   1  -6   0 1531.03   43.23
  -1   6   0 1586.68   49.26
   1   6   0 1593.26   46.60
   1   6   0 1489.26   50.36
  -1   6   0 1541.58   48.61
  -2   6   0  462.75   16.34
   2   6   0  431.37   18.45
  -2   6   0  454.23   18.19
   2   6   0  450.09   14.78
   2  -6   0  453.29   14.72
  -3   6   0    4.03    1.65
   3   6   0    1.54    2.66
  -3  -6   0    2.77    1.58
   3   6   0    5.62    2.13
  -3   6   0    1.32    2.50
   3  -6   0    4.55    1.67
   4   6   0  315.82   15.65
  -4   6   0  288.52   16.24
  -4  -6   0  320.01   12.87
  -4   6   0  315.48   11.51
   4   6   0  310.25   13.68
   4  -6   0  301.29   15.50
   5  -6   0  278.26   15.66
  -5   6   0  261.55   16.44
   5   6   0  259.66   14.37
   5   6   0  248.03   13.36
  -5  -6   0  275.33   13.17
   6  -6   0  178.47   13.94
   6   6   0  218.97   13.14
  -6   6   0  216.39   15.44
   6   6   0  219.23   13.32
   7   6   0  112.76   10.38
   7  -6   0  102.54   10.79
   7   6   0  127.96   11.73
  -7   6   0  101.41   11.43
   8  -6   0  125.44   13.25
   8   6   0  139.53   12.75
  -8   6   0  144.31   14.64
   9  -6   0  184.51   16.43
   9   6   0  136.16   14.38
  -9   6   0  199.27   17.63
   0   7   0    0.11    1.96
   0   7   0    0.74    1.31
   1  -7   0    0.56    1.34
  -1   7   0    2.16    2.22
  -1   7   0    8.61    2.54
   1   7   0   -0.72    2.26
   1   7   0    6.05    1.58
   2   7   0   11.88    3.57
   2  -7   0    8.82    2.13
  -2   7   0    9.90    2.97
  -2   7   0    9.58    2.64
   2   7   0   12.82    1.95
  -3  -7   0  130.75    6.36
   3   7   0  145.21    7.60
  -3   7   0  139.93    9.76
   3   7   0  156.61   10.18
   3  -7   0  141.57    6.96
  -3   7   0  144.97    7.41
  -4  -7   0   28.51    3.67
  -4   7   0   27.44    5.68
   4   7   0   27.86    4.25
   4   7   0   21.17    4.92
   5   7   0   12.49    4.16
   5  -7   0   16.76    5.29
   5   7   0   18.12    5.18
  -5   7   0   14.72    5.20
   6  -7   0   83.68   10.41
   6   7   0   82.12    8.76
  -6   7   0  118.94   11.40
   6   7   0  103.25    9.65
   7  -7   0   25.88    7.39
   7   7   0   34.27    7.09
   7   7   0   23.13    6.71
  -7   7   0   28.72    7.75
  -8   7   0    7.59    6.75
   8   7   0   -0.94    5.11
  -9   7   0   79.65   13.64
   0   8   0   11.47    2.42
   0   8   0    8.82    3.10
  -1   8   0   71.22    5.58
  -1   8   0   77.23    6.40
   1   8   0   66.25    4.23
   1  -8   0   68.55    4.75
   1   8   0   68.52    6.75
  -2   8   0   36.34    4.67
  -2   8   0   39.70    4.93
   2   8   0   43.41    5.73
   2  -8   0   44.01    3.97
   2   8   0   35.68    3.07
  -3  -8   0   34.85    3.15
   3  -8   0   43.06    3.99
  -3   8   0   32.58    5.85
  -3   8   0   43.26    4.92
   3   8   0   43.46    6.83
  -3  -8   0   34.72    3.14
   4   8   0   11.56    3.21
   4   8   0    5.32    3.99
   4  -8   0    6.11    2.36
  -4   8   0   15.64    5.15
   5   8   0   18.90    4.47
   5  -8   0   14.12    3.44
  -5   8   0   13.43    5.51
   5   8   0   13.99    5.10
   6   8   0   56.51    7.97
  -6   8   0   48.91    9.03
   6   8   0   42.99    7.89
   7   8   0   58.51    9.04
  -7   8   0   63.31   11.16
   7   8   0   69.86    9.86
   8   8   0   52.45    9.10
  -8   8   0   48.36   10.55
  -9   8   0   35.35   10.09
   0   9   0    0.27    2.67
   0   9   0   -0.04    1.57
  -1   9   0   96.09    7.69
  -1   9   0   79.45    6.23
   1   9   0   77.65    7.67
   1   9   0   76.66    4.84
   1  -9   0   77.11    5.38
   2   9   0    6.94    1.87
  -2   9   0   14.18    4.01
  -2   9   0   10.81    3.49
   2  -9   0    8.77    2.41
   2   9   0    9.05    3.88
  -3   9   0  100.63    7.91
  -3   9   0  100.37    8.54
   3   9   0  111.44    9.29
  -3  -9   0   97.24    5.42
   3  -9   0  105.07    6.29
  -3  -9   0  101.66    5.31
   4   9   0    6.98    3.12
   4   9   0    3.36    3.63
   4  -9   0    0.78    2.37
  -4   9   0   19.85    5.32
   5  -9   0   56.22    5.33
  -5   9   0   61.88    9.77
   5   9   0   58.34    8.10
   5   9   0   82.38    7.45
   6  -9   0  150.65    9.18
  -6   9   0  159.93   14.30
   6   9   0  139.41   11.19
   6   9   0  160.92   13.18
   7   9   0  108.36   11.10
  -7   9   0  144.00   14.50
   8   9   0    6.96    5.68
  -8   9   0   11.28    7.27
   0  10   0  113.40    9.18
   0  10   0  122.87    7.19
   1 -10   0   27.75    4.09
   1  10   0   30.67    3.66
   1  10   0   35.80    6.43
  -1  10   0   37.40    5.93
  -1  10   0   32.61    4.73
   2  10   0  131.39    6.51
  -2  10   0  141.38    9.70
   2 -10   0  129.71    7.51
   2  10   0  149.53   10.91
  -2  10   0  112.70    8.83
  -3  10   0   24.71    5.40
  -3  10   0   22.77    5.04
   3 -10   0   16.94    3.50
   3  10   0   21.11    5.87
   4 -10   0  157.08    8.51
   4  10   0  163.48    9.34
  -4  10   0  131.19   11.62
   4  10   0  136.22   11.26
   5  10   0   35.12    7.59
   5 -10   0   35.60    5.26
  -5  10   0   30.26    7.55
   5  10   0   47.39    6.69
   6  10   0  222.60   15.84
  -6  10   0  219.39   17.05
  -7  10   0  154.73   15.39
   7  10   0  153.40   13.43
   8  10   0   30.90    7.88
  -8  10   0   28.93    9.22
   0  11   0   13.62    3.23
   0  11   0   -0.30    3.45
   1  11   0   69.60    7.63
   1  11   0   65.90    5.22
  -1  11   0   62.15    6.00
  -1  11   0   68.96    7.70
   2  11   0  296.02   11.53
   2  11   0  313.40   17.12
  -2  11   0  266.99   14.46
   2 -11   0  278.05   12.38
  -2  11   0  299.73   15.54
  -3  11   0   15.56    4.98
  -3  11   0   15.38    5.11
   3 -11   0   12.97    3.43
   3  11   0   20.55    6.06
  -4  11   0  184.68   13.56
   4  11   0  170.06   10.17
   4  11   0  184.51   13.32
   4 -11   0  182.26    9.62
  -5  11   0  122.80   11.82
   5  11   0   97.18   10.60
   5 -11   0  124.50    8.43
   6  11   0  210.76   15.87
  -6  11   0  209.31   16.74
   7  11   0   86.68   10.71
  -7  11   0   91.86   13.70
  -8  11   0    7.92    7.12
   8  11   0    9.22    6.84
   0  12   0   87.88    6.53
   0  12   0   88.72    8.96
   1  12   0  232.94   14.95
   1  12   0  234.03   10.68
  -1  12   0  230.68   12.20
  -1  12   0  236.04   14.53
   2  12   0  556.96   19.83
  -2  12   0  547.56   23.44
  -2  12   0  575.62   25.04
   2  12   0  598.36   26.99
   2 -12   0  566.04   20.70
   3  12   0   46.30    8.05
  -3  12   0   23.91    5.78
   3 -12   0   35.78    5.08
   4  12   0    0.43    4.56
   4 -12   0    2.33    3.01
  -4  12   0    1.10    4.40
  -5  12   0    2.98    5.00
   5  12   0    4.06    5.26
   5 -12   0    0.68    3.08
   6  12   0  191.60   15.17
  -6  12   0  139.70   14.23
   7  12   0   89.71   11.53
  -7  12   0  108.12   13.92
   8  12   0   -3.41    5.86
   0  13   0    1.54    4.13
   0  13   0    1.82    2.73
   1  13   0  416.20   16.58
  -1  13   0  433.96   18.65
   1  13   0  447.25   22.65
  -1  13   0  396.96   21.10
  -2  13   0  225.16   15.22
   2 -13   0  275.16   12.95
   2  13   0  275.62   17.43
  -2  13   0  289.15   15.03
   3  13   0  143.13   12.47
   3 -13   0  138.95    8.68
  -3  13   0  129.92   10.97
  -4  13   0   13.25    5.58
   4 -13   0   21.57    4.62
   4  13   0   11.90    6.12
   5  13   0   92.36   11.47
  -5  13   0   86.33   10.50
  -6  13   0   14.31    6.80
   6  13   0   14.66    6.89
   7  13   0   13.99    7.31
  -7  13   0    7.26    7.53
   0  14   0  537.51   26.01
   0  14   0  487.90   20.21
  -1  14   0  730.76   29.04
   1  14   0  821.29   34.55
   1  14   0  753.75   27.14
  -1  14   0  784.00   33.29
   2  14   0  651.13   30.39
  -2  14   0  600.15   26.08
  -2  14   0  651.68   28.89
   3  14   0  349.33   20.84
  -3  14   0  332.77   18.27
   3 -14   0  311.41   15.04
  -4  14   0   13.42    6.04
   4  14   0   19.84    7.03
   4 -14   0   11.40    3.88
   5  14   0    7.83    5.83
  -5  14   0    8.09    5.92
   6  14   0    6.03    6.51
  -6  14   0   -0.05    5.43
  -7  14   0    1.86    6.14
   7  14   0    4.95    6.35
   0  15   0    8.44    5.86
   0  15   0    0.33    3.29
   1  15   0   20.10    6.76
  -1  15   0   21.94    6.95
  -1  15   0   21.23    5.19
  -2  15   0    2.55    4.05
  -2  15   0   -1.80    4.73
   2  15   0   -1.40    4.76
  -3  15   0   63.94    8.64
   3 -15   0   89.53    8.00
   3  15   0   95.21   11.61
   4  15   0  125.01   13.09
  -4  15   0  104.49   11.39
  -5  15   0   88.32   11.06
   5  15   0   59.84   11.32
  -6  15   0   22.49    7.20
   6  15   0    2.70    6.63
   0  16   0   32.06    5.67
   0  16   0   22.26    7.47
  -1  16   0   10.65    4.61
  -1  16   0   26.27    7.42
   1  16   0   18.85    7.10
   2  16   0  187.48   15.63
  -2  16   0  158.16   12.18
  -3  16   0  155.91   12.83
   3  16   0  181.83   15.72
  -4  16   0   73.57    9.43
   4  16   0   84.78   12.84
   5  16   0   11.86    7.26
  -5  16   0   16.20    6.95
   6  16   0    7.09    7.36
  -6  16   0   12.11    7.21
   0  17   0   -1.34    5.49
   1  17   0   47.45   10.08
  -1  17   0   40.65    9.29
  -1  17   0   36.08    6.80
   2  17   0   -5.71    5.74
  -2  17   0    3.95    4.45
   3  17   0   -6.24    5.47
  -3  17   0   -0.31    4.59
  -4  17   0    6.26    5.93
   4  17   0   13.42    7.46
  -5  17   0   10.12    6.21
   5  17   0    2.43    6.43
   0  18   0  120.47   14.03
  -1  18   0   73.86   12.72
   1  18   0   99.72   12.97
  -2  18   0  134.63   11.69
   2  18   0  148.57   15.44
  -3  18   0  114.22   11.72
   3  18   0   99.11   13.58
   4  18   0   19.31    8.55
  -4  18   0   13.71    6.96
  -5  18   0    3.84    5.92
   0  19   0    5.70    7.39
   1  19   0   66.52   12.73
  -2  19   0  136.49   12.08
   2  19   0  137.74   15.52
  -3  19   0  222.06   16.35
   3  19   0  251.10   20.46
  -4  19   0   57.58   10.56
   0  20   0   45.70   10.98
   1  20   0   56.26   12.39
   2  20   0   12.95    8.25
  -3  20   0    5.98    5.99
   1  21   0   -0.66    7.33
  10   0  -1   -1.41    6.21
   9   0  -1   -8.91    5.02
  -8   0   1   -1.09    4.25
   8   0  -1    3.00    5.22
   7   0  -1    3.73    4.01
  -7   0   1    1.85    4.04
   6   0  -1    3.48    2.93
   6   0  -1   -1.62    3.37
  -6   0   1    1.75    3.36
  -5   0   1   -2.17    2.87
   5   0  -1   -1.76    2.10
   5   0  -1   -1.26    2.61
  -4   0   1    0.02    2.47
   4   0  -1   -0.87    1.75
   4   0  -1    2.64    1.92
   3   0  -1    0.89    1.38
   3   0  -1   -0.44    1.36
  -3   0   1    0.83    1.82
  -2   0   1   -0.07    1.46
   2   0  -1   -1.12    1.27
   2   0  -1    0.58    1.24
   1   0  -1   -0.73    1.26
  -1   0   1   -0.61    1.32
   0   0  -1    1.34    0.47
   1   0   1   -1.78    0.83
   1   0   1   -0.68    0.82
  -1   0  -1   -1.22    0.74
   2   0   1    5.80    1.48
  -2   0  -1    6.01    1.89
   2   0   1    0.26    1.31
   3   0   1    0.98    1.77
   3   0   1   -3.07    1.75
  -3   0  -1   -0.87    2.14
   4   0   1    1.21    2.09
   4   0   1    0.71    1.78
  -4   0  -1   -3.27    2.47
   5   0   1    1.47    3.40
  -5   0  -1    0.00    3.24
   5   0   1    1.19    2.36
  -6   0  -1    5.74    4.04
   6   0   1   -5.89    3.67
  -7   0  -1   10.68    5.10
   7   0   1    3.69    4.81
   8   0   1    4.44    4.85
   9   0   1    7.81    7.01
  10   1  -1  144.78   14.68
   9   1  -1  386.87   22.55
  -9   1   1  374.58   22.03
   9  -1  -1  366.43   22.50
   8   1  -1   54.25    9.14
  -8   1   1   58.94    9.47
   8  -1  -1   73.41    9.74
  -8  -1   1   56.78    9.03
   7  -1  -1    7.49    5.10
   7   1  -1    0.78    4.06
  -7   1   1    8.98    4.41
   7   1  -1    4.51    3.52
  -7  -1   1    4.53    4.42
   6   1  -1  224.26   11.41
   6   1  -1  198.87   12.75
  -6   1   1  181.48   13.19
  -6  -1   1  213.41   13.43
   6  -1  -1  224.63   13.64
   6  -1  -1  200.75   10.41
   5  -1  -1 1975.12   65.80
  -5   1   1 1996.82   67.13
   5   1  -1 2058.80   64.30
   5   1  -1 2098.30   65.70
  -5  -1   1 1949.13   66.00
   5  -1  -1 2046.39   63.33
  -4   1   1 1939.12   62.17
  -4  -1   1 1955.22   61.03
   4   1  -1 1868.63   60.06
   4  -1  -1 1862.59   58.76
   4  -1  -1 1857.54   60.57
   4   1  -1 1906.74   59.79
  -3  -1   1  164.87    8.39
   3  -1  -1  160.78    8.59
   3   1  -1  163.75    7.92
   3   1  -1  163.75    8.20
   3  -1  -1  180.93    7.45
  -3   1   1  178.16    9.51
  -2   1   1    9.39    2.38
   2   1  -1    7.53    1.77
  -2  -1   1    6.42    1.56
   2   1  -1   10.87    1.97
   2  -1  -1    9.11    2.04
  -1  -1   1   45.80    2.50
   1   1  -1   37.13    2.61
  -1  -1   1   36.21    2.34
   1   1  -1   36.48    2.03
  -1   1   1   42.46    2.94
   0   1   1  139.63    4.83
   0   1  -1  139.18    5.11
   0   1  -1  146.96    5.27
   0  -1   1  144.10    4.98
   0   1   1  143.32    5.43
   0   1   1  152.63    4.87
   1   1   1  217.24    8.28
  -1   1  -1  227.76    8.34
  -1  -1  -1  214.02    7.43
   1  -1   1  215.63    7.17
   1  -1   1  219.08    8.52
  -2  -1  -1   82.17    4.83
  -2   1  -1   77.28    5.15
   2   1   1   93.85    5.22
   2  -1   1   83.12    5.28
   2   1   1   84.52    4.73
   2  -1   1   83.54    3.67
  -3  -1  -1    2.51    2.06
  -3   1  -1    8.89    2.94
   3  -1   1    8.13    1.76
   3   1   1    8.36    2.77
   3  -1   1    8.60    2.66
   3   1   1    7.65    2.18
  -4   1  -1    3.46    2.81
   4   1   1    1.81    2.53
   4   1   1    0.42    2.05
  -4  -1  -1    0.36    2.65
   4  -1   1    0.36    2.19
   4  -1   1    0.00    1.56
  -5   1  -1   39.82    6.91
   5   1   1   35.11    6.20
  -5  -1  -1   36.58    6.34
   5  -1   1   29.57    3.79
   5   1   1   36.74    4.81
   5  -1   1   38.41    6.42
  -6  -1  -1   13.00    4.54
   6  -1   1    5.15    4.41
   6   1   1    4.90    4.53
  -6   1  -1    0.20    3.80
  -7   1  -1    9.84    4.70
   7   1   1   -4.23    4.46
   7  -1   1   -0.63    4.79
   8   1   1    3.48    5.74
   8  -1   1    3.29    5.86
   9   1   1   -5.56    5.87
   9  -1   1   10.23    7.03
  10   2  -1   19.00    8.70
  -9   2   1    6.85    6.39
   9   2  -1   16.41    7.36
   9  -2  -1   19.50    7.44
  -8  -2   1    5.77    4.67
  -8   2   1    4.87    4.37
   8  -2  -1    0.69    4.73
   8   2  -1   10.09    5.50
   7   2  -1    5.19    4.45
   7   2  -1    2.25    3.58
   7  -2  -1    1.48    4.58
  -7  -2   1    8.42    4.29
  -7   2   1   -1.72    3.71
  -6  -2   1  145.09   11.19
   6  -2  -1  154.12   11.33
   6   2  -1  174.68   10.31
  -6   2   1  170.94   12.62
   6   2  -1  134.66   10.49
   5   2  -1  814.73   29.15
   5  -2  -1  811.87   30.84
  -5  -2   1  774.92   30.24
   5   2  -1  830.82   29.95
  -5   2   1  806.60   32.15
  -4   2   1  886.88   33.33
   4  -2  -1  878.76   31.89
   4   2  -1  928.79   31.16
  -4  -2   1  898.72   31.38
   4   2  -1  903.63   31.10
   3   2  -1    3.94    1.80
   3  -2  -1    3.81    2.02
  -3   2   1    1.76    2.11
  -3  -2   1    0.44    1.39
   3   2  -1    6.87    2.26
   2   2  -1  472.30   15.73
   2   2  -1  461.64   16.78
  -2  -2   1  470.55   15.83
  -2   2   1  486.52   17.87
   1  -2  -1  868.45   23.05
   1   2  -1  841.60   25.59
  -1   2   1  839.78   27.30
   1   2  -1  883.45   26.08
   1   2  -1  833.84   27.24
   0   2   1  382.70   12.35
   0  -2   1  400.16   12.26
   0  -2   1  388.34   11.52
   0   2  -1  384.82   12.69
   0   2   1  379.60   13.03
   0   2  -1  393.39   12.71
  -1   2  -1  488.87   16.83
  -1  -2  -1  506.16   15.29
   1   2   1  510.11   17.13
   1  -2   1  500.45   16.86
  -2   2  -1    6.33    2.06
   2   2   1    3.40    1.60
   2  -2   1    4.10    2.04
   2   2   1    3.69    1.87
  -2  -2  -1    2.44    1.41
   3  -2   1   48.39    5.27
   3  -2   1   42.55    2.46
  -3   2  -1   44.37    5.23
   3   2   1   53.61    4.72
  -3  -2  -1   42.03    4.52
   3   2   1   48.04    4.35
   4  -2   1    0.81    2.19
   4  -2   1    0.14    1.30
  -4   2  -1    3.43    2.92
   4   2   1   -1.01    2.16
  -4  -2  -1    1.31    2.65
   4   2   1    1.30    2.44
   5   2   1  125.91    8.02
   5  -2   1  110.87    9.43
  -5   2  -1  105.92    9.81
   5   2   1  124.97    9.47
  -5  -2  -1  108.75    8.90
  -6   2  -1  172.61   13.21
   6  -2   1  197.16   13.55
   6   2   1  185.04   12.92
   6   2   1  183.60   10.75
  -6  -2  -1  196.43   12.98
   7  -2   1   25.49    7.27
  -7   2  -1   38.25    8.39
   7   2   1   37.04    7.90
  -8   2  -1    0.69    5.82
   8   2   1    8.56    6.11
   8  -2   1    7.23    5.39
   9   2   1   -6.58    5.71
   9  -2   1    5.96    6.68
  10   3  -1   28.52    8.93
  -9   3   1   70.76   11.19
   9  -3  -1   70.38   11.33
   9   3  -1   62.49   10.64
   8  -3  -1   77.94   10.14
  -8   3   1   62.69    9.86
   8   3  -1   72.37    9.43
   7  -3  -1    0.35    4.04
   7   3  -1    9.73    4.20
   7   3  -1    6.84    4.86
  -7   3   1    8.14    4.15
  -7  -3   1    4.04    4.28
  -6  -3   1  286.62   15.65
   6   3  -1  260.27   13.86
  -6   3   1  306.03   17.36
   6   3  -1  262.56   14.83
   6  -3  -1  308.50   16.87
   5   3  -1 1097.40   38.78
   5  -3  -1 1086.84   40.34
   5   3  -1 1146.26   38.97
  -5   3   1 1193.12   42.52
  -5  -3   1 1107.27   39.19
   4  -3  -1 2403.54   75.03
   4   3  -1 2360.87   74.62
   4   3  -1 2327.41   73.17
  -4  -3   1 2369.42   73.24
  -4   3   1 2396.14   76.72
   3   3  -1  216.27   10.57
   3  -3  -1  224.46   10.81
   3   3  -1  231.08    9.67
  -3   3   1  222.20   11.80
  -3  -3   1  229.87    9.52
  -2  -3   1    2.71    1.52
  -2  -3   1    4.61    1.65
   2   3  -1   10.28    2.72
   2   3  -1    9.38    1.78
  -2   3   1    9.53    3.05
  -1   3   1  689.98   22.04
   1  -3  -1  671.05   18.90
   1   3  -1  656.60   23.00
   1   3  -1  696.31   21.43
  -1   3   1  691.50   22.94
   0  -3   1 1307.79   39.14
   0   3  -1 1345.80   39.85
   0   3  -1 1318.78   40.68
   0  -3   1 1307.92   36.07
   0   3   1 1294.89   40.72
   1   3   1   12.26    2.45
  -1   3  -1   12.22    1.51
  -1   3  -1   11.90    2.17
   1  -3   1   11.86    2.20
  -2  -3  -1  664.01   21.26
  -2   3  -1  676.94   23.63
   2   3   1  660.44   22.25
   2  -3   1  674.39   23.16
   2   3   1  648.16   23.12
  -3   3  -1   99.18    7.43
  -3  -3  -1   89.42    6.07
   3   3   1   94.94    6.53
   3   3   1  100.70    6.39
   3  -3   1  105.03    7.13
   4  -3   1   11.33    4.03
  -4   3  -1   11.61    4.17
   4   3   1   10.96    3.27
   4   3   1   17.95    3.78
  -4  -3  -1    7.66    3.25
   5   3   1    1.30    3.11
  -5   3  -1    1.67    3.51
  -5  -3  -1    2.70    3.57
   5   3   1   -1.37    3.30
   5  -3   1    2.25    3.23
  -6   3  -1   23.90    6.10
   6  -3   1   11.96    5.10
   6   3   1   14.37    5.37
   6   3   1   14.58    4.50
   7   3   1  151.14   12.76
  -7   3  -1  117.90   12.42
   7  -3   1  153.70   13.10
  -8   3  -1   32.20    8.28
   8  -3   1   44.88    9.54
   8   3   1   38.86    8.82
   9  -3   1    5.97    6.50
   9   3   1   16.50    7.23
   9  -4  -1  113.28   13.21
   9   4  -1  103.38   12.36
  -9   4   1  103.42   12.40
   8  -4  -1  127.50   12.60
   8   4  -1  100.79   11.27
  -8   4   1  121.34   12.42
  -7   4   1   71.76    8.84
   7   4  -1   82.28    8.28
   7   4  -1   75.92    8.89
   7  -4  -1   67.07    9.78
  -7  -4   1   62.03    8.07
  -6  -4   1   29.09    5.57
   6   4  -1   18.76    4.70
   6  -4  -1   24.16    5.89
   6   4  -1   23.76    5.37
  -6   4   1   26.73    6.33
  -5   4   1  360.17   18.73
  -5  -4   1  340.95   15.79
   5   4  -1  344.25   16.26
   5  -4  -1  382.23   17.93
   5   4  -1  350.63   15.95
   4   4  -1 1397.05   46.24
   4  -4  -1 1382.95   46.41
  -4  -4   1 1322.33   44.06
   4   4  -1 1357.76   44.27
  -4   4   1 1420.63   48.45
  -3   4   1 1104.38   38.47
   3   4  -1 1069.81   34.77
   3   4  -1 1162.13   37.83
  -3  -4   1 1063.23   34.64
   2   4  -1  414.44   14.17
  -2  -4   1  416.47   14.27
  -2   4   1  397.22   16.70
  -2   4   1  419.98   14.52
   2   4  -1  403.57   13.71
   2  -4  -1  426.94   12.50
   2   4  -1  421.60   16.50
  -2  -4   1  418.49   14.21
   1   4  -1 2973.07   90.62
  -1   4   1 2979.84   88.89
   1   4  -1 3074.96   87.50
   1  -4  -1 2875.00   78.85
  -1   4   1 2943.21   89.30
   0   4   1 7500.65  213.82
   0   4  -1 7221.99  218.18
   0   4  -1 7388.11  214.22
   0  -4   1 7337.14  193.94
   0   4   1 7355.53  218.17
   1  -4   1 2773.83   82.73
  -1   4  -1 2744.15   83.22
   1  -4   1 2799.83   74.79
   1   4   1 2822.45   85.04
  -1   4  -1 2738.95   83.21
   2   4   1  123.97    7.53
  -2   4  -1  145.98    7.86
  -2  -4  -1  129.58    5.49
   2  -4   1  130.11    7.52
   3   4   1  381.29   16.10
   3  -4   1  378.95   16.37
  -3   4  -1  369.41   17.01
  -3  -4  -1  396.46   14.53
   3   4   1  379.22   15.18
  -4   4  -1   -0.33    2.81
   4   4   1    5.55    2.94
   4   4   1    2.07    2.42
   4  -4   1    1.44    3.19
  -4  -4  -1    1.74    2.61
  -5   4  -1  352.72   19.34
   5   4   1  364.79   17.33
  -5  -4  -1  367.08   16.56
   5  -4   1  364.15   18.36
   5   4   1  357.84   16.81
   6   4   1  950.67   37.25
   6  -4   1 1038.04   39.33
  -6   4  -1  982.17   40.60
   6   4   1  999.25   36.32
   7   4   1  587.67   26.94
   7  -4   1  523.34   26.98
  -7   4  -1  596.35   29.35
   8  -4   1   73.50   11.32
  -8   4  -1   92.77   13.47
   8   4   1   67.39   11.12
   9   4   1   -9.03    6.32
   9  -4   1   -1.03    6.21
  -9   5   1    8.78    6.06
   9   5  -1    1.27    6.43
   8   5  -1    4.39    5.24
  -8   5   1    4.73    4.67
   8  -5  -1    4.70    5.30
   8   5  -1    5.77    5.45
   7   5  -1   18.67    5.46
  -7   5   1   21.82    6.69
   7  -5  -1   21.74    6.70
   7   5  -1   13.15    5.43
  -6  -5   1   40.81    6.39
  -6   5   1   37.66    7.48
   6  -5  -1   33.70    7.04
   6   5  -1   46.47    6.94
   6   5  -1   40.24    6.25
   5  -5  -1    6.75    3.74
   5   5  -1   10.62    3.23
  -5   5   1   17.90    5.29
   5   5  -1   10.50    3.96
  -5  -5   1    6.49    3.07
  -4   5   1  558.27   24.35
   4   5  -1  560.83   22.93
   4   5  -1  560.03   20.66
  -4  -5   1  573.55   20.56
  -3   5   1  314.16   12.04
  -3   5   1  326.09   15.54
   3   5  -1  323.29   12.20
  -3  -5   1  324.82   12.22
   3   5  -1  316.02   14.73
   2  -5  -1   82.86    4.05
   2   5  -1   93.70    4.65
  -2   5   1   92.46    5.10
  -2   5   1   82.58    6.50
   2   5  -1   93.56    6.68
   2   5  -1   87.54    4.21
  -1   5   1  919.80   30.62
   1   5  -1  961.18   32.05
   1  -5  -1  925.10   26.63
   1   5  -1  951.58   29.39
  -1   5   1  954.99   30.75
   0   5   1 5736.01  165.52
   0   5  -1 5661.53  166.21
   0   5  -1 5591.81  169.83
   0   5   1 5719.47  169.80
   1  -5   1 3713.61   98.27
   1   5   1 3663.66  111.62
   1   5   1 3686.57  106.58
   1  -5   1 3648.13  108.47
  -1   5  -1 3706.55  109.32
  -1   5  -1 3541.25  109.84
  -2   5  -1 3531.93  104.84
   2   5   1 3459.15  106.15
   2  -5   1 3440.69  103.86
  -2   5  -1 3372.54  102.83
  -2  -5  -1 3447.65  100.97
  -3  -5  -1  982.72   31.79
  -3   5  -1  974.76   35.70
   3   5   1 1030.10   33.37
   3   5   1 1000.31   35.15
   3  -5   1  994.37   34.84
   4  -5   1  606.19   24.37
   4   5   1  572.39   23.61
   4   5   1  607.02   22.82
  -4   5  -1  593.26   25.65
  -4  -5  -1  588.63   21.65
   5   5   1  741.90   28.12
   5  -5   1  720.50   29.77
  -5   5  -1  722.57   31.38
   5   5   1  703.32   28.19
   6  -5   1  363.11   20.85
   6   5   1  419.22   20.14
  -6   5  -1  417.58   23.01
   6   5   1  412.69   19.37
  -7   5  -1  169.45   14.95
   7   5   1  163.23   13.24
   7  -5   1  171.73   14.43
   8  -5   1    9.95    6.39
   8   5   1    4.69    6.24
  -8   5  -1   -0.66    5.86
  -9   5  -1   38.10   10.12
   9   5   1   15.19    7.49
  -9   6   1   -0.13    6.13
   8   6  -1   24.16    7.21
   8   6  -1   20.83    6.27
  -8   6   1   38.95    8.88
  -7   6   1   67.83   10.61
   7   6  -1   88.53    9.51
   7   6  -1   60.55    8.79
   6   6  -1   32.74    6.26
  -6  -6   1   33.23    5.78
   6   6  -1   24.41    5.68
  -6   6   1   38.83    7.70
   5   6  -1  203.50   12.67
  -5  -6   1  226.86   11.32
   5   6  -1  234.26   11.91
  -5   6   1  231.58   14.65
  -4   6   1  147.97   10.62
   4   6  -1  179.68    8.97
   4   6  -1  182.15   11.22
  -4   6   1  168.71    7.96
  -4  -6   1  169.59    8.48
   3  -6  -1  110.76    5.27
  -3   6   1  105.12    8.18
   3   6  -1  107.50    8.08
  -3  -6   1  112.80    5.98
  -3   6   1  119.31    6.31
   3   6  -1  107.62    5.74
  -3  -6   1  106.67    5.71
   2   6  -1  192.67    7.96
   2   6  -1  191.90   10.64
  -2   6   1  191.87    8.74
  -2   6   1  207.12   10.58
   2  -6  -1  194.23    7.36
   1   6  -1  122.19    8.01
  -1   6   1  134.22    7.16
  -1   6   1  138.32    7.23
   1   6  -1  142.41    6.38
   0   6  -1  453.66   17.52
   0   6  -1  429.85   15.90
   0   6   1  448.02   15.25
   0  -6   1  453.88   14.93
   0   6   1  465.40   17.58
  -1   6  -1  219.85    9.94
  -1   6  -1  205.24    9.55
   1  -6   1  202.19    8.37
   1   6   1  224.73   10.83
   1   6   1  214.34    7.32
  -2  -6  -1 1473.44   43.58
  -2   6  -1 1464.76   48.10
   2  -6   1 1464.09   41.97
  -2   6  -1 1427.12   45.80
   2   6   1 1512.53   49.13
   2  -6   1 1494.99   47.16
   3  -6   1   16.73    4.25
   3   6   1   25.82    3.84
  -3  -6  -1   20.54    2.70
   3   6   1   19.19    4.61
  -3   6  -1   16.97    4.33
   4   6   1  291.97   13.35
  -4   6  -1  284.61   15.90
   4  -6   1  257.60   14.40
   4   6   1  261.08   14.30
   5   6   1  295.03   15.13
   5  -6   1  324.58   17.52
  -5   6  -1  306.79   18.51
   5   6   1  297.48   15.94
   6   6   1    4.66    4.63
   6   6   1    8.72    4.55
  -6   6  -1    9.30    5.44
   6  -6   1    9.92    5.69
  -7   6  -1   67.31   10.91
   7   6   1   61.53    8.40
   7   6   1   77.57   10.43
   7  -6   1   58.79   10.21
   8   6   1   13.93    6.82
  -8   6  -1   18.91    7.79
   8  -6   1   11.94    7.72
  -9   6  -1   16.66    8.88
   9   6   1    0.62    6.69
  -9   7   1   36.67    9.71
   8   7  -1   10.37    5.69
  -8   7   1   25.50    7.65
  -7   7   1   14.59    5.98
   7   7  -1   11.59    5.47
   7   7  -1    9.19    5.20
  -6   7   1   60.59    9.52
   6   7  -1   41.90    7.22
   6   7  -1   49.05    7.06
  -5   7   1   32.25    6.95
  -5  -7   1   41.67    4.93
   5   7  -1   37.69    6.43
   5   7  -1   37.64    5.52
   4   7  -1  191.43    9.20
  -4   7   1  157.04   11.73
   4  -7  -1  188.18    8.01
  -4  -7   1  172.32    8.86
   4   7  -1  180.92   11.50
  -4   7   1  181.90    8.72
  -3   7   1  510.21   18.45
  -3  -7   1  494.03   17.55
   3   7  -1  489.10   21.56
  -3   7   1  486.75   21.31
   3  -7  -1  507.38   16.18
  -3  -7   1  503.33   17.63
   3   7  -1  508.96   17.58
   2  -7  -1  734.15   21.76
   2   7  -1  711.34   27.29
  -2   7   1  700.29   26.25
  -2   7   1  732.16   25.13
   2   7  -1  713.94   23.44
  -1   7   1 1232.34   40.00
   1   7  -1 1235.50   42.42
  -1   7   1 1259.90   41.04
   1   7  -1 1238.63   38.76
   0   7  -1  976.46   34.68
   0   7   1 1044.55   31.75
   0   7  -1  988.83   32.49
   0  -7   1 1013.04   30.12
   0   7   1  995.23   34.61
   1   7   1 1529.13   44.37
  -1   7  -1 1483.85   47.39
   1  -7   1 1482.67   42.50
  -1   7  -1 1443.58   48.04
   1   7   1 1469.91   49.41
  -2  -7  -1  243.92    8.25
  -2   7  -1  269.03   12.67
  -2  -7  -1  236.89    8.29
  -2   7  -1  244.39   10.66
   2   7   1  249.53   13.04
   2  -7   1  242.35    9.96
   3   7   1    9.60    3.82
  -3  -7  -1    0.74    1.48
   3  -7   1   -2.00    1.54
   3  -7   1   -1.52    2.56
  -3   7  -1    0.91    1.70
  -3   7  -1   -0.12    2.29
  -4   7  -1   12.37    4.38
   4  -7   1   17.01    4.99
   4   7   1   16.84    4.02
   4   7   1    5.68    3.76
  -5   7  -1  136.76   12.33
   5   7   1  131.29   10.29
   5  -7   1  133.98   11.39
   5   7   1  129.23    9.65
   6   7   1  338.71   18.25
  -6   7  -1  331.90   20.93
   6   7   1  341.64   18.20
   6  -7   1  342.83   19.84
   7   7   1   99.21   10.75
  -7   7  -1   88.08   11.93
   7  -7   1  116.72   12.54
   7   7   1  105.84   10.58
  -8   7  -1   52.06   11.13
   8   7   1   41.33    9.86
   8  -7   1   28.13    9.73
   9   7   1    4.69    6.87
  -9   7  -1    9.13    8.18
  -9   8   1   15.33    8.04
  -8   8   1   19.93    7.21
   8   8  -1    8.08    5.43
  -7   8   1  114.80   12.28
   7   8  -1   92.13    9.98
   6   8  -1  162.44   12.46
   6   8  -1  185.12   11.90
  -6   8   1  230.42   15.62
   5   8  -1   83.93    9.02
   5   8  -1   91.78    7.32
   5  -8  -1   82.68    5.78
  -5   8   1   91.30    9.62
  -4   8   1   39.23    4.54
  -4   8   1   45.64    7.56
   4  -8  -1   44.38    4.03
   4   8  -1   46.19    7.18
   4   8  -1   38.49    4.53
  -4  -8   1   30.20    4.08
  -3   8   1   15.95    4.44
   3   8  -1   15.91    4.43
  -3  -8   1   16.17    2.70
  -3  -8   1   12.83    2.45
  -3   8   1   16.04    3.35
   3   8  -1   18.75    3.00
   3  -8  -1   12.29    2.60
  -2   8   1  157.86    8.75
   2   8  -1  154.45   10.32
   2   8  -1  152.77    7.18
  -2   8   1  148.89    9.08
   2  -8  -1  159.13    7.11
  -1   8   1 2225.63   69.37
  -1   8   1 2168.74   67.17
   1   8  -1 2174.53   66.00
   1   8  -1 2125.14   70.61
   0  -8   1 1384.04   39.92
   0   8   1 1334.07   45.65
   0   8  -1 1316.07   42.97
   0   8   1 1369.01   42.10
   0   8  -1 1367.47   46.03
  -1   8  -1   48.64    5.26
   1  -8   1   39.37    3.78
   1   8   1   35.48    2.81
   1   8   1   42.46    5.99
  -1   8  -1   36.53    4.19
   2   8   1  557.72   17.62
   2   8   1  601.17   23.77
  -2   8  -1  588.04   22.64
  -2   8  -1  534.19   20.89
   2  -8   1  549.79   18.89
   3   8   1   72.48    7.91
   3  -8   1   69.75    5.38
  -3   8  -1   83.78    7.95
   4   8   1  102.96    7.64
   4  -8   1   70.46    5.85
  -4   8  -1   88.80    9.38
   4   8   1   86.66    8.60
   4  -8   1   80.14    8.18
   5  -8   1   34.51    7.39
   5   8   1   40.04    6.58
  -5   8  -1   49.86    8.76
   5   8   1   40.14    7.14
   6  -8   1   98.14   10.86
   6   8   1  120.19   10.70
   6   8   1  136.54   11.44
  -6   8  -1  102.66   12.16
   7   8   1  159.31   13.14
   7   8   1  142.85   12.73
  -7   8  -1  150.56   15.26
   7  -8   1  138.78   14.03
   8  -8   1   21.62    8.21
   8   8   1   16.02    7.83
  -8   8  -1   34.60    9.74
   8   9  -1   -1.34    5.46
  -8   9   1    3.80    6.28
   7   9  -1   29.96    7.54
  -7   9   1   19.65    6.94
   6   9  -1  161.91   12.72
  -6   9   1  164.90   13.78
  -5   9   1  437.56   23.79
   5   9  -1  526.75   24.33
   5   9  -1  496.15   20.01
   5  -9  -1  507.90   17.79
  -4  -9   1  247.01   11.15
   4   9  -1  237.14   11.35
   4  -9  -1  269.88   10.79
   4   9  -1  248.46   14.97
  -4   9   1  267.03   12.27
  -4   9   1  260.07   15.45
   3   9  -1   33.07    6.22
   3   9  -1   33.57    3.67
  -3   9   1   41.92    5.02
   3  -9  -1   36.79    3.87
  -3   9   1   26.39    5.61
   3   9  -1   37.52    3.90
   2  -9  -1   82.59    5.26
   2   9  -1   73.00    7.79
  -2   9   1   68.70    6.61
  -2   9   1   67.57    6.21
   2   9  -1   68.32    4.73
   1   9  -1   27.22    5.41
  -1   9   1   24.30    3.83
   1   9  -1   29.20    3.44
  -1   9   1   20.12    4.50
   0   9   1  738.52   24.12
   0  -9   1  670.36   23.36
   0   9  -1  721.27   28.01
   0   9  -1  718.15   25.05
   0   9   1  725.35   27.75
  -1   9  -1 2703.49   84.58
  -1   9  -1 2707.99   87.00
   1   9   1 2847.25   81.46
   1  -9   1 2744.90   76.41
   1   9   1 2698.92   87.74
   2   9   1 3208.94   90.65
   2   9   1 3252.22   99.20
  -2   9  -1 2708.86   95.49
   2  -9   1 3117.73   85.46
  -2   9  -1 3129.41   96.29
   3  -9   1 1860.29   58.37
  -3   9  -1 2201.91   68.65
   3   9   1 2125.01   69.53
   4   9   1 1145.33   38.49
   4   9   1 1075.81   41.76
  -4   9  -1 1059.95   42.16
   4  -9   1 1121.92   34.86
  -5   9  -1  728.05   32.64
   5   9   1  745.51   28.42
   5  -9   1  707.95   25.23
   5   9   1  685.34   30.44
   6   9   1  153.30   11.98
   6   9   1  137.23   12.14
   6  -9   1  138.68    9.32
  -6   9  -1  139.10   13.55
   7   9   1   -0.36    5.11
   7   9   1    0.27    5.12
  -7   9  -1    3.81    6.36
  -8   9  -1    9.24    7.89
  -8  10   1   91.96   13.89
   8  10  -1   75.48   11.31
   7  10  -1   20.05    6.55
  -7  10   1   24.44    8.37
  -6  10   1   -2.83    4.00
   6  10  -1    3.08    5.00
  -5  10   1   22.77    6.42
   5  10  -1   23.13    6.33
   4 -10  -1  253.26   10.93
  -4  10   1  242.83   15.41
   4  10  -1  226.92   15.16
   4  10  -1  262.13   11.69
   3  10  -1 1426.62   52.56
   3 -10  -1 1479.52   43.08
   3  10  -1 1499.65   46.21
  -3  10   1 1474.04   49.55
  -3  10   1 1473.77   51.34
  -2  10   1 1476.06   49.00
   2 -10  -1 1449.43   42.11
   2  10  -1 1415.17   50.97
  -2  10   1 1411.59   47.99
   2  10  -1 1400.75   44.84
   1  10  -1  950.43   31.64
  -1  10   1  984.78   35.43
   1  10  -1  948.11   36.46
  -1  10   1  937.46   32.68
   0  10  -1  945.53   31.50
   0  10  -1  888.57   34.74
   0  10   1  926.84   30.25
   0  10   1  888.38   34.35
   1 -10   1 1838.01   54.06
  -1  10  -1 1875.65   59.79
   1  10   1 1885.00   56.47
  -1  10  -1 1890.26   62.40
   1  10   1 1831.14   62.88
   2 -10   1  770.29   26.63
  -2  10  -1  800.86   30.79
   2  10   1  847.37   25.88
   2  10   1  915.06   33.56
  -2  10  -1  806.06   30.73
   3  10   1    7.42    4.37
  -3  10  -1    5.71    3.90
   3 -10   1    2.08    2.50
   4  10   1  538.74   21.46
  -4  10  -1  496.15   24.82
   4  10   1  513.46   24.66
   4 -10   1  524.60   19.66
  -5  10  -1  547.40   27.76
   5  10   1  576.80   23.40
   5 -10   1  512.32   20.51
   5  10   1  522.48   25.70
   6  10   1  335.52   17.71
  -6  10  -1  280.70   20.09
   6  10   1  293.40   18.45
   6 -10   1  312.08   14.73
  -7  10  -1  121.92   14.83
   7  10   1  125.57   12.74
  -8  10  -1   86.12   14.80
  -8  11   1    6.57    7.74
   8  11  -1   17.36    7.11
   7  11  -1   77.69   10.42
  -7  11   1  105.19   13.07
  -6  11   1   40.78    8.86
   6  11  -1   38.00    8.04
   5  11  -1   88.29   10.19
  -5  11   1   75.41   10.03
   4 -11  -1  876.55   27.99
  -4  11   1  837.63   35.28
   4  11  -1  880.80   36.31
   3 -11  -1 1609.72   46.95
  -3  11   1 1629.17   54.51
   3  11  -1 1587.27   57.24
   3  11  -1 1576.64   49.81
  -3  11   1 1571.25   54.98
  -2  11   1  548.73   22.92
   2  11  -1  492.93   24.05
  -2  11   1  510.27   21.58
   2  11  -1  525.00   19.04
   1  11  -1    3.00    2.31
   1  11  -1    3.31    3.42
  -1  11   1    5.75    4.03
  -1  11   1    0.09    2.12
   0  11  -1   71.96    6.24
   0  11  -1   73.86    8.38
   0  11   1   73.90    5.60
   0  11   1   75.03    7.97
  -1  11  -1   19.06    4.13
  -1  11  -1   32.98    6.18
   1 -11   1   18.17    3.63
   1  11   1   13.14    2.57
   1  11   1   16.49    4.78
  -2  11  -1  106.77    9.30
  -2  11  -1   77.62    7.46
   2 -11   1   93.91    6.61
   2  11   1   88.83    9.34
   3  11   1   29.94    7.02
  -3  11  -1   36.03    7.05
   3 -11   1   22.74    4.23
   4 -11   1   -0.25    2.82
  -4  11  -1    5.12    4.46
   4  11   1   -3.71    3.18
   4  11   1    5.36    4.79
   5  11   1   -0.83    4.90
   5 -11   1    7.09    3.70
  -5  11  -1   -1.42    4.03
   5  11   1    7.85    4.43
  -6  11  -1   13.46    6.93
   6  11   1    4.96    5.55
   6 -11   1   16.74    4.80
  -7  11  -1    7.36    7.52
   7  11   1   12.85    6.99
   8  12  -1   65.57   10.66
  -7  12   1   41.01    9.52
   7  12  -1   33.14    7.95
   6  12  -1   17.90    6.99
  -6  12   1   12.79    6.03
   5  12  -1   75.14    9.84
  -5  12   1   72.17    9.60
   4  12  -1  101.61   10.97
   4 -12  -1  116.10    7.68
  -4  12   1  115.56   10.79
   3 -12  -1   17.02    3.79
  -3  12   1   35.29    6.62
   3  12  -1   31.45    4.19
  -3  12   1   23.30    6.08
   3  12  -1   31.18    7.17
  -2  12   1   27.68    5.23
   2  12  -1   28.75    4.09
   2  12  -1   36.93    7.47
  -2  12   1   21.99    5.81
   1  12  -1   10.19    3.11
  -1  12   1    2.39    3.89
  -1  12   1   10.04    3.27
   1  12  -1   12.41    5.23
   0  12  -1   55.98    8.44
   0  12  -1   40.81    5.24
   0  12   1   54.42    5.13
   0  12   1   53.64    8.15
  -1  12  -1  122.90    8.86
   1 -12   1  112.37    7.78
  -1  12  -1  106.20   10.45
   1  12   1  123.55   10.64
   1  12   1  124.06    6.69
  -2  12  -1   25.29    5.26
   2  12   1   38.89    7.44
   2 -12   1   31.02    4.76
  -2  12  -1   31.94    6.78
   3  12   1   20.35    6.03
  -3  12  -1   12.80    4.96
   3 -12   1   21.34    4.33
   4  12   1    7.93    4.01
   4  12   1    5.59    5.23
   4 -12   1    2.39    3.28
  -4  12  -1    9.43    4.60
  -5  12  -1   -3.55    4.73
   5 -12   1   -3.95    3.26
   5  12   1    4.42    5.59
   6  12   1    6.64    6.15
  -6  12  -1   20.38    7.57
   7  12   1    2.07    6.17
  -7  12  -1    5.04    7.32
   8  13  -1   32.78    8.90
   7  13  -1   70.61   11.33
  -7  13   1   66.50   11.45
  -6  13   1   24.78    7.49
   6  13  -1   27.04    8.02
   5  13  -1    0.60    4.97
  -5  13   1    4.76    5.35
  -4  13   1   38.00    7.59
   4  13  -1   36.20    8.28
  -3  13   1   72.70    8.52
  -3  13   1   95.66    9.26
   3 -13  -1   75.08    6.47
   3  13  -1   77.00   10.06
   2  13  -1   38.70    4.99
  -2  13   1   59.60    7.63
   2  13  -1   46.87    8.57
  -2  13   1   46.67    6.29
  -1  13   1   28.24    4.80
  -1  13   1   37.67    7.13
   1  13  -1   33.55    4.92
   1  13  -1   33.26    7.55
   0  13   1   35.17    4.63
   0  13  -1   35.15    5.46
   0  13   1   49.64    8.05
   0  13  -1   44.41    8.21
   1  13   1   32.95    7.17
  -1  13  -1   24.25    6.47
   1 -13   1   21.44    4.55
  -1  13  -1   23.28    5.00
   2  13   1  387.60   20.66
   2 -13   1  343.79   15.50
  -2  13  -1  336.45   17.46
   3  13   1  103.62   10.82
  -3  13  -1  108.10   10.27
   3 -13   1  110.46    8.26
   4  13   1   74.47   11.12
   4 -13   1   64.24    6.76
  -4  13  -1   63.07    9.77
  -5  13  -1   42.36    9.63
   5  13   1   57.41   10.24
   5 -13   1   55.13    7.15
   6  13   1   -0.80    5.64
  -6  13  -1   -0.73    5.73
   7  13   1    8.09    7.28
  -7  13  -1   12.39    8.16
   7  14  -1   19.73    7.57
  -7  14   1   12.54    7.25
  -6  14   1   76.42   11.93
   6  14  -1   70.03   11.86
   5  14  -1   62.26   10.84
  -5  14   1   61.80   10.24
   4  14  -1   19.03    6.61
  -4  14   1   14.93    5.98
   3  14  -1  246.57   16.96
  -3  14   1  213.13   14.23
  -2  14   1  349.46   17.68
  -2  14   1  394.60   20.33
   2  14  -1  368.69   21.47
  -1  14   1  364.05   17.05
   1  14  -1  392.91   16.81
   1  14  -1  417.09   22.59
  -1  14   1  375.95   20.63
   0  14   1  320.93   19.04
   0  14  -1  330.42   19.71
   0  14   1  345.52   14.94
   0  14  -1  333.01   15.69
  -1  14  -1   87.40    8.05
   1  14   1   80.18    9.91
  -1  14  -1   68.59   10.61
   2 -14   1    4.93    3.49
  -2  14  -1    0.09    3.83
   2  14   1    3.21    5.06
   3  14   1   58.15    9.77
  -3  14  -1   53.65    8.45
   3 -14   1   53.53    6.51
  -4  14  -1    0.88    4.53
   4 -14   1   -1.04    3.52
   4  14   1    3.21    5.91
  -5  14  -1    6.71    6.14
   5  14   1   16.23    7.10
  -6  14  -1   52.71   10.68
   6  14   1   54.17   10.76
   7  14   1   55.10   11.51
  -6  15   1  311.88   21.12
   6  15  -1  272.93   20.09
  -5  15   1  147.19   13.99
   5  15  -1  150.15   14.64
   4  15  -1  187.56   15.41
  -4  15   1  161.52   13.60
  -3  15   1  225.66   15.28
   3  15  -1  277.13   18.58
  -2  15   1  217.88   15.34
  -2  15   1  186.84   12.58
   2  15  -1  199.82   16.12
  -1  15   1   11.73    4.25
   1  15  -1   11.66    4.01
  -1  15   1    9.76    5.09
   1  15  -1   17.33    6.59
   0  15  -1   15.16    6.38
   0  15  -1   18.36    4.98
   0  15   1   19.69    6.82
  -1  15  -1  101.85    9.10
  -1  15  -1  123.41   12.19
   1  15   1   88.32   10.81
   2 -15   1  219.00   12.52
  -2  15  -1  212.19   14.02
   2  15   1  204.60   15.83
   3  15   1  221.56   16.97
   3 -15   1  219.36   12.58
  -3  15  -1  223.26   14.94
   4  15   1  179.40   15.80
  -4  15  -1  148.04   13.50
   4 -15   1  161.14   10.86
  -5  15  -1   26.20    7.88
   5  15   1   29.65    8.46
   6  15   1   11.68    7.52
  -6  15  -1    4.86    6.47
   6  16  -1   -0.53    6.61
  -6  16   1    9.85    6.36
  -5  16   1   27.18    7.50
   5  16  -1   27.58    8.89
  -4  16   1    5.42    5.62
   4  16  -1    8.37    5.90
   3  16  -1   44.21    9.86
  -3  16   1   29.17    6.77
  -2  16   1  209.60   13.74
  -2  16   1  270.40   17.59
   2  16  -1  240.56   18.15
  -1  16   1  110.76   12.19
  -1  16   1  106.56    8.96
   1  16  -1   86.60    8.00
   1  16  -1  123.87   13.06
   0  16  -1  100.28    8.66
   0  16   1   97.44   11.31
   0  16  -1  121.92   12.99
   1  16   1  124.19   12.99
  -1  16  -1  120.58   13.08
  -1  16  -1  107.22    9.62
  -2  16  -1  113.03   10.62
   2  16   1  160.56   14.35
   3 -16   1   25.65    5.68
   3  16   1   18.69    7.57
  -3  16  -1   17.14    6.27
  -4  16  -1   55.59    9.75
   4  16   1   55.17   10.88
   4 -16   1   64.71    7.39
  -5  16  -1   71.15   11.77
   5  16   1   58.35   11.60
  -5  17   1   -3.45    5.23
   5  17  -1    6.14    6.96
   4  17  -1    5.79    6.72
  -4  17   1    1.95    5.01
  -3  17   1   19.92    6.22
   3  17  -1   23.48    8.18
  -2  17   1    8.34    6.09
  -2  17   1   11.11    5.11
   2  17  -1    6.76    6.39
   1  17  -1   69.58   12.00
  -1  17   1   36.99    8.62
   0  17   1   35.48    8.23
   0  17  -1   28.15    6.12
   0  17  -1   45.11   10.24
  -1  17  -1   34.88    7.06
   1  17   1   22.53    7.99
   2  17   1   -1.03    6.17
  -2  17  -1    3.79    4.56
  -3  17  -1    7.14    5.62
   3 -17   1    3.48    4.20
   3  17   1    9.78    6.64
   4  17   1   19.47    7.98
  -4  17  -1   10.04    5.77
  -5  17  -1   -0.98    5.92
   5  17   1    4.65    7.21
  -5  18   1    0.87    6.00
   4  18  -1    6.90    7.22
  -4  18   1    0.39    5.35
  -3  18   1   50.98    9.06
   3  18  -1   52.27   11.58
  -2  18   1   97.98    9.73
   2  18  -1  101.06   13.67
  -1  18   1   49.51   10.37
   1  18  -1   37.23   10.63
   0  18  -1    5.15    6.49
   0  18   1    2.87    6.11
   1  18   1   17.02    7.69
  -1  18  -1    1.53    4.44
  -2  18  -1    3.60    4.61
   2  18   1    1.93    6.34
  -3  18  -1    4.40    5.28
   3  18   1    7.55    7.47
   4  18   1    7.72    6.51
  -4  18  -1    7.86    5.75
   4  19  -1    0.91    7.35
  -4  19   1    2.24    5.68
   3  19  -1    8.00    7.86
  -3  19   1    7.33    6.00
   2  19  -1   26.03    9.95
   1  19  -1   76.83   13.76
  -1  19   1   90.01   13.69
   0  19  -1   75.21   13.43
   0  19   1   42.89   10.90
  -1  19  -1   12.90    5.81
   1  19   1   13.17    7.72
   2  19   1   -1.76    6.48
  -2  19  -1   -1.29    5.02
  -3  19  -1   17.15    7.10
   3  19   1   18.71    7.92
  -4  19  -1    5.52    6.07
   3  20  -1   52.66   12.25
   2  20  -1  112.08   14.64
   1  20  -1   55.89   13.58
   0  20   1    6.11    8.31
   1  20   1   20.81    8.83
   2  20   1   12.35    8.20
  -2  20  -1   -1.93    5.20
  -3  20  -1   12.93    6.90
   1  21  -1   44.63   11.96
   0  21   1    7.60    7.86
   1  21   1    6.22    7.58
  10   0  -2   43.24    9.87
  -9   0   2   59.29   10.04
   9   0  -2   58.27   10.12
   8   0  -2  241.54   16.38
  -8   0   2  256.02   16.91
   7   0  -2   48.56    6.25
  -7   0   2   43.94    8.09
   7   0  -2   53.76    8.30
  -6   0   2   26.90    5.93
   6   0  -2   32.03    6.21
   6   0  -2   19.84    4.34
   5   0  -2  192.98   11.61
  -5   0   2  207.37   12.54
   5   0  -2  222.60   10.68
   4   0  -2 1515.79   48.92
  -4   0   2 1529.47   50.06
   4   0  -2 1523.30   49.43
   3   0  -2 1557.11   49.60
  -3   0   2 1657.43   50.12
   3   0  -2 1523.69   49.19
   2   0  -2 6796.13  201.85
  -2   0   2 6814.68  198.97
  -1   0   2 1168.00   37.10
  -1   0   2 1212.13   37.20
  -1   0   2 1280.22   32.85
   0   0  -2  345.82   11.42
  -1   0  -2  675.35   20.70
   1   0   2  619.91   21.29
   1   0   2  659.66   20.78
   2   0   2 1590.25   48.87
  -2   0  -2 1541.49   47.78
   2   0   2 1545.17   47.80
   3   0   2 1301.49   40.30
   3   0   2 1234.20   41.97
  -3   0  -2 1294.77   41.51
   4   0   2  630.26   24.76
  -4   0  -2  618.89   24.36
   4   0   2  630.61   21.72
  -5   0  -2 1632.11   57.05
   5   0   2 1730.14   57.29
  -6   0  -2 1961.45   65.94
   6   0   2 1864.84   65.54
   7   0   2 1675.33   60.63
   8   0   2  137.44   13.61
  10   1  -2   21.33    7.83
   9  -1  -2   24.04    7.71
  -9  -1   2   22.34    6.93
  -9   1   2   14.09    6.16
   9   1  -2    9.64    6.43
  -8  -1   2   55.54    9.33
  -8   1   2   98.05   10.59
   8  -1  -2   68.34   10.15
   8   1  -2   87.08    9.94
  -7  -1   2  149.44   12.41
  -7   1   2  151.19   12.77
   7   1  -2  157.50   10.53
   7  -1  -2  198.45   13.54
   7   1  -2  179.65   12.70
   6   1  -2  344.97   17.55
   6   1  -2  342.16   15.97
   6  -1  -2  351.20   18.13
  -6  -1   2  378.24   18.72
  -6   1   2  385.91   19.47
   5  -1  -2  318.98   15.75
  -5   1   2  329.52   16.99
  -5  -1   2  338.86   16.25
   5   1  -2  356.35   16.05
   5   1  -2  322.87   14.58
   4   1  -2  598.32   22.33
  -4  -1   2  593.01   22.48
   4  -1  -2  597.20   22.66
   4   1  -2  609.89   22.21
  -4   1   2  605.18   23.85
   3   1  -2  148.02    7.40
  -3  -1   2  133.33    7.14
   3   1  -2  132.76    6.90
  -3   1   2  120.00    7.48
  -2  -1   2  790.37   25.48
  -2   1   2  768.59   26.01
   2   1  -2  805.31   26.05
   1   1  -2 2153.93   66.22
   1   1  -2 2191.23   65.00
  -1   1   2 2206.75   65.10
  -1  -1   2 2203.26   58.39
   0  -1  -2  595.04   18.21
   0   1  -2  576.54   18.65
   1  -1   2 3904.43  115.15
  -1  -1  -2 3952.16  113.45
   1  -1   2 3804.30  114.47
   1   1   2 3924.48  115.94
  -1   1  -2 3854.68  114.29
   2   1   2 4566.30  135.30
   2   1   2 4602.15  136.45
  -2   1  -2 4479.27  134.92
   2  -1   2 4505.01  135.38
  -2  -1  -2 4601.10  133.96
   2  -1   2 4643.54  135.38
   3  -1   2 1863.58   59.09
   3   1   2 1826.13   58.61
  -3  -1  -2 1839.89   57.41
   3  -1   2 1872.70   56.29
  -3   1  -2 1840.67   58.65
   3   1   2 1875.23   57.75
   4   1   2  534.54   21.46
   4  -1   2  539.97   17.72
  -4   1  -2  479.74   21.23
  -4  -1  -2  507.79   20.58
   4  -1   2  511.84   21.36
   4   1   2  527.31   19.28
   5   1   2   19.94    5.41
   5   1   2   30.83    4.65
   5  -1   2   19.59    5.53
  -5  -1  -2   15.63    4.78
  -5   1  -2   24.93    5.66
  -6  -1  -2    7.65    4.32
  -6   1  -2   15.95    5.27
   6   1   2    2.88    4.04
   6  -1   2    5.02    4.93
   7   1   2   16.73    6.69
   7  -1   2   28.44    7.34
   8  -1   2   37.67    8.88
   8   1   2   29.96    8.55
 -10   2   2   -2.70    5.57
  10   2  -2    8.35    6.49
  -9   2   2   12.26    6.07
   9   2  -2    0.01    6.10
   9  -2  -2    9.98    6.39
   8   2  -2  103.78   10.84
  -8  -2   2  108.11   11.05
  -8   2   2  121.76   11.90
   8  -2  -2  111.60   11.45
   7  -2  -2  112.40   10.48
   7   2  -2  110.56    8.77
  -7   2   2  115.92   11.11
   7   2  -2  108.13   10.49
  -7  -2   2   95.34   10.22
  -6   2   2   10.61    5.04
   6   2  -2    7.10    3.68
   6  -2  -2   20.92    5.08
   6   2  -2   11.63    4.53
  -6  -2   2   13.80    4.92
  -5  -2   2   -1.93    2.41
   5  -2  -2    0.49    2.95
   5   2  -2    0.01    2.39
   5   2  -2   -5.32    2.11
  -5   2   2    3.81    3.68
  -4  -2   2    2.46    1.94
   4   2  -2    2.02    2.02
   4   2  -2    6.90    2.71
  -4   2   2    8.77    3.35
  -3  -2   2  265.34   11.12
   3   2  -2  263.69   10.73
   3   2  -2  269.75   11.77
  -3   2   2  266.16   12.55
  -2   2   2 3255.10   98.68
   2   2  -2 3264.69   99.76
  -2  -2   2 3309.90   97.57
  -2  -2   2 3339.21   97.69
   1   2  -2 2247.71   68.81
  -1   2   2 2273.13   67.69
  -1  -2   2 2263.52   60.81
   1   2  -2 2267.47   67.43
   0   2   2 1687.74   49.32
   0  -2   2 1637.37   49.50
   0   2  -2 1653.73   50.48
   0   2  -2 1652.88   50.16
   0   2   2 1703.40   49.41
   1   2   2 2683.76   83.97
  -1   2  -2 2832.63   82.99
  -1  -2  -2 2843.38   81.31
   1  -2   2 2768.27   82.91
  -2   2  -2 3923.53  117.02
  -2  -2  -2 3872.80  114.77
   2   2   2 3996.60  116.84
   2   2   2 3905.47  118.27
   2  -2   2 3925.22  117.30
   3   2   2   96.91    6.80
   3  -2   2  101.97    7.40
  -3   2  -2   95.97    6.99
   3   2   2  109.64    6.72
  -3  -2  -2   95.93    5.62
   4   2   2  129.72    8.94
   4   2   2  123.18    7.71
   4  -2   2  127.81    9.48
  -4   2  -2  128.38    9.21
  -4  -2  -2  112.56    7.66
   4  -2   2  116.52    5.03
  -5   2  -2   31.17    6.44
   5   2   2   46.93    6.99
   5   2   2   42.62    5.45
   5  -2   2   43.98    7.11
  -5  -2  -2   30.71    5.85
   6  -2   2  318.05   18.22
   6   2   2  351.98   18.68
  -6   2  -2  353.00   19.63
   7   2   2  125.28   12.09
   7  -2   2  106.23   11.14
  -7   2  -2  108.79   11.93
   8  -2   2    7.37    6.55
   8   2   2   -8.61    5.25
 -10   3   2   94.00   12.12
   9   3  -2  181.17   15.43
  -9   3   2  209.02   16.11
  -8  -3   2  122.46   11.93
   8   3  -2  115.09   10.24
  -8   3   2  137.26   12.57
   8   3  -2  107.65   10.98
   7   3  -2   30.40    6.62
   7  -3  -2   30.54    7.41
  -7  -3   2   33.37    7.02
  -7   3   2   46.77    8.56
   7   3  -2   29.15    6.01
  -6  -3   2  189.38   12.35
  -6   3   2  164.56   12.60
   6   3  -2  189.61   11.34
   6   3  -2  192.39   11.84
   6  -3  -2  203.75   13.18
  -5   3   2  114.95    9.87
  -5  -3   2  113.88    8.13
   5   3  -2  115.64    8.08
   5   3  -2  104.00    8.09
   4   3  -2 1071.91   36.97
  -4   3   2 1080.40   38.71
   4   3  -2 1073.14   35.66
  -4  -3   2 1071.13   35.84
   3   3  -2 1539.77   46.47
  -3  -3   2 1479.02   46.92
   3   3  -2 1477.39   48.68
  -3   3   2 1510.74   49.62
   2   3  -2 1751.10   54.14
   2   3  -2 1771.62   52.07
   2  -3  -2 1708.56   45.67
   2   3  -2 1650.63   50.67
  -2   3   2 1686.14   53.95
  -1  -3   2  252.25    8.90
   1   3  -2  247.31   10.33
   1   3  -2  268.77    9.80
  -1   3   2  273.63   10.44
   0  -3   2   30.87    2.47
   0  -3   2   29.47    2.57
   0   3   2   29.96    2.31
   0   3   2   33.22    3.17
   0   3  -2   25.51    2.66
   0   3  -2   33.57    2.57
  -1   3  -2  861.59   28.30
   1   3   2  878.98   28.83
   1  -3   2  870.18   28.21
  -2  -3  -2  587.56   18.19
   2   3   2  603.16   21.39
   2  -3   2  584.84   21.43
  -2   3  -2  581.76   21.29
  -3   3  -2   21.47    4.14
   3   3   2   18.88    3.62
   3   3   2   23.56    4.03
  -3  -3  -2   23.53    2.71
   3  -3   2   16.26    3.97
  -4  -3  -2  350.86   14.21
   4  -3   2  311.05   16.01
   4   3   2  348.50   15.92
  -4   3  -2  330.28   16.80
   4   3   2  346.63   15.24
  -5   3  -2  142.03   11.33
   5  -3   2  113.71   10.31
   5   3   2  144.46    9.58
   5   3   2  140.19   10.45
   6  -3   2   18.53    6.36
  -6   3  -2   13.96    6.08
   6   3   2   33.91    6.75
   7   3   2   -7.09    3.80
   7  -3   2    0.36    4.89
  -7   3  -2    9.66    5.92
   8   3   2   -0.82    6.09
   8  -3   2   -2.44    5.74
 -10   4   2  104.51   12.60
   9   4  -2  162.19   14.24
  -9   4   2  143.30   13.93
   8   4  -2   98.59    9.90
  -8   4   2  135.31   12.69
   8   4  -2  113.11   11.39
  -7  -4   2   95.41    9.64
   7   4  -2  107.64    9.87
   7   4  -2   94.20    8.71
  -7   4   2   80.87   10.03
   6   4  -2  105.50    8.86
   6   4  -2  128.43    9.48
  -6  -4   2  116.83    9.81
  -6   4   2  123.31   11.03
   5   4  -2  193.83   11.37
  -5   4   2  207.47   13.30
  -5  -4   2  175.53   10.45
   5   4  -2  195.76   10.67
  -4  -4   2  207.14   10.37
  -4   4   2  216.16   12.85
   4   4  -2  231.09   10.59
   4   4  -2  230.50   11.74
  -3   4   2  116.35    8.38
   3   4  -2  100.65    7.30
  -3  -4   2  119.00    6.30
  -3  -4   2  113.68    6.28
   3   4  -2  114.54    5.83
   2  -4  -2    6.90    0.99
   2   4  -2    6.98    2.56
  -2   4   2    6.92    2.66
   2   4  -2    9.05    1.24
   2   4  -2    5.48    1.67
   1   4  -2 1411.12   45.50
  -1   4   2 1399.48   44.82
  -1  -4   2 1469.15   40.16
  -1   4   2 1420.65   45.00
   1   4  -2 1448.18   43.93
   0   4   2 1019.21   33.95
   0   4  -2 1045.14   33.08
   0  -4   2 1067.89   32.01
   0   4  -2 1048.15   33.20
   0  -4   2 1040.55   30.02
   1   4   2   25.52    3.58
  -1   4  -2   15.17    2.67
   1  -4   2   17.18    2.83
  -1   4  -2   19.96    1.92
   2  -4   2  595.14   22.23
  -2   4  -2  640.97   22.78
   2   4   2  606.58   22.64
   3  -4   2  761.52   28.04
  -3   4  -2  732.41   28.27
   3   4   2  763.57   27.01
  -3  -4  -2  754.98   23.84
   3   4   2  775.98   27.66
   4  -4   2  148.80   10.27
   4   4   2  152.87    9.77
  -4  -4  -2  147.99    7.66
  -4   4  -2  154.35   10.80
   4   4   2  149.51    9.52
   5   4   2  318.95   15.32
  -5   4  -2  274.69   17.17
   5  -4   2  282.97   16.32
   5   4   2  311.04   15.96
   6   4   2  352.27   17.25
   6   4   2  347.97   18.75
   6  -4   2  346.92   19.70
  -6   4  -2  351.58   20.83
   7   4   2  125.71   12.38
   7  -4   2  134.30   12.65
  -7   4  -2  133.76   13.55
  -8   4  -2   17.04    7.56
   8   4   2    8.05    6.97
   8  -4   2   17.37    7.74
  -9   5   2  161.91   14.98
   8   5  -2   50.02    8.68
  -8   5   2   57.27    9.88
   8   5  -2   58.49    8.02
  -7  -5   2   27.37    6.26
  -7   5   2   30.69    7.47
   7   5  -2   19.22    5.84
   7   5  -2   20.63    5.75
  -6   5   2  279.48   16.81
   6   5  -2  271.60   14.64
  -6  -5   2  266.31   14.16
   6   5  -2  230.39   13.60
   5   5  -2 1197.70   38.69
  -5   5   2 1123.59   42.48
  -5  -5   2 1114.79   38.52
   5   5  -2 1084.10   40.19
  -4   5   2  312.70   16.62
  -4  -5   2  337.87   13.81
   4   5  -2  325.40   15.59
   4   5  -2  326.78   13.46
   3   5  -2  415.65   14.66
   3   5  -2  397.48   17.33
  -3   5   2  408.49   18.29
   3  -5  -2  414.00   12.51
  -3  -5   2  417.31   15.40
  -3  -5   2  424.59   15.48
   2   5  -2  413.68   16.76
   2   5  -2  399.37   12.75
  -2   5   2  405.18   16.86
   2   5  -2  403.58   14.55
  -2   5   2  405.34   15.30
  -1   5   2   43.18    4.37
  -1  -5   2   55.10    3.83
  -1   5   2   51.73    4.21
   1   5  -2   50.33    3.77
   1   5  -2   48.40    4.61
   0   5   2  454.79   17.71
   0   5   2  491.12   15.94
   0   5  -2  493.51   17.31
   0  -5   2  487.85   15.62
   0  -5   2  485.71   15.81
   0   5  -2  461.95   17.02
   1   5   2 4889.70  143.91
  -1   5  -2 4740.57  141.10
   1  -5   2 4735.69  127.26
  -1   5  -2 4708.50  141.15
   1  -5   2 4702.56  140.29
  -2   5  -2 4389.20  130.90
   2  -5   2 4287.07  130.20
   2   5   2 4373.84  132.84
   3   5   2 1257.01   40.15
   3   5   2 1149.93   41.15
  -3   5  -2 1165.07   41.68
   3  -5   2 1234.51   41.38
   4  -5   2  136.26   10.28
   4   5   2  126.23    9.44
  -4   5  -2  140.70   10.85
   4   5   2  137.71    9.23
   5   5   2   26.23    5.57
  -5   5  -2   23.84    6.54
   5  -5   2   18.90    5.91
   5   5   2   24.57    5.65
   6   5   2    2.55    4.74
  -6   5  -2    1.78    5.29
   6  -5   2    0.09    4.81
   6   5   2    1.43    3.98
   7   5   2   58.54    9.63
  -7   5  -2   34.89    9.03
   7  -5   2   48.71    9.51
   8  -5   2   44.63   10.25
   8   5   2   53.12   10.86
  -8   5  -2   57.29   11.60
  -9   6   2   13.19    7.23
  -8   6   2    5.27    5.50
   8   6  -2    0.56    4.79
   7   6  -2    4.44    4.37
  -7   6   2    7.95    4.79
   7   6  -2   10.10    5.07
  -6  -6   2   27.86    5.44
   6   6  -2   27.86    5.98
   6   6  -2   31.79    5.75
  -6   6   2   19.47    6.38
   5   6  -2  763.90   28.01
  -5  -6   2  794.90   28.29
   5   6  -2  787.09   30.64
   4   6  -2 2807.49   87.00
   4   6  -2 2823.54   82.40
  -4  -6   2 2771.73   82.92
  -4   6   2 2385.00   86.68
   4  -6  -2 2736.64   73.23
  -3  -6   2 4061.73  121.41
  -3  -6   2 4009.32  121.22
   3  -6  -2 4067.21  108.28
  -3   6   2 4007.07  125.12
  -3   6   2 4217.61  123.59
   3   6  -2 4100.17  119.91
   2   6  -2 3209.84   99.95
  -2   6   2 3198.34   97.78
  -2   6   2 3179.60   98.18
   2   6  -2 3236.68   95.49
   2   6  -2 3173.72   93.43
  -1  -6   2 1480.68   41.82
  -1   6   2 1458.02   46.77
  -1   6   2 1439.82   45.84
   1   6  -2 1441.52   45.09
   1   6  -2 1437.76   47.95
   0   6   2  616.35   19.49
   0  -6   2  595.03   19.14
   0   6   2  592.72   22.00
   0   6  -2  585.90   20.89
   0   6  -2  601.58   21.82
   1  -6   2  525.75   18.81
   1   6   2  559.68   20.91
   1  -6   2  543.61   17.63
  -1   6  -2  517.29   18.23
  -1   6  -2  505.96   19.50
   2  -6   2  134.86    8.03
  -2   6  -2  114.48    4.81
  -2   6  -2  146.56    8.53
   2  -6   2  119.80    6.56
   2   6   2  127.20    8.69
  -3   6  -2   13.59    4.01
   3  -6   2   21.17    4.51
   3   6   2   26.59    5.20
   4   6   2   67.47    7.36
   4  -6   2   71.44    8.29
  -4   6  -2   97.92    9.46
   4   6   2   78.06    7.21
   5  -6   2  213.39   14.19
  -5   6  -2  218.88   15.24
   5   6   2  213.50   13.07
   5   6   2  212.94   13.00
  -6   6  -2  180.35   15.55
   6   6   2  205.93   13.33
   6   6   2  205.61   13.98
   6  -6   2  194.49   14.61
   7   6   2  157.49   13.85
  -7   6  -2  163.45   15.65
   7  -6   2  162.76   14.79
   8  -6   2   32.30    9.28
   8   6   2   29.96    9.33
  -8   6  -2   22.33    9.10
  -9   7   2   13.68    6.42
   8   7  -2   43.53    8.34
  -8   7   2   24.29    7.40
   7   7  -2  171.92   12.73
  -7   7   2  187.35   14.86
  -6   7   2   -6.29    3.04
   6   7  -2    4.45    3.46
  -6  -7   2    5.55    3.53
   6   7  -2    3.84    4.10
   5  -7  -2  125.44    6.44
   5   7  -2  132.14   10.11
  -5   7   2  130.77   11.34
  -5  -7   2  126.11    8.10
   5   7  -2  139.84    8.61
  -5   7   2  123.93    7.68
   4   7  -2    0.89    2.02
  -4   7   2    8.08    4.33
  -4   7   2    4.21    2.50
   4   7  -2   -1.30    3.00
   4  -7  -2   -0.10    1.58
  -4  -7   2    5.37    2.38
  -3   7   2 1103.06   41.04
   3  -7  -2 1182.45   33.18
  -3   7   2 1193.45   39.05
   3   7  -2 1177.34   36.20
   3   7  -2 1177.08   37.62
   3   7  -2 1194.00   42.08
   2   7  -2 1292.49   40.63
  -2   7   2 1310.21   43.13
  -2   7   2 1269.91   42.29
   2   7  -2 1278.25   44.53
  -1  -7   2  131.25    6.86
  -1   7   2  140.06    7.43
  -1   7   2  128.78    7.72
   1   7  -2  125.34    6.84
   1   7  -2  115.67    8.29
   0   7  -2  361.60   15.43
   0   7   2  336.24   15.32
   0   7  -2  366.70   14.53
   0  -7   2  381.47   13.51
   0   7   2  378.26   13.07
   1   7   2  186.29   10.50
   1   7   2  177.19    6.15
  -1   7  -2  186.05    9.68
  -1   7  -2  192.38    9.22
   1  -7   2  183.80    8.48
   2  -7   2   15.81    3.61
   2   7   2    5.43    3.43
  -2   7  -2   14.54    2.13
  -2   7  -2    8.13    2.88
   2  -7   2    8.09    2.49
   3   7   2  126.68    9.92
  -3   7  -2  160.86   10.79
   3  -7   2  149.60    9.92
   4  -7   2  152.32   11.15
   4   7   2  153.12    9.92
   4   7   2  142.87   10.71
  -4   7  -2  155.33   12.00
   5  -7   2   -1.25    4.46
   5   7   2    2.37    3.91
   5   7   2    4.23    4.07
  -5   7  -2   -1.40    4.32
   6   7   2   -0.39    4.30
   6  -7   2   -4.04    5.05
  -6   7  -2   -7.14    4.45
   6   7   2    2.98    4.46
   7  -7   2    0.92    5.89
   7   7   2  -10.75    5.36
  -7   7  -2    7.70    6.68
  -8   7  -2   -6.04    6.94
   8  -7   2    2.59    6.62
   8   7   2    6.76    6.94
  -9   8   2   29.23    9.09
   9   8  -2   32.87    8.15
   8   8  -2  143.01   12.94
  -8   8   2  172.40   15.24
  -7   8   2  172.93   14.72
   7   8  -2  167.11   13.01
  -6   8   2  223.32   15.50
   6   8  -2  219.40   14.35
  -5  -8   2  423.34   17.72
   5   8  -2  419.26   20.57
  -5   8   2  436.28   17.47
  -5   8   2  414.57   21.74
   4   8  -2 1296.94   46.55
  -4   8   2 1284.29   46.52
   4   8  -2 1283.46   40.94
  -4  -8   2 1286.17   41.81
  -4  -8   2 1256.82   41.77
   4  -8  -2 1315.03   36.95
  -4   8   2 1283.17   42.78
   3   8  -2 1056.76   32.07
   3   8  -2  865.88   37.28
   3   8  -2 1031.33   33.57
  -3   8   2 1054.79   35.30
   3  -8  -2 1051.45   29.97
  -3   8   2 1082.52   37.65
   2   8  -2   97.92    6.04
   2   8  -2  105.53    8.68
  -2   8   2  106.84    7.77
  -2   8   2   99.92    7.01
  -1   8   2  124.10    7.25
   1   8  -2  130.84    7.25
   1   8  -2  132.60    9.04
  -1   8   2  129.86    8.10
   0   8   2  130.25    8.93
   0   8  -2  164.43    9.72
   0   8   2  171.11    7.28
   0   8  -2  151.58    8.31
   0  -8   2  168.32    8.23
  -1   8  -2   20.38    3.88
   1   8   2   20.46    4.58
  -1   8  -2   22.58    3.95
   1   8   2   17.26    1.87
   1  -8   2   19.14    3.35
   2   8   2   80.52    7.45
  -2   8  -2   76.85    5.03
   2  -8   2   73.51    5.71
   2  -8   2   75.26    6.37
  -2   8  -2   60.60    6.32
   3  -8   2   16.08    4.55
   3   8   2   15.33    4.79
   3  -8   2   17.10    3.53
  -3   8  -2   15.62    4.60
   4  -8   2   16.91    5.32
  -4   8  -2   10.01    4.96
   4   8   2   10.29    4.06
   4   8   2   15.03    5.25
   5   8   2    4.37    4.35
  -5   8  -2    5.35    5.07
   5  -8   2   -2.47    4.51
   5   8   2    0.86    4.15
   6   8   2   50.13    8.13
  -6   8  -2   46.51    9.50
   6   8   2   49.88    8.44
   6  -8   2   46.33    9.32
  -7   8  -2    5.33    7.18
   7   8   2   10.12    6.35
   7  -8   2    5.31    6.28
   8   8   2   17.09    8.10
   8  -8   2    1.59    6.91
  -8   8  -2    8.18    8.09
  -9   9   2   39.88   10.18
   9   9  -2   23.40    7.92
  -8   9   2  125.01   13.73
   8   9  -2   97.01   11.01
  -7   9   2  125.46   12.47
   7   9  -2   79.60    9.82
  -6   9   2   35.41    7.95
   6   9  -2   37.12    7.42
  -5   9   2  201.24   14.70
   5   9  -2  194.48   13.37
  -5  -9   2  220.64   11.22
   4  -9  -2  242.28   10.00
  -4  -9   2  251.40   11.70
  -4   9   2  270.92   15.77
  -4   9   2  280.57   12.90
   4   9  -2  265.04   15.60
  -4  -9   2  241.88   11.48
  -3   9   2    7.92    3.89
   3   9  -2   16.72    2.51
   3  -9  -2   20.40    2.88
  -3   9   2   19.45    4.15
   3   9  -2   19.84    5.03
   3   9  -2   23.17    3.57
  -2   9   2   27.68    4.80
   2   9  -2   26.23    3.80
  -2   9   2   27.28    4.72
   2   9  -2   21.44    5.42
  -1   9   2   44.45    5.21
  -1   9   2   43.21    4.74
   1   9  -2   32.04    6.02
   1   9  -2   42.06    4.23
   0   9  -2  777.11   30.07
   0   9  -2  799.08   28.05
   0   9   2  778.41   30.11
   0  -9   2  795.22   25.91
   0   9   2  820.67   26.14
   1   9   2  498.61   15.64
  -1   9  -2  504.02   19.84
  -1   9  -2  499.34   19.82
   1   9   2  415.44   20.48
   1  -9   2  479.44   17.52
  -2   9  -2   65.13    6.74
  -2   9  -2   93.55    6.45
   2   9   2   86.04    8.27
   2  -9   2  102.60    6.80
  -3   9  -2    4.46    3.53
   3  -9   2   -1.47    2.87
   3   9   2    0.57    3.21
   3  -9   2    4.84    2.76
   4   9   2    6.67    3.77
   4  -9   2    5.59    3.10
  -4   9  -2    9.03    5.25
   4  -9   2   -1.46    4.21
   4   9   2   13.12    5.33
   5  -9   2    7.79    3.26
   5   9   2   -2.00    4.34
  -5   9  -2    2.17    5.21
   5  -9   2    7.97    5.15
   5   9   2    5.16    4.63
   6   9   2   34.36    7.57
   6  -9   2   33.22    8.26
  -6   9  -2   36.46    9.43
   6   9   2   48.54    8.96
   7  -9   2    5.96    6.84
  -7   9  -2    2.09    6.95
   7   9   2    6.87    6.76
   7   9   2    1.00    5.97
   8   9   2    5.54    6.88
  -8   9  -2    3.71    8.46
   9  10  -2   -5.70    5.69
  -8  10   2   41.18   10.15
   8  10  -2   31.85    8.26
  -7  10   2  101.60   12.10
   7  10  -2  114.92   11.47
   6  10  -2  106.72   10.82
  -6  10   2  129.57   12.30
   5  10  -2  160.55   12.64
  -5  10   2  139.47   12.56
  -4 -10   2  103.81    6.95
  -4 -10   2  103.98    6.99
  -4  10   2  101.37    9.86
  -4  10   2   88.11    7.50
   4  10  -2  106.82   10.45
  -3  10   2  181.29   10.51
   3  10  -2  164.29   12.18
   3  10  -2  164.19    8.75
  -3  10   2  157.94   11.14
   2  10  -2  225.49   13.71
  -2  10   2  213.99   11.94
  -2  10   2  198.55   11.42
   2  10  -2  203.83   10.04
   1  10  -2  439.08   17.08
  -1  10   2  426.70   16.88
   1  10  -2  428.88   20.47
  -1  10   2  402.00   18.87
   0  10  -2  949.31   33.11
   0  10  -2  931.74   35.90
   0 -10   2  987.71   31.07
   0  10   2  931.00   35.56
   0  10   2  978.23   31.07
   1  10   2  144.74    6.11
  -1  10  -2  119.55    9.25
   1  10   2  154.83   10.99
  -1  10  -2  156.66    9.61
   1 -10   2  140.48    8.30
   2  10   2   36.77    6.84
  -2  10  -2   41.74    6.18
  -2  10  -2   47.87    5.52
   2 -10   2   28.33    4.33
   3  10   2   89.38    9.14
  -3  10  -2   66.92    8.15
   3 -10   2   81.15    6.75
   4 -10   2   19.56    4.27
   4  10   2   29.48    7.02
  -4  10  -2   16.09    5.95
   4  10   2   23.62    5.34
   5  10   2   14.57    5.50
   5 -10   2   10.87    3.90
   5  10   2   11.82    6.16
  -5  10  -2   10.87    6.53
  -6  10  -2    7.94    6.53
   6 -10   2   -5.01    3.00
   6  10   2   -7.18    4.44
   6  10   2    3.45    5.66
   7  10   2   -2.06    6.43
   7 -10   2    3.57    4.20
   7  10   2    9.84    6.58
  -7  10  -2    7.85    7.88
  -8  11   2   77.27   12.85
   8  11  -2   79.33   11.62
  -7  11   2   70.25   11.62
   7  11  -2   56.10    9.42
  -6  11   2   53.30    9.91
   6  11  -2   62.89   10.01
   5  11  -2   85.84   10.00
  -5  11   2   74.84    9.71
  -4 -11   2    0.72    2.56
   4  11  -2    4.42    4.61
  -4  11   2    1.15    3.84
  -4  11   2    3.02    3.58
  -4 -11   2    6.85    2.95
   3  11  -2   22.25    6.36
  -3  11   2   20.68    4.95
   3  11  -2   19.25    3.69
  -3  11   2   20.27    4.83
  -2  11   2   13.91    4.19
   2  11  -2   17.34    3.54
  -2  11   2   14.76    4.25
   2  11  -2   18.99    5.49
   1  11  -2  328.58   17.58
   1  11  -2  284.92   13.45
  -1  11   2  304.13   16.01
  -1  11   2  313.73   13.80
   0  11  -2  607.13   26.74
   0  11   2  595.23   26.34
   0  11  -2  609.06   23.70
   0  11   2  659.00   21.88
   0 -11   2  637.47   22.79
  -1  11  -2  296.50   14.74
   1 -11   2  300.51   13.31
   1  11   2  295.51   16.46
  -1  11  -2  308.99   15.92
   2  11   2  121.75   10.82
  -2  11  -2  132.28    9.83
   2 -11   2  124.50    8.00
  -3  11  -2  114.21    9.90
   3  11   2  103.10   10.10
   3 -11   2  103.19    7.84
   4  11   2   35.95    7.67
   4 -11   2   26.36    5.23
   4  11   2   20.30    5.32
  -4  11  -2   28.81    7.34
  -5  11  -2   27.34    7.35
   5 -11   2   27.13    5.67
   5  11   2   20.61    5.68
   5  11   2   13.81    6.37
   6  11   2    0.94    4.83
   6 -11   2    0.91    3.79
  -6  11  -2    1.18    6.02
   6  11   2    1.11    5.54
  -7  11  -2   22.69    8.84
   7  11   2   26.15    7.95
  -8  12   2   17.94    7.55
   8  12  -2   -1.26    5.92
   7  12  -2   27.00    7.77
  -7  12   2   16.76    6.98
   6  12  -2    7.29    5.55
  -6  12   2    4.06    5.76
  -5  12   2    2.56    4.88
   5  12  -2    5.91    5.48
  -4  12   2    0.10    4.18
  -4  12   2   -3.15    3.19
   4  12  -2    4.05    4.67
   3  12  -2   24.61    6.56
  -3  12   2   14.90    4.55
  -3  12   2   16.46    5.15
   3  12  -2   21.29    3.97
  -2  12   2    5.70    3.12
   2  12  -2    4.85    2.91
  -2  12   2    1.56    3.29
   2  12  -2   -3.28    2.76
  -1  12   2  263.38   12.74
   1  12  -2  265.84   12.93
  -1  12   2  273.46   15.55
   1  12  -2  280.22   16.85
   0  12  -2  412.47   17.30
   0  12   2  364.95   19.37
   0 -12   2  410.26   16.74
   0  12   2  411.35   15.31
   0  12  -2  295.38   18.63
   1  12   2  353.53   18.76
   1 -12   2  346.58   15.14
  -1  12  -2  334.39   16.44
  -1  12  -2  348.82   18.11
   2 -12   2   46.23    5.64
   2  12   2   38.95    7.43
  -2  12  -2   48.73    7.49
   3 -12   2   15.00    4.32
   3  12   2   16.25    5.89
  -3  12  -2   14.12    5.22
   4  12   2   38.64    6.57
   4 -12   2   56.03    6.85
   4  12   2   54.05    9.74
  -4  12  -2   36.59    8.05
   5  12   2  108.40   10.56
   5  12   2  103.58   11.58
   5 -12   2   75.55    8.21
  -5  12  -2   98.22   11.85
   6 -12   2   22.97    6.00
  -6  12  -2   18.44    8.27
   6  12   2    8.85    6.47
  -7  12  -2    8.41    8.08
   7  12   2   38.36    8.92
   8  13  -2   11.92    7.46
   7  13  -2   41.65    8.85
  -7  13   2   62.37   11.46
  -6  13   2   59.96   10.81
   6  13  -2   30.79    7.94
   5  13  -2  125.76   12.65
  -5  13   2  111.24   11.89
   4  13  -2   12.59    6.19
  -4  13   2    9.53    4.87
  -3  13   2   -1.43    3.34
  -3  13   2    1.59    3.70
   3  13  -2    2.23    2.98
   3  13  -2    1.29    4.76
   2  13  -2  125.74   11.97
   2  13  -2  124.91    8.33
  -2  13   2  135.90   10.80
  -2  13   2  124.04    9.44
  -1  13   2  252.52   15.38
   1  13  -2  242.51   12.49
   1  13  -2  193.74   15.22
  -1  13   2  264.51   12.58
   0  13  -2  263.12   14.25
   0  13   2  306.20   12.85
   0  13   2  314.24   17.90
   0  13  -2  295.03   17.78
   1  13   2  123.53   11.16
  -1  13  -2  120.24   11.12
  -1  13  -2  119.46    9.24
   1 -13   2  125.95    8.89
   2  13   2   79.10    9.28
  -2  13  -2   89.57    8.69
   2 -13   2   82.74    7.41
   3  13   2   36.33    8.04
  -3  13  -2   27.61    6.44
   3 -13   2   26.67    5.11
   4 -13   2   21.36    5.51
   4  13   2   27.10    7.94
  -4  13  -2   29.11    7.49
   5  13   2   29.97    6.92
   5  13   2   29.58    8.49
  -5  13  -2   22.44    7.45
   5 -13   2   37.61    6.38
   6 -13   2    3.11    4.75
   6  13   2    4.99    6.61
  -6  13  -2   -5.16    5.71
   7  13   2   17.65    8.25
  -7  14   2   16.32    6.38
   7  14  -2   12.95    6.82
   6  14  -2   22.62    7.63
  -6  14   2   25.98    7.86
  -5  14   2   25.20    6.66
   5  14  -2   16.05    6.64
  -4  14   2   60.77    9.11
   4  14  -2   48.11    9.76
   3  14  -2  113.72    8.25
  -3  14   2  129.62   11.34
  -3  14   2  116.69   10.26
   3  14  -2  120.66   12.11
  -2  14   2  166.86   13.07
  -2  14   2  183.66   11.65
   2  14  -2  150.89    9.79
   2  14  -2  202.41   15.29
   1  14  -2   40.26    6.08
  -1  14   2   42.16    5.65
   1  14  -2   50.83    9.23
  -1  14   2   45.18    8.01
   0  14  -2   81.88    7.78
   0  14   2   83.02    9.49
   0  14  -2   81.48   10.06
   1  14   2   12.59    5.28
   1 -14   2    9.21    3.86
  -1  14  -2   13.99    5.53
  -1  14  -2    7.82    4.36
   2 -14   2   32.27    5.60
   2  14   2   35.20    7.84
  -2  14  -2   40.85    7.37
  -3  14  -2  211.47   14.87
   3 -14   2  220.51   12.45
   3  14   2  213.78   16.58
   4 -14   2  571.53   23.18
   4  14   2  562.29   28.98
  -4  14  -2  557.02   28.19
  -5  14  -2  244.94   18.66
   5 -14   2  247.02   14.48
   5  14   2  277.37   19.25
  -6  14  -2   46.69   11.12
   6  14   2   57.53   11.32
   7  15  -2   47.74   10.82
  -7  15   2   37.39    9.12
  -6  15   2    3.65    5.88
   6  15  -2    3.55    5.32
  -5  15   2    5.80    5.45
   5  15  -2    9.47    6.68
  -4  15   2    2.27    4.82
   4  15  -2    1.52    5.64
  -3  15   2   86.70   10.10
   3  15  -2   83.73   11.21
  -3  15   2   76.71    8.88
   2  15  -2   42.30    6.24
  -2  15   2   44.03    7.03
  -2  15   2   60.22    9.49
   2  15  -2   49.76    9.99
  -1  15   2   31.75    5.43
  -1  15   2   30.59    7.55
   1  15  -2   24.22    5.02
   1  15  -2   25.87    7.90
   0  15  -2   98.05    8.62
   0  15   2   94.66   10.65
   0  15  -2  112.52   11.99
   1 -15   2   46.65    6.93
  -1  15  -2   52.41    7.70
   1  15   2   53.04    9.33
   2 -15   2  164.17   11.19
   2  15   2  184.75   15.03
  -2  15  -2  180.98   13.02
   3  15   2  183.22   15.71
   3 -15   2  171.15   11.34
  -3  15  -2  159.06   13.28
   4  15   2   36.31    9.37
  -4  15  -2   25.09    7.98
   4 -15   2   18.97    5.44
   5  15   2   22.93    8.54
   5 -15   2   16.81    5.69
  -5  15  -2   22.76    7.96
   6  15   2   38.16   10.15
  -6  16   2   16.24    7.04
   6  16  -2    1.20    5.56
   5  16  -2   -3.00    6.00
  -5  16   2   13.07    6.56
   4  16  -2    1.65    6.15
  -4  16   2    3.69    5.28
  -3  16   2   21.91    6.13
   3  16  -2   19.94    7.65
   2  16  -2   98.62   12.37
  -2  16   2   85.97   10.29
  -2  16   2   92.69    8.87
   1  16  -2   88.42   11.65
   1  16  -2   68.58    8.00
  -1  16   2   99.82   11.10
   0  16  -2   18.66    7.64
   0  16   2   26.21    7.26
   0  16  -2   34.43    6.44
   1  16   2   36.12    8.63
  -1  16  -2   28.74    6.54
   2  16   2   41.92    9.00
   2 -16   2   46.96    7.15
  -2  16  -2   42.40    7.95
   3  16   2  115.65   13.42
   3 -16   2  142.99   10.56
  -3  16  -2  141.74   12.40
   4  16   2   88.99   12.17
  -4  16  -2  104.71   12.27
   4 -16   2   84.55    8.82
   5  16   2   20.18    8.71
  -5  16  -2   14.43    7.40
  -6  17   2   -9.29    5.42
   5  17  -2   60.23   11.95
  -5  17   2   61.98   10.63
   4  17  -2   30.47    9.48
  -4  17   2   47.42    9.11
  -3  17   2    9.00    5.36
   3  17  -2   33.94    9.22
  -2  17   2   67.78   10.64
   2  17  -2   50.44   10.83
   1  17  -2   69.46   12.10
  -1  17   2   63.24   10.35
   1  17  -2   50.65    7.47
   0  17  -2   34.45    6.60
   0  17  -2   24.63    8.33
   0  17   2   40.18    8.94
  -1  17  -2    8.08    4.98
   1  17   2    7.12    6.00
   2  17   2   21.74    7.88
  -2  17  -2    4.34    5.01
   2 -17   2    9.20    4.86
   3  17   2   11.10    6.65
   3 -17   2    3.94    4.47
  -3  17  -2   10.69    5.26
   4 -17   2    5.03    4.63
  -4  17  -2    2.93    5.68
   4  17   2    1.71    6.29
   5  18  -2    8.89    7.49
  -5  18   2    0.08    5.99
  -4  18   2    7.47    5.52
   4  18  -2   -1.24    6.63
  -3  18   2    0.94    4.75
   3  18  -2   -5.06    6.11
  -2  18   2   11.30    6.40
   2  18  -2    5.29    7.45
   1  18  -2   22.77    8.54
  -1  18   2   34.00    8.76
   0  18  -2   38.72    7.43
   0  18   2   37.70    9.01
  -1  18  -2   17.12    6.09
   1  18   2   21.47    7.63
  -2  18  -2   55.01    9.29
   2  18   2   70.25   12.25
  -3  18  -2   88.09   11.24
   3  18   2  106.05   13.63
   3 -18   2   98.32    9.87
  -4  18  -2  136.29   13.93
  -4  19   2   20.91    6.91
   4  19  -2   17.99    9.37
   3  19  -2   -3.42    7.70
   2  19  -2   36.44   10.39
   1  19  -2  193.65   18.72
  -1  19   2  167.66   16.24
   0  19  -2  136.95   11.81
   0  19   2  174.44   16.21
  -1  19  -2   81.05    9.61
   1  19   2   85.70   13.92
   2  19   2   67.13   12.19
  -2  19  -2   45.12    8.74
  -3  19  -2   62.10   10.68
   3  20  -2   53.50   12.59
   2  20  -2  168.85   18.83
   1  20  -2  230.39   20.79
  -1  20   2  216.08   19.12
   0  20   2   54.72   11.80
  -1  20  -2   23.66    6.85
   1  20   2   27.27    8.81
  -2  20  -2    6.80    6.03
  -1  21   2   35.09    9.77
   0  21   2    1.41    7.18
 -10   0   3   -1.62    5.05
  -9   0   3    5.49    5.36
  -8   0   3    1.76    4.90
  -7   0   3   -0.93    3.95
   7   0  -3    0.00    3.96
  -6   0   3   -1.33    3.60
  -5   0   3   -1.61    2.19
  -4   0   3   -0.34    2.07
  -3   0   3    0.13    1.79
  -2   0   3    0.09    1.40
  -2   0   3    1.06    0.78
   1   0  -3    1.64    1.20
   0   0  -3   -2.22    1.05
  -1   0  -3    0.32    1.06
   1   0   3    1.27    1.18
   2   0   3   -0.70    1.46
  -2   0  -3    1.46    1.37
   2   0   3    0.05    1.70
   3   0   3    2.08    2.31
  -3   0  -3   -0.62    1.49
   3   0   3    0.91    1.86
   4   0   3    0.58    2.37
   4   0   3   -2.40    2.53
  -4   0  -3    0.66    2.26
   5   0   3   -3.72    3.20
  -5   0  -3   -1.87    2.74
   6   0   3    3.40    4.48
   7   0   3    3.51    5.81
   8   0   3   -5.45    5.95
 -10   1   3    6.65    6.05
  -9  -1   3    7.91    5.78
  -9   1   3    2.43    5.36
   8   1  -3    4.59    5.14
  -8  -1   3    8.48    5.32
  -8   1   3   -2.34    4.83
  -7   1   3   72.87    9.71
  -7  -1   3   80.79    9.94
   7   1  -3   71.40    7.48
   7   1  -3   72.04    8.50
   6   1  -3   38.30    5.73
  -6  -1   3   43.20    7.20
   6   1  -3   43.82    6.75
  -6   1   3   32.36    6.78
  -5  -1   3   78.03    7.03
  -5   1   3   89.17    8.43
   5   1  -3   88.47    7.03
   5   1  -3   79.46    7.03
  -4   1   3 1711.61   55.55
  -4  -1   3 1690.07   54.93
   4   1  -3 1716.64   55.25
  -3   1   3 7058.57  211.69
   3   1  -3 7195.16  214.29
  -3  -1   3 7279.83  211.02
  -2   1   3 6804.10  196.25
  -2  -1   3 6302.17  195.81
  -2  -1   3 6851.72  176.10
  -2  -1   3 6807.72  196.26
  -1  -1   3    6.30    1.48
  -1   1   3    4.74    1.76
   1   1  -3    3.83    1.62
  -1   1   3    0.63    1.54
   0  -1  -3    7.46    1.52
   0   1  -3    6.73    1.63
   1  -1   3 1578.08   48.54
  -1   1  -3 1571.68   47.93
   1   1   3 1586.06   48.62
  -1  -1  -3 1527.69   47.06
  -2   1  -3 3082.98   94.51
   2  -1   3 3116.88   95.58
   2  -1   3 3186.87   94.35
  -2  -1  -3 3158.83   93.41
   2   1   3 3204.46   95.57
   2   1   3 3161.19   95.51
   3  -1   3  420.53   17.95
   3  -1   3  417.92   15.08
  -3   1  -3  443.01   17.19
   3   1   3  437.51   16.45
  -3  -1  -3  426.29   15.95
   3   1   3  440.16   18.08
   4   1   3   76.76    6.09
   4  -1   3   66.28    7.17
  -4   1  -3   67.52    6.70
  -4  -1  -3   68.54    5.70
   4   1   3   78.68    7.62
  -5   1  -3   -1.39    3.14
   5  -1   3    0.36    3.90
  -5  -1  -3   -1.19    2.60
   5   1   3   -1.36    3.90
  -6   1  -3    3.88    4.46
   6   1   3   -0.47    4.43
   6  -1   3    5.52    5.19
   7  -1   3    7.05    5.93
   7   1   3   12.12    6.75
   8   1   3   30.18    8.90
   8  -1   3   33.74    8.61
 -10   2   3   11.53    6.65
  -9   2   3   42.71    9.01
   9   2  -3   32.87    8.52
  -9  -2   3   29.32    7.92
   8   2  -3  332.09   17.98
   8   2  -3  366.54   20.11
  -8  -2   3  351.07   20.48
  -8   2   3  372.63   21.36
   7   2  -3  324.99   16.79
  -7  -2   3  309.87   18.38
  -7   2   3  333.69   19.60
   7   2  -3  361.67   18.46
   6   2  -3   75.84    7.70
  -6   2   3   74.36    9.23
   6   2  -3   85.18    7.68
  -6  -2   3  107.92    9.35
   5   2  -3   40.92    5.01
  -5   2   3   41.03    6.92
   5   2  -3   28.10    4.89
  -5  -2   3   44.24    5.68
  -4  -2   3    1.82    1.99
   4   2  -3    3.72    2.44
  -4   2   3    1.00    2.22
  -3   2   3  684.29   24.49
   3   2  -3  657.50   24.11
  -3  -2   3  675.18   23.57
   2   2  -3    2.39    1.84
  -2  -2   3   -0.16    1.18
  -2   2   3    3.00    1.71
  -2  -2   3   -0.26    1.23
  -2  -2   3    1.14    1.13
  -1  -2   3   41.68    2.88
   1   2  -3   46.75    3.67
   1   2  -3   44.84    3.35
  -1   2   3   46.55    3.42
   0   2   3  495.86   16.53
   0   2   3  507.16   17.95
   0   2   3  508.48   16.53
   0   2  -3  508.52   17.47
   0  -2   3  533.96   17.02
  -1   2  -3  704.95   22.96
  -1  -2  -3  677.96   21.22
   1  -2   3  667.66   22.96
   1   2   3  669.58   23.10
   2   2   3 1169.64   37.72
   2  -2   3 1147.74   35.41
  -2  -2  -3 1155.47   35.32
   2   2   3 1167.25   38.05
   2  -2   3 1148.42   38.08
  -2   2  -3 1137.87   37.48
   3  -2   3  462.75   19.68
   3  -2   3  487.31   15.79
   3   2   3  474.45   18.45
   3   2   3  481.11   19.41
  -3  -2  -3  486.81   16.86
  -3   2  -3  469.08   18.90
   4   2   3    5.11    3.24
   4   2   3   -0.52    3.20
  -4   2  -3   -1.63    2.36
   4  -2   3    1.14    3.44
  -4  -2  -3    1.54    1.95
  -5   2  -3   67.25    8.15
   5  -2   3   57.60    8.72
   5   2   3   74.52    8.60
  -6   2  -3   42.65    8.49
   6  -2   3   41.01    8.28
   6   2   3   34.44    7.46
   7   2   3   37.56    8.51
   7  -2   3   22.99    7.36
   8   2   3   -7.52    5.47
   8  -2   3    5.62    5.87
 -10   3   3    8.54    6.48
  -9  -3   3    4.62    5.80
  -9   3   3    2.89    5.03
  -8   3   3   21.08    7.06
   8   3  -3   30.04    6.85
   8   3  -3   26.07    7.24
  -8  -3   3   23.06    6.95
  -7  -3   3  105.77   10.58
   7   3  -3   99.49    9.17
   7   3  -3  111.08    9.79
  -7   3   3   97.80   10.47
   6   3  -3   26.35    5.43
   6   3  -3   26.03    5.33
  -6   3   3   27.46    6.49
  -6  -3   3   18.92    4.99
   5   3  -3   80.64    6.78
  -5  -3   3   73.93    6.79
  -5   3   3   87.55    8.95
   5   3  -3   83.06    7.15
   4   3  -3  190.46   10.47
   4   3  -3  182.34    8.96
  -4   3   3  169.00   10.93
  -4  -3   3  171.06    9.48
  -3  -3   3 1919.51   59.43
   3   3  -3 1892.47   61.07
  -3   3   3 1898.60   60.98
  -3  -3   3 1925.36   59.33
   2   3  -3  892.42   28.49
  -2   3   3  874.87   29.24
   2   3  -3  839.72   29.48
  -2  -3   3  867.41   25.49
  -1   3   3  425.73   15.18
  -1  -3   3  419.36   13.70
   1   3  -3  429.01   15.36
   1   3  -3  442.36   15.79
   0  -3   3  653.50   20.86
   0   3   3  653.50   20.35
   0   3   3  634.83   22.27
   0  -3   3  616.55   19.59
   0   3  -3  651.30   21.75
   1   3   3 3152.89   95.00
  -1  -3  -3 3124.90   91.00
  -1   3  -3 3066.97   93.42
   1  -3   3 3108.17   93.26
  -2  -3  -3 1701.82   50.66
   2  -3   3 1707.27   54.28
  -2   3  -3 1652.51   53.83
   2  -3   3 1739.92   51.17
   2   3   3 1719.56   54.57
   3   3   3  309.10   15.08
  -3   3  -3  354.19   15.64
   3  -3   3  355.04   16.12
  -3  -3  -3  377.72   12.53
   3   3   3  334.19   14.97
   4  -3   3   29.15    6.06
  -4   3  -3   44.96    6.83
   4   3   3   26.25    5.46
   4   3   3   36.72    5.63
   5   3   3    0.41    3.18
   5   3   3    0.83    3.70
  -5   3  -3    0.45    3.76
   5  -3   3   -1.41    3.61
   6   3   3   33.52    7.37
  -6   3  -3   55.20    9.35
   6  -3   3   35.42    7.72
   7  -3   3    4.31    6.01
  -7   3  -3    3.95    6.69
   7   3   3    0.54    5.48
   8   3   3   -1.10    5.93
   8  -3   3   -2.28    5.98
 -10   4   3   25.93    8.03
  -9   4   3    1.32    5.44
  -8  -4   3  227.31   15.96
   8   4  -3  222.19   15.20
  -8   4   3  230.49   16.91
   8   4  -3  222.74   14.59
   7   4  -3  377.47   18.47
   7   4  -3  301.94   16.88
  -7   4   3  294.80   18.88
  -7  -4   3  322.81   18.03
   6   4  -3   38.96    6.23
  -6   4   3   25.89    6.64
  -6  -4   3   30.94    5.66
   6   4  -3   37.19    6.20
   5   4  -3  103.47    8.50
  -5   4   3  113.46    9.82
   5   4  -3   98.62    7.64
  -5  -4   3  117.71    8.06
   4   4  -3  599.37   21.48
   4   4  -3  605.04   24.22
  -4   4   3  616.03   25.47
  -4  -4   3  637.69   22.93
  -3  -4   3 1341.69   42.98
  -3  -4   3 1335.77   42.87
  -3   4   3 1383.73   45.46
   3   4  -3 1306.37   44.81
  -2   4   3 1504.04   48.64
   2   4  -3 1498.59   49.13
   2   4  -3 1540.28   47.28
  -1  -4   3  300.32   10.59
   1   4  -3  291.92   12.02
  -1   4   3  283.14   11.52
  -1   4   3  274.55   12.03
   1   4  -3  305.07   11.66
  -1  -4   3  294.18    9.51
   0   4   3   58.40    4.70
   0   4  -3   53.33    3.80
   0   4   3   58.82    3.45
   0  -4   3   49.72    3.69
   0  -4   3   51.37    3.63
   0   4  -3   50.59    3.99
   1   4   3 1783.69   56.98
   1   4   3 1794.78   52.96
   1  -4   3 1801.84   55.65
  -1   4  -3 1816.17   56.15
  -2   4  -3 1899.99   61.28
   2  -4   3 1954.16   61.40
   2   4   3 1979.34   62.31
   3  -4   3 1164.97   42.20
   3   4   3 1277.97   42.40
   3   4   3 1234.30   41.77
  -3  -4  -3 1257.76   37.33
  -3   4  -3 1245.82   42.48
   4   4   3  305.32   15.48
  -4   4  -3  290.12   16.07
   4  -4   3  329.03   16.38
   4   4   3  312.71   15.18
   5   4   3  216.24   13.03
  -5   4  -3  250.39   16.08
   5  -4   3  264.81   15.70
   5   4   3  245.61   14.56
   6   4   3  300.68   18.21
  -6   4  -3  351.01   20.58
   6  -4   3  299.31   18.40
  -7   4  -3  110.10   13.33
   7   4   3  108.78   12.05
   7  -4   3  122.49   12.89
   8   4   3    3.54    6.63
   8  -4   3    5.21    7.18
  -9   5   3   47.45    9.13
   9   5  -3   26.77    7.85
  -8   5   3  251.17   17.86
   8   5  -3  251.97   15.95
  -8  -5   3  257.41   17.27
  -7   5   3  396.20   22.08
   7   5  -3  390.14   19.28
   7   5  -3  372.72   19.33
  -7  -5   3  371.62   19.68
  -6  -5   3  481.77   21.13
  -6   5   3  469.47   23.82
   6   5  -3  479.99   21.98
   6   5  -3  498.57   20.95
  -5  -5   3   96.91    7.55
   5   5  -3  127.58    8.03
  -5   5   3   97.01    9.68
   5   5  -3   90.12    8.29
   4   5  -3    7.36    3.54
  -4   5   3   20.78    5.29
   4  -5  -3   14.41    1.59
  -4  -5   3   15.90    3.38
   4   5  -3   23.43    3.39
  -3  -5   3   25.29    3.44
   3   5  -3   37.49    5.41
  -3  -5   3   26.94    3.30
  -3   5   3   24.83    4.94
   2   5  -3   50.58    5.20
  -2   5   3   37.98    5.01
   2   5  -3   47.77    4.01
  -2   5   3   48.54    4.29
   1   5  -3   50.36    4.60
  -1   5   3   60.72    4.91
  -1  -5   3   54.64    3.96
   1   5  -3   47.96    4.04
  -1   5   3   49.44    4.63
   0  -5   3  226.98    9.17
   0   5   3  213.09   10.32
   0   5  -3  220.17    9.36
   0   5  -3  200.44    9.57
   0  -5   3  231.43    8.91
   0   5   3  218.81    8.82
   1  -5   3  149.07    7.78
  -1   5  -3  134.92    7.70
  -1   5  -3  140.96    6.16
   1   5   3  134.44    8.20
  -2   5  -3    5.27    2.66
   2  -5   3    7.28    3.11
   2   5   3    5.41    3.17
   3   5   3  221.04   12.15
  -3   5  -3  226.86   12.50
   3  -5   3  208.77   12.33
   4   5   3   22.78    5.56
   4  -5   3   29.27    6.22
   4   5   3   32.18    5.77
  -4   5  -3   40.53    6.77
   5   5   3   67.75    7.92
   5  -5   3   60.49    8.10
  -5   5  -3   83.62    9.97
   5   5   3   79.61    7.97
  -6   5  -3  289.80   19.86
   6   5   3  336.15   18.88
   6  -5   3  313.88   19.23
  -7   5  -3  443.60   25.31
   7  -5   3  379.80   23.15
   7   5   3  387.42   22.54
   8   5   3  118.94   13.66
   8  -5   3  105.20   13.80
   9   6  -3   20.51    6.84
  -9   6   3   24.31    6.96
   8   6  -3  160.03   12.85
  -8   6   3  154.15   14.03
  -7   6   3  297.98   18.92
  -7  -6   3  290.14   16.27
   7   6  -3  281.72   16.67
   6   6  -3  103.30    9.46
  -6  -6   3  100.60    8.24
  -6   6   3   85.99    9.65
   5   6  -3   10.30    4.08
   5   6  -3   23.84    4.22
  -5  -6   3   12.20    3.82
  -5   6   3   18.12    5.77
   4   6  -3    5.33    2.12
   4   6  -3    4.78    3.34
  -4   6   3    5.57    4.12
   4  -6  -3    2.76    1.24
  -4  -6   3    5.49    2.64
  -4  -6   3    4.15    2.41
   3   6  -3  119.48    7.12
  -3   6   3  138.43    9.50
   3   6  -3  117.77    8.67
  -2   6   3  538.48   21.39
   2   6  -3  531.50   21.51
   2   6  -3  568.64   19.74
  -2   6   3  536.49   20.46
  -1  -6   3  590.36   19.56
  -1   6   3  574.93   21.38
   1   6  -3  587.26   22.23
  -1   6   3  600.32   22.19
   1   6  -3  636.80   21.53
   0   6   3  677.82   25.28
   0   6   3  682.86   22.61
   0   6  -3  692.16   24.03
   0  -6   3  717.60   22.35
   0   6  -3  706.61   24.43
   0  -6   3  694.03   22.64
  -1   6  -3  141.47    8.36
   1  -6   3  139.06    7.39
  -1   6  -3  156.43    6.78
   1  -6   3  158.72    8.11
   1   6   3  146.88    9.15
   2  -6   3  166.04    9.66
  -2   6  -3  176.50    9.97
   2   6   3  161.84   10.31
   3   6   3    1.97    3.64
   3  -6   3    4.95    3.61
  -3   6  -3   -1.78    2.23
   4   6   3  186.90   11.54
   4  -6   3  182.32   12.25
  -4   6  -3  179.51   12.63
   4   6   3  158.70   11.18
   5   6   3   13.67    5.31
   5   6   3   15.14    5.07
   5  -6   3   14.23    5.79
  -5   6  -3   19.22    6.25
  -6   6  -3    5.91    6.26
   6  -6   3    1.24    5.18
   6   6   3   11.11    5.57
   7  -6   3    2.98    6.38
  -7   6  -3    4.10    6.31
   7   6   3    2.39    6.38
  -8   6  -3   17.87    9.22
   8   6   3   27.45    9.25
   8  -6   3   38.85   10.35
  -9   7   3   52.95   10.21
   9   7  -3   55.20    9.60
  -8   7   3   32.40    8.07
   8   7  -3   24.31    6.96
  -7   7   3    8.34    4.99
   7   7  -3    6.43    5.14
  -7  -7   3    8.44    4.81
   6   7  -3   19.65    5.44
  -6   7   3    9.29    5.49
  -6  -7   3   13.50    3.94
  -5   7   3  268.88   16.43
   5   7  -3  233.68   14.02
  -5  -7   3  235.40   12.19
  -4   7   3  488.27   22.19
  -4  -7   3  487.94   18.62
   4   7  -3  473.22   21.04
  -4  -7   3  437.58   18.07
  -4   7   3  443.78   18.51
   3   7  -3  906.48   30.82
  -3   7   3  900.22   33.94
  -3   7   3  925.89   32.02
   3   7  -3  926.14   34.24
   2   7  -3   51.92    5.68
  -2   7   3   57.50    5.43
  -2   7   3   53.92    5.96
   2   7  -3   45.78    4.33
  -1   7   3    9.60    3.01
   1   7  -3   11.80    2.72
  -1   7   3   10.78    3.06
   1   7  -3   19.36    3.82
  -1  -7   3    9.95    2.62
   0   7  -3  379.38   15.86
   0   7   3  402.52   13.94
   0  -7   3  394.57   14.62
   0   7  -3  395.27   15.83
   0   7   3  401.82   17.02
  -1   7  -3  685.95   23.42
   1   7   3  700.56   26.70
   1  -7   3  661.93   22.83
  -1   7  -3  722.42   25.72
   1  -7   3  713.52   24.39
   2  -7   3  343.90   15.14
   2   7   3  337.00   16.26
   2  -7   3  318.81   13.57
   3   7   3  344.61   17.25
   3  -7   3  348.47   17.00
  -3   7  -3  374.41   17.75
  -4   7  -3  206.36   13.91
   4   7   3  226.88   13.00
   4   7   3  229.83   13.61
   4  -7   3  171.25   12.88
  -5   7  -3  168.90   13.59
   5   7   3  127.95   10.83
   5   7   3  124.73   10.97
   5  -7   3  118.95   11.45
  -6   7  -3   93.68   13.51
   6   7   3  120.02   11.35
   6  -7   3  119.47   12.64
   6   7   3  127.05   11.28
  -7   7  -3   69.06   12.65
   7  -7   3  102.61   12.39
   7   7   3   84.73   12.18
  -8   7  -3   39.96   11.13
   8   7   3   48.72   11.07
  -9   8   3  169.82   16.22
   9   8  -3  183.38   14.76
  -8   8   3   62.67   11.06
   8   8  -3   52.62    9.43
   7   8  -3    1.42    4.67
  -7   8   3    8.37    4.89
  -6   8   3   13.41    6.39
   6   8  -3    9.68    4.96
  -6  -8   3   17.69    4.34
  -5   8   3   -2.32    2.41
  -5  -8   3    8.97    3.69
  -5   8   3    0.22    4.56
   5   8  -3    2.90    3.96
  -4  -8   3  200.58   10.55
  -4   8   3  205.65   11.08
   4   8  -3  204.58   13.17
  -4   8   3  236.22   14.48
  -4  -8   3  204.86   10.49
   3   8  -3  350.58   16.97
  -3   8   3  322.35   14.95
   3   8  -3  337.41   13.96
  -3   8   3  314.23   16.46
  -2   8   3  203.09   10.90
   2   8  -3  196.41   11.72
  -2   8   3  206.08   11.32
   2   8  -3  201.58    9.92
   1   8  -3  161.15    8.90
  -1   8   3  166.70    8.86
  -1   8   3  169.01    9.88
   1   8  -3  180.29   10.33
  -1  -8   3  187.28    9.16
   0  -8   3  377.80   14.91
   0   8  -3  399.70   16.39
   0   8   3  398.79   13.91
   0   8  -3  399.92   16.52
   0   8   3  368.37   17.06
   1  -8   3  306.98   12.38
  -1   8  -3  248.22   12.90
  -1   8  -3  303.81   11.92
   1  -8   3  255.15   11.71
   1   8   3  248.00   14.00
   2   8   3    7.12    3.81
   2  -8   3   -0.17    2.49
  -2   8  -3    0.96    2.56
   2  -8   3    0.63    2.34
   3  -8   3    0.11    3.46
  -3   8  -3    0.71    3.29
   3  -8   3    0.38    2.44
   3   8   3    6.09    4.32
  -4   8  -3   57.11    8.99
   4   8   3   69.44    8.21
   4  -8   3   53.24    8.08
   4   8   3   49.71    7.23
  -5   8  -3  114.34   11.79
   5   8   3  133.82   10.97
   5  -8   3  130.80   12.13
   5   8   3  147.55   12.16
   6  -8   3  248.80   17.41
   6   8   3  252.22   16.17
   6   8   3  258.87   16.37
  -6   8  -3  210.73   17.67
   7  -8   3   35.34    8.87
   7   8   3   24.01    8.14
  -7   8  -3   40.21   10.22
   8   8   3   22.52    8.87
  -8   8  -3   31.03   10.80
   9   9  -3  105.34   11.81
  -9   9   3   80.35   12.71
  -8   9   3   90.76   11.81
   8   9  -3   74.84   10.13
   7   9  -3   75.87    9.54
  -7   9   3   53.29   10.16
   6   9  -3  119.23   11.16
  -6   9   3  126.38   12.13
  -6  -9   3  141.99    9.58
  -5   9   3  647.62   26.43
  -5  -9   3  706.84   26.37
   5   9  -3  696.01   30.06
  -5   9   3  762.66   31.46
   4   9  -3  119.51    9.96
  -4  -9   3  128.33    8.02
  -4   9   3   99.39   10.03
  -4   9   3  124.59    8.65
  -4  -9   3  119.76    7.88
  -3   9   3   -0.06    2.63
   3   9  -3    2.24    2.27
   3   9  -3    1.15    3.21
  -3   9   3   -0.94    3.19
  -2   9   3  173.15   10.09
  -2   9   3  178.56   10.41
   2   9  -3  145.44    8.59
   2   9  -3  151.20   10.64
  -1  -9   3  118.56    7.17
   1   9  -3  130.90    9.16
  -1   9   3   92.66    7.71
   1   9  -3  107.02    7.25
  -1   9   3  105.82    6.96
   0   9  -3  368.41   16.41
   0   9   3  374.30   17.51
   0  -9   3  389.20   14.94
   0   9   3  395.22   13.61
   0   9  -3  324.12   15.60
  -1   9  -3 1030.50   36.23
   1  -9   3 1047.15   32.64
   1   9   3  977.46   37.72
  -1   9  -3 1049.79   34.80
   2  -9   3  391.20   16.77
   2   9   3  353.68   18.47
  -2   9  -3  390.76   18.02
   2  -9   3  361.16   15.29
   3  -9   3    0.34    2.85
   3   9   3    2.12    3.42
  -3   9  -3   12.11    4.37
   3  -9   3    0.05    3.73
  -4   9  -3   85.98    9.82
   4   9   3   67.62    8.84
   4   9   3   73.35    8.00
   4  -9   3   73.90    8.88
   4  -9   3   77.45    7.23
   5  -9   3   90.08   10.50
   5   9   3  106.61   10.64
   5   9   3  102.68    9.89
  -5   9  -3   89.97   11.18
   5  -9   3   83.28    7.96
   6   9   3   81.86   10.28
  -6   9  -3   90.22   13.61
   6  -9   3   81.37   11.89
   6   9   3   73.32    9.86
   7  -9   3  113.86   13.50
  -7   9  -3  130.62   15.80
   9  10  -3   25.60    8.04
   8  10  -3    5.53    5.72
  -8  10   3   12.98    6.52
   7  10  -3   -0.97    4.22
  -7  10   3    7.05    5.76
   6  10  -3   10.10    5.72
  -6  10   3   15.18    6.26
   5  10  -3  252.14   16.57
  -5  10   3  286.94   14.39
  -5 -10   3  275.97   13.70
  -5  10   3  288.96   17.62
   4  10  -3  567.50   25.80
  -4  10   3  546.54   23.01
  -4 -10   3  573.40   21.81
  -4  10   3  548.63   25.21
  -4 -10   3  571.94   21.81
   3  10  -3  464.80   18.40
  -3  10   3  453.61   20.88
   3  10  -3  467.92   22.41
  -3  10   3  467.38   20.28
  -2  10   3  675.32   26.55
   2  10  -3  690.79   24.74
   2  10  -3  642.07   28.10
  -2  10   3  673.76   25.82
  -1  10   3  428.83   19.46
   1  10  -3  427.93   17.69
   1  10  -3  462.48   20.71
  -1  10   3  426.32   17.03
  -1 -10   3  412.23   17.02
   0 -10   3   28.47    4.45
   0  10   3   37.67    3.77
   0  10  -3   39.75    5.35
   0  10   3   40.92    6.53
   0  10  -3   33.85    5.75
  -1  10  -3  120.82    8.22
   1  10   3  117.94    9.85
  -1  10  -3   96.59    8.34
   1 -10   3  117.42    7.79
  -2  10  -3  598.24   25.27
   2  10   3  593.40   26.47
   2 -10   3  626.45   22.45
   3 -10   3  637.86   25.78
   3  10   3  588.39   27.16
  -3  10  -3  642.25   27.37
   3 -10   3  577.75   22.71
   4 -10   3  774.09   31.70
   4 -10   3  734.43   27.67
   4  10   3  787.95   33.23
   4  10   3  772.45   30.41
  -4  10  -3  785.28   33.85
   5  10   3  271.23   17.61
   5 -10   3  252.16   13.91
   5  10   3  277.30   16.12
  -5  10  -3  243.63   18.17
   5 -10   3  282.89   17.40
   6 -10   3   48.79    7.58
   6  10   3   64.57   10.41
   6 -10   3   59.47   10.68
  -6  10  -3   64.12   11.85
   6  10   3   55.36    9.32
   7  10   3   37.73    9.27
  -7  10  -3   24.25    9.38
   7 -10   3   19.55    5.79
   7 -10   3   14.41    7.69
   8  11  -3   -9.50    4.99
  -8  11   3   -0.49    5.51
   7  11  -3   79.82   10.43
  -7  11   3   67.02   11.55
   6  11  -3  104.02   11.16
  -6  11   3  103.09   11.57
  -5  11   3   -1.88    4.54
  -5 -11   3    0.68    2.80
  -5 -11   3    0.52    2.79
   5  11  -3    4.07    4.77
  -4  11   3  107.75   10.12
  -4 -11   3   96.28    7.41
   4  11  -3   91.37    9.54
  -4 -11   3  100.78    7.26
  -4  11   3   78.68    7.69
   3  11  -3   -1.55    2.59
   3  11  -3   -0.94    3.37
  -3  11   3    0.11    2.95
  -3  11   3   -6.58    2.81
   2  11  -3   44.66    7.55
  -2  11   3   40.45    6.04
   2  11  -3   24.61    4.66
  -2  11   3   24.64    5.51
   1  11  -3  410.14   20.39
  -1 -11   3  405.33   17.33
  -1  11   3  416.43   16.94
  -1  11   3  430.52   19.96
   1  11  -3  413.54   17.61
   0  11  -3  839.69   33.26
   0  11   3  855.28   34.18
   0  11  -3  847.73   31.49
   0 -11   3  894.82   29.48
   0  11   3  891.75   28.48
   1  11   3  306.74   17.22
  -1  11  -3  331.19   15.25
   1 -11   3  322.05   14.41
  -1  11  -3  321.43   15.99
  -2  11  -3  234.58   13.84
   2 -11   3  220.45   11.55
   2  11   3  211.34   14.43
   3  11   3  935.75   37.66
   3 -11   3  910.58   31.47
  -3  11  -3  892.99   36.49
   4  11   3  680.67   32.26
   4 -11   3  710.80   27.23
   4  11   3  755.11   29.64
  -4  11  -3  789.57   33.59
   5  11   3   38.33    7.52
   5 -11   3   37.95    6.48
   5  11   3   31.58    8.24
  -5  11  -3   41.60    9.17
   6  11   3   49.18    9.71
  -6  11  -3   24.43    9.41
   6  11   3   40.80    8.99
   6 -11   3   41.82    7.14
  -7  11  -3   19.42    9.85
   7 -11   3   18.94    5.75
   7  11   3   15.59    7.46
  -8  12   3   48.17   10.44
   8  12  -3   45.22    9.46
   7  12  -3   95.36   11.38
  -7  12   3   82.56   12.52
  -6  12   3   96.57   11.68
   6  12  -3  107.80   11.77
  -5  12   3   18.75    6.63
   5  12  -3   34.77    7.61
  -4  12   3   22.82    6.32
  -4  12   3   24.96    5.46
   4  12  -3   29.49    7.00
   4  12  -3   20.07    4.44
  -3  12   3   50.19    6.87
   3  12  -3   30.12    7.21
   3  12  -3   34.30    5.17
  -3  12   3   28.73    5.85
  -2  12   3  412.62   19.72
  -2  12   3  466.77   21.76
   2  12  -3  510.01   19.69
   2  12  -3  485.42   23.97
  -1  12   3  769.67   27.48
   1  12  -3  796.47   28.68
   1  12  -3  772.19   32.51
  -1  12   3  720.79   31.11
   0  12   3  381.21   20.05
   0 -12   3  401.81   17.08
   0  12  -3  386.64   19.65
   0  12  -3  401.04   17.94
  -1  12  -3    3.83    3.19
   1 -12   3    0.49    2.60
   1  12   3    5.94    4.35
   2  12   3   81.99    9.13
  -2  12  -3   59.98    7.89
   2 -12   3   76.22    6.89
  -3  12  -3  115.52   11.21
   3 -12   3  124.92    9.15
   3  12   3   90.69   10.90
   4  12   3    1.07    5.00
   4 -12   3   11.05    4.43
  -4  12  -3   15.67    5.70
  -5  12  -3   20.33    7.29
   5 -12   3   14.51    5.08
   5  12   3   15.79    6.18
   5  12   3   14.86    7.05
   6  12   3   36.88    9.13
  -6  12  -3   24.19    8.59
   6  12   3   30.38    8.10
   6 -12   3   32.33    7.04
   8  13  -3   -3.12    6.23
   7  13  -3   -1.60    5.72
  -7  13   3    2.84    5.60
   6  13  -3  172.73   14.85
  -6  13   3  218.57   16.43
  -5  13   3  546.18   26.99
   5  13  -3  554.70   27.81
  -4  13   3  541.28   24.51
  -4  13   3  528.18   25.14
   4  13  -3  568.34   27.73
   4  13  -3  518.22   21.41
  -3  13   3  256.02   15.46
   3  13  -3  229.73   16.51
   3  13  -3  245.45   12.67
  -3  13   3  270.94   15.40
   2  13  -3  269.22   17.76
   2  13  -3  269.83   13.64
  -2  13   3  287.70   14.35
  -2  13   3  264.79   16.08
  -1  13   3  425.45   21.48
   1  13  -3  407.43   18.33
   1  13  -3  398.13   21.87
  -1  13   3  423.41   17.48
   0  13   3   25.69    6.49
   0 -13   3   24.66    5.18
   0  13  -3   23.99    5.22
   0  13  -3   16.66    5.45
   1  13   3   77.55    8.98
  -1  13  -3   57.46    8.15
   1 -13   3   71.70    6.86
   2 -13   3   30.23    5.65
  -2  13  -3   12.29    4.74
   2  13   3   20.09    6.96
   3  13   3   -1.55    4.41
  -3  13  -3    6.14    4.76
   3 -13   3    0.27    3.49
  -4  13  -3   37.02    8.02
   4 -13   3   31.32    6.08
   4  13   3   32.55    8.21
   5  13   3    9.11    6.90
   5 -13   3   -5.69    3.97
  -5  13  -3   -2.84    5.01
   5  13   3    2.03    5.58
   6  13   3   16.20    7.43
  -6  13  -3    0.68    5.80
   6 -13   3   12.77    5.57
  -7  14   3    0.21    5.97
   7  14  -3    7.25    6.40
  -6  14   3    5.00    5.35
   6  14  -3   -5.61    4.38
   5  14  -3   92.35   11.17
  -5  14   3   84.75   10.60
  -4  14   3  253.58   15.51
   4  14  -3  256.43   17.62
  -4  14   3  197.29   14.75
   3  14  -3   97.63   11.42
  -3  14   3   94.09   10.15
   3  14  -3  102.10    8.42
  -3  14   3   97.97    9.20
  -2  14   3    8.87    4.83
   2  14  -3    3.69    3.65
   2  14  -3    1.59    5.17
  -2  14   3    3.73    3.71
  -1  14   3   -0.38    4.14
   1  14  -3   -2.54    4.83
   1  14  -3    0.48    3.46
   0 -14   3  124.79    9.46
   0  14  -3  121.21    9.81
   0  14  -3  148.35   12.53
   0  14   3  147.73   12.51
   1 -14   3   28.82    5.51
  -1  14  -3   37.69    6.71
   1  14   3   39.07    7.90
   2 -14   3   -3.49    2.96
   2  14   3    3.22    4.50
  -2  14  -3    3.10    4.51
   3  14   3   90.15   11.24
   3 -14   3   90.87    8.60
  -3  14  -3   86.06   10.27
   4 -14   3   99.89    9.32
  -4  14  -3  109.60   12.36
   4  14   3  119.78   12.97
   5 -14   3   99.77    9.76
   5  14   3  110.66   12.72
  -5  14  -3  110.12   13.80
   6 -14   3   57.99    8.85
   6  14   3   60.84   11.22
  -7  15   3   -3.75    5.75
   7  15  -3   12.82    7.50
  -6  15   3   19.06    6.83
   6  15  -3    1.79    6.15
   5  15  -3   21.71    8.17
  -5  15   3   10.45    5.62
   4  15  -3    3.59    5.41
  -4  15   3   12.72    5.32
   3  15  -3   29.41    5.65
  -3  15   3   30.73    6.47
  -3  15   3   25.78    6.98
   3  15  -3   31.13    8.36
   2  15  -3  164.97   14.86
  -2  15   3  181.19   13.77
   2  15  -3  146.53   10.69
  -2  15   3  145.66   10.67
   1  15  -3  767.80   30.27
   1  15  -3  760.73   35.63
  -1  15   3  805.03   34.80
   0  15   3  832.28   36.77
   0  15  -3  816.38   36.12
   0  15  -3  862.92   32.91
   1  15   3  405.41   23.18
  -1  15  -3  425.00   20.75
   1 -15   3  411.04   19.12
   2 -15   3  133.18   10.30
  -2  15  -3  128.07   11.74
   2  15   3  179.27   14.79
   3  15   3   75.04   11.68
   3 -15   3   81.78    8.34
  -3  15  -3   75.20   10.94
   4 -15   3   80.35    8.87
  -4  15  -3   72.23   11.60
   4  15   3   62.26   11.57
   5  15   3    3.33    6.43
  -5  15  -3    1.56    6.50
   5 -15   3    4.74    4.84
   6  16  -3   24.07    8.50
  -6  16   3   18.49    7.28
  -5  16   3   16.76    6.42
   5  16  -3    3.25    6.35
  -4  16   3   23.43    6.64
   4  16  -3   19.43    7.77
  -3  16   3   47.03    7.81
   3  16  -3   47.32   10.10
  -3  16   3   32.54    7.91
   2  16  -3  165.30   15.77
  -2  16   3  180.33   14.70
   2  16  -3  192.73   12.18
   1  16  -3  126.56   10.32
   1  16  -3  135.65   13.87
  -1  16   3  133.75   13.00
   0  16   3   17.53    6.09
   0  16  -3   11.35    4.85
   1  16   3   24.80    6.92
   1 -16   3   17.05    5.16
  -1  16  -3   15.32    5.74
   2 -16   3   32.60    6.50
  -2  16  -3   17.10    6.29
   2  16   3   33.57    8.49
   3 -16   3   41.31    7.25
   3  16   3   34.28    9.66
  -3  16  -3   40.54    8.58
  -4  16  -3   34.86    8.54
   4  16   3   34.41    9.52
   4 -16   3   56.15    8.23
   5 -16   3   90.90    9.77
  -6  17   3   46.87    9.80
  -5  17   3   87.35   11.39
   5  17  -3  102.48   13.03
   4  17  -3   76.18   12.88
  -4  17   3   34.28    7.87
  -3  17   3   19.70    7.13
   3  17  -3    3.73    7.02
   2  17  -3   55.10    7.57
  -2  17   3   73.79   11.55
   2  17  -3   92.64   13.95
   1  17  -3  172.35   12.31
  -1  17   3  164.33   14.70
   1  17  -3  174.04   16.05
   0  17   3  148.21   14.08
   0  17  -3  120.85   10.85
  -1  17  -3   14.95    5.73
   1  17   3   19.77    7.24
  -2  17  -3   30.94    7.79
   2 -17   3   31.22    6.56
   2  17   3   41.40    9.65
   3 -17   3   20.24    6.19
   3  17   3    7.10    7.41
  -3  17  -3   11.61    6.50
   4 -17   3    5.75    4.87
  -4  17  -3   12.28    7.27
   4  17   3    5.17    7.41
  -5  18   3   56.70   10.29
  -4  18   3   14.42    6.54
   4  18  -3    2.18    6.09
   3  18  -3   12.04    7.76
  -2  18   3   -3.51    6.08
   2  18  -3   12.52    7.54
  -1  18   3   49.35    9.77
   1  18  -3   40.34    7.53
   1  18  -3   41.43   10.41
   0  18  -3   67.69    8.97
   0  18   3   81.78   11.15
   1  18   3   83.22   12.76
  -1  18  -3   54.44    9.09
  -2  18  -3   20.68    6.85
   2  18   3   15.32    7.89
   2 -18   3   21.02    5.84
   3  18   3   17.48    7.92
  -3  18  -3   19.18    7.26
   3 -18   3   26.63    6.68
   4 -18   3   64.37    9.23
   4  19  -3   13.70    7.73
   3  19  -3   -1.21    6.98
  -2  19   3    5.75    6.54
   2  19  -3   -7.16    6.89
  -1  19   3   14.80    7.32
   0  19  -3   39.50    8.05
   0  19   3   38.54    9.67
  -1  19  -3    9.11    5.74
   1  19   3   17.58    7.77
   2  19   3    3.95    6.63
  -2  19  -3   13.84    6.90
   3 -19   3    7.56    5.61
   3  20  -3   16.97    9.23
   2  20  -3    6.90    8.55
  -2  20   3    9.75    7.71
  -1  20   3   -4.00    6.90
   0  20   3   -3.50    6.09
   0  20  -3   -1.24    5.50
  -1  20  -3    3.86    5.68
 -10   0   4   57.26   11.22
  -9   0   4   -8.69    4.53
  -8   0   4  562.60   28.18
  -7   0   4 1430.95   52.95
  -6   0   4  317.05   17.34
  -5   0   4  133.82    9.87
  -4   0   4 1053.42   36.54
  -3   0   4 2976.71   90.74
  -2   0   4  338.51   13.01
  -2   0   4  303.10   12.78
  -2   0   4  316.05    9.99
   1   0  -4  117.14    6.07
   0   0  -4  273.56   10.69
   1   0   4   35.91    3.57
  -1   0  -4   42.19    3.46
   2   0   4  833.66   29.97
   2   0   4  879.10   28.42
  -2   0  -4  851.22   28.29
  -3   0  -4 1903.77   60.30
   3   0   4 1986.42   60.61
   3   0   4 1903.62   62.74
  -4   0  -4  229.37   11.49
   4   0   4  201.35   12.79
   5   0   4  279.25   16.42
   6   0   4   13.38    6.10
   7   0   4   24.76    8.29
 -10   1   4   -1.80    5.17
 -10  -1   4    0.68    6.63
  -9  -1   4   -8.03    4.94
  -9   1   4    9.47    6.67
  -8  -1   4   33.16    8.42
  -8   1   4   19.98    6.86
  -7  -1   4   33.47    7.45
  -7   1   4   18.77    6.82
  -6  -1   4  184.02   12.22
  -6   1   4  183.52   13.00
   5   1  -4  178.82   11.15
  -5   1   4  249.63   13.46
  -4  -1   4  231.51   11.96
  -4   1   4  235.13   12.18
  -3   1   4 1209.69   39.13
  -3  -1   4 1136.47   38.56
  -2  -1   4  902.62   26.22
  -2  -1   4  944.70   30.77
  -2  -1   4  895.26   30.51
  -2   1   4  918.69   25.41
  -2   1   4  966.12   30.81
  -1   1   4 1118.18   35.26
   1   1  -4 1117.17   35.46
  -1   1   4 1100.25   35.19
  -1  -1   4 1101.93   31.45
   0   1  -4  821.90   26.93
   0  -1  -4  818.74   26.37
  -1   1  -4 1533.25   48.49
  -1  -1  -4 1576.73   47.76
   1   1   4 1588.95   49.45
   1  -1   4 1545.19   49.27
  -2  -1  -4  474.00   16.67
   2  -1   4  485.17   18.79
   2   1   4  449.12   18.73
   2   1   4  462.45   17.53
   2  -1   4  480.26   16.73
  -2   1  -4  486.01   17.69
  -3  -1  -4    7.57    2.19
   3   1   4    6.76    3.07
   3  -1   4    7.74    3.68
   3   1   4    4.36    3.09
   3  -1   4    6.86    2.67
  -3   1  -4    6.16    2.42
   4  -1   4   24.73    5.99
  -4  -1  -4   32.10    4.27
   4   1   4   22.64    5.58
  -4   1  -4   30.66    4.98
  -5   1  -4    4.23    3.66
   5   1   4   -3.93    3.92
   5  -1   4    5.55    5.03
   6   1   4   56.73    9.47
   6  -1   4   64.38   10.25
   7   1   4  168.40   14.92
   7  -1   4  124.17   13.58
 -10  -2   4    6.81    6.95
 -10   2   4   11.38    7.09
  -9   2   4  125.33   13.57
  -9  -2   4  145.53   14.10
  -8   2   4  706.88   33.41
  -8  -2   4  733.78   33.06
  -7  -2   4  714.33   31.18
  -7   2   4  721.84   32.64
   7   2  -4  759.30   30.23
  -6  -2   4  144.80   10.71
   6   2  -4  144.65   10.26
  -6   2   4  134.66   11.82
  -5   2   4  180.63   12.12
   5   2  -4  164.38   10.54
  -5  -2   4  170.92   10.60
  -4  -2   4   52.79    5.51
  -4   2   4   45.67    5.63
   4   2  -4   53.93    5.82
  -3   2   4  326.76   14.16
   3   2  -4  307.10   13.91
  -3  -2   4  310.64   13.41
  -3  -2   4  301.80   13.22
  -2   2   4  210.83    9.79
   2   2  -4  202.67    9.42
  -2  -2   4  205.47    7.82
  -2   2   4  207.01    6.45
  -1   2   4  986.02   30.99
  -1  -2   4  951.09   27.95
   1   2  -4  960.34   31.42
  -1   2   4  955.52   30.99
   0   2  -4  554.33   19.81
   0   2   4  564.75   20.47
   0  -2  -4  582.03   18.94
  -1   2  -4   74.83    5.09
   1  -2   4   81.07    5.67
  -1  -2  -4   82.42    4.39
   1   2   4   81.54    5.71
  -2  -2  -4   65.66    4.23
   2   2   4   70.05    5.70
   2   2   4   69.83    6.24
   2  -2   4   78.42    6.37
  -2   2  -4   72.92    5.46
   2  -2   4   73.13    4.35
   3  -2   4  358.34   13.13
  -3   2  -4  346.56   15.46
   3   2   4  373.97   16.81
   3  -2   4  334.44   16.58
   3   2   4  370.98   15.62
  -3  -2  -4  369.80   13.59
   4  -2   4  163.14   11.69
   4   2   4  191.61   10.69
  -4   2  -4  180.75   11.06
   4   2   4  181.62   11.86
   5  -2   4  324.34   18.61
   5   2   4  332.43   18.40
  -5   2  -4  360.60   18.09
   6  -2   4  142.05   13.05
   6   2   4  128.57   11.95
   7  -2   4  119.47   13.00
   7   2   4  120.78   12.76
 -10   3   4    9.18    6.68
  -9   3   4   28.16    7.62
  -9  -3   4   35.82    8.87
  -8  -3   4  236.06   16.62
   8   3  -4  204.31   14.64
  -8   3   4  235.11   17.16
  -7  -3   4  441.75   21.63
   7   3  -4  416.09   20.62
  -7   3   4  410.12   22.82
   6   3  -4  460.03   21.21
  -6  -3   4  462.09   21.21
  -6   3   4  485.75   23.71
   5   3  -4  204.92   12.33
  -5   3   4  230.76   14.15
  -5  -3   4  231.97   12.38
  -4  -3   4 1130.17   38.32
   4   3  -4 1123.97   39.44
  -4   3   4 1124.99   39.75
   3   3  -4 2306.22   71.71
  -3  -3   4 2222.19   69.72
  -3   3   4 2156.91   70.54
  -3  -3   4 2305.51   69.74
   2   3  -4  930.87   30.75
  -2   3   4  908.17   31.03
   2   3  -4  927.35   31.76
  -2  -3   4  936.03   27.24
  -1   3   4   13.62    2.50
  -1  -3   4   12.50    2.23
   1   3  -4   19.02    3.06
   0  -3   4  723.97   24.04
   0   3   4  743.19   25.68
   0   3   4  706.88   23.46
   0   3  -4  735.48   25.02
   0   3   4  747.26   23.53
   1   3   4  981.43   32.65
   1  -3   4  950.86   31.94
  -1  -3  -4  962.53   29.67
  -1   3  -4  948.71   31.94
   2   3   4  547.01   21.46
   2  -3   4  577.20   18.64
  -2  -3  -4  571.84   18.48
   2  -3   4  569.19   21.90
  -2   3  -4  573.33   21.45
  -3   3  -4 1196.85   42.47
   3  -3   4 1289.67   43.67
   3   3   4 1269.13   42.76
   3   3   4 1271.84   43.27
   4  -3   4  377.40   19.00
  -4   3  -4  372.09   18.22
   4   3   4  410.25   17.72
   4   3   4  384.93   18.69
   5   3   4   32.57    6.86
   5  -3   4   30.67    7.17
  -5   3  -4   29.07    6.60
  -6   3  -4   17.45    6.32
   6  -3   4   15.38    6.76
   6   3   4   21.29    6.83
   7  -3   4   -7.58    5.48
   7   3   4    6.22    6.18
 -10   4   4    2.62    6.08
  -9   4   4   16.46    7.28
   9   4  -4   38.80    8.24
  -9  -4   4   11.18    7.40
  -8   4   4    3.00    5.21
  -8  -4   4    4.54    5.54
   8   4  -4    4.60    5.35
  -7  -4   4   31.36    6.87
  -7   4   4   28.73    7.43
   7   4  -4   37.60    7.03
  -6  -4   4    6.47    3.48
  -6   4   4    0.95    4.39
   6   4  -4    6.05    4.14
   5   4  -4  154.82   10.67
  -5  -4   4  166.14   10.04
  -5   4   4  137.95   11.65
  -4   4   4  746.55   28.56
  -4  -4   4  701.51   26.06
   4   4  -4  694.81   27.44
  -3  -4   4 4274.66  127.49
   3   4  -4 4236.11  130.30
  -3   4   4 4251.48  128.63
  -3  -4   4 4201.04  127.18
   2   4  -4 2285.71   69.50
  -2   4   4 2282.54   69.98
  -2  -4   4 2230.75   62.39
   2   4  -4 2226.78   71.17
  -1  -4   4  667.02   20.65
  -1  -4   4  653.43   20.58
  -1   4   4  639.66   22.24
  -1   4   4  663.64   23.79
   1   4  -4  606.72   22.83
   1   4  -4  677.80   23.00
   0   4   4  213.04    8.54
   0   4   4  213.08   10.57
   0   4  -4  211.12    9.89
   0  -4   4  225.96    9.34
   0  -4   4  214.53    9.10
   1   4   4  134.44    5.63
  -1   4  -4  132.52    7.84
   1   4   4  157.73    8.67
   1  -4   4  136.03    7.83
   1   4   4  135.87    5.68
   2  -4   4  203.40   10.94
   2   4   4  210.49   10.92
  -2   4  -4  200.34   10.56
  -2  -4  -4  192.58    7.24
   2  -4   4  199.68    7.50
   3   4   4   28.60    5.41
   3   4   4   18.49    4.38
   3  -4   4   28.54    5.61
  -3   4  -4   34.73    5.53
   4   4   4    4.74    3.97
   4   4   4    4.41    4.21
  -4   4  -4   -6.11    2.58
   4  -4   4    2.51    3.85
   5   4   4   18.28    5.93
   5  -4   4   17.16    5.85
  -5   4  -4   16.67    5.46
   6  -4   4   72.14   10.63
   6   4   4   52.92    9.49
  -6   4  -4   67.14   10.82
   7   4   4   17.03    7.54
   7  -4   4    6.11    6.92
  -9   5   4    7.48    6.61
   9   5  -4   -0.36    5.51
   8   5  -4    2.28    5.02
  -8   5   4   -0.26    4.60
  -8  -5   4   -9.38    4.66
  -7   5   4   -3.08    4.00
   7   5  -4    0.33    4.21
  -7  -5   4   -2.28    3.57
  -6  -5   4    7.64    3.60
  -6   5   4   -2.07    3.93
   6   5  -4    5.90    4.33
  -5  -5   4   28.64    4.93
  -5   5   4   29.94    6.81
   5   5  -4   28.00    5.63
  -4  -5   4   68.66    5.94
  -4  -5   4   75.06    6.24
   4   5  -4   58.49    6.24
  -4   5   4   51.53    7.08
  -3   5   4 1060.09   37.00
   3   5  -4 1020.06   34.75
   3   5  -4 1036.54   36.87
  -2   5   4 1634.00   52.06
   2   5  -4 1606.76   50.96
   2   5  -4 1565.43   52.67
  -2  -5   4 1638.17   46.25
  -1   5   4  328.99   14.14
   1   5  -4  329.24   13.44
   1   5  -4  317.05   13.59
  -1  -5   4  316.21   11.09
  -1  -5   4  322.22   12.22
  -1   5   4  330.77   13.09
   0   5  -4  175.53    8.17
   0   5   4  159.78    9.18
   0  -5   4  162.33    7.93
   0  -5   4  160.31    7.68
   0   5   4  163.80    7.26
   0   5  -4  158.10    8.60
   1  -5   4  945.67   31.52
  -1   5  -4  891.27   31.85
   1   5   4  929.80   28.48
   1   5   4  969.46   33.01
   2  -5   4  532.55   19.99
  -2   5  -4  392.36   18.57
   2   5   4  501.66   20.09
   3  -5   4   19.21    5.12
   3   5   4   26.49    5.44
  -3   5  -4   13.72    3.95
   3   5   4   21.31    4.69
   4   5   4  500.79   21.18
   4  -5   4  438.51   21.39
   4   5   4  463.59   21.08
  -4   5  -4  462.13   22.03
   5   5   4   79.86    9.21
   5   5   4   69.41    8.17
   5  -5   4   75.52    9.61
  -5   5  -4   76.87    9.42
   6  -5   4   12.99    6.85
  -6   5  -4    6.23    5.59
   6   5   4   12.93    6.04
   7  -5   4   65.37   11.19
   7   5   4   68.85   11.17
  -9   6   4    2.65    5.84
   9   6  -4    3.73    5.91
  -8  -6   4    6.37    5.23
  -8   6   4   -4.50    4.71
   8   6  -4    7.32    5.46
  -7  -6   4   45.89    7.83
  -7   6   4   37.68    8.56
   7   6  -4   40.24    7.72
   6   6  -4   55.49    8.35
  -6   6   4   70.01   10.55
  -6  -6   4   60.01    6.74
   5   6  -4   10.76    4.27
  -5  -6   4   11.93    3.67
  -5   6   4    8.56    5.22
  -4  -6   4   47.59    5.42
  -4  -6   4   43.44    5.16
   4   6  -4   50.41    6.58
  -4   6   4   58.49    7.71
   3   6  -4   92.31    6.66
  -3   6   4  108.35    8.78
   3   6  -4  120.53    8.83
  -2   6   4  378.11   15.81
  -2  -6   4  347.01   13.57
   2   6  -4  356.41   15.90
   2   6  -4  351.06   14.77
  -2   6   4  359.48   15.90
   1   6  -4   65.21    5.35
  -1  -6   4   73.85    5.31
  -1   6   4   73.27    6.26
  -1  -6   4   65.94    3.60
  -1   6   4   65.99    5.57
   1   6  -4   77.70    5.93
   0  -6   4  241.27   10.69
   0  -6   4  251.36   10.39
   0   6  -4  253.30   10.97
   0   6   4  235.07   12.17
   0   6  -4  253.77   11.74
   0   6   4  248.85   10.23
   1  -6   4  310.45   13.39
   1   6   4  316.57   14.81
  -1   6  -4  301.00   13.82
   1  -6   4  302.61   12.78
   2   6   4 1302.93   49.90
   2  -6   4 1566.62   49.39
  -2   6  -4 1580.93   50.05
  -3   6  -4 2015.28   65.94
   3  -6   4 1971.83   65.19
   3   6   4 1971.94   66.16
  -4   6  -4 1023.58   38.79
   4   6   4  965.28   37.05
   4   6   4  986.52   36.90
   4  -6   4  961.28   37.55
   5   6   4  244.49   15.76
   5   6   4  265.09   15.74
  -5   6  -4  281.23   17.41
   5  -6   4  261.44   16.93
   6  -6   4   26.32    7.98
  -6   6  -4   22.10    7.47
   6   6   4   18.85    6.51
  -7   6  -4    7.05    7.06
   7   6   4   -2.57    5.97
   7  -6   4   10.36    6.74
   9   7  -4   -4.90    5.57
  -9   7   4    0.12    4.73
  -8   7   4   -1.22    4.73
   8   7  -4    0.65    5.30
  -7   7   4   73.68    9.81
   7   7  -4   72.09    9.21
  -7  -7   4   64.00    7.95
   6   7  -4   39.58    7.31
  -6   7   4   53.56    9.15
  -6  -7   4   39.69    6.35
  -5  -7   4   88.63    7.66
  -5   7   4  103.73   10.87
   5   7  -4  105.10    9.36
  -4   7   4  227.03   14.26
  -4  -7   4  209.55   11.32
   4   7  -4  229.86   13.65
  -4  -7   4  225.75   11.65
  -3   7   4  160.35   11.01
   3   7  -4  147.80   10.33
   3   7  -4  154.78    8.87
  -3   7   4  150.87    9.41
  -2   7   4   12.78    3.99
  -2   7   4   13.84    3.72
   2   7  -4   12.92    3.24
  -2  -7   4    8.87    2.88
   2   7  -4    6.49    3.26
  -1   7   4 1002.47   33.68
  -1   7   4 1003.68   35.31
   1   7  -4  965.30   34.56
   1   7  -4  998.71   33.97
  -1  -7   4 1004.29   30.99
   0  -7   4  415.30   14.72
   0   7   4  405.19   17.60
   0   7  -4  386.29   15.69
   0   7   4  385.34   14.40
   0  -7   4  376.30   14.97
   0   7  -4  400.85   16.58
   1  -7   4   26.32    4.17
  -1   7  -4   35.53    4.48
  -1   7  -4   24.78    3.43
   1  -7   4   21.76    3.76
   1   7   4   21.55    4.83
   2  -7   4   38.10    5.69
   2  -7   4   31.89    4.93
   2   7   4   39.15    6.37
  -2   7  -4   34.54    5.56
   3   7   4  170.84   11.76
   3  -7   4  161.45   11.29
  -3   7  -4  159.12   11.37
   4   7   4  416.03   20.11
   4   7   4  399.97   20.47
  -4   7  -4  425.08   21.76
   4  -7   4  444.86   21.21
   5   7   4   56.71    8.86
   5   7   4   62.23    9.00
  -5   7  -4   59.19    9.85
   5  -7   4   53.68    9.47
   6  -7   4   65.54   10.74
  -6   7  -4   66.96   11.44
   6   7   4   47.59    8.84
  -7   7  -4    4.23    7.16
   7   7   4   18.25    7.40
   7  -7   4   16.10    7.89
   9   8  -4   15.90    7.06
  -9   8   4   13.68    6.86
   8   8  -4   80.12   10.40
  -8   8   4   74.93   11.55
  -7  -8   4   61.45    7.88
  -7   8   4   35.32    9.00
   7   8  -4   41.99    8.07
  -6  -8   4   -1.92    3.27
   6   8  -4   -1.43    4.11
  -6   8   4    4.99    5.23
  -6   8   4    4.45    3.24
  -5   8   4   51.58    5.94
  -5  -8   4   58.64    6.30
  -5   8   4   51.51    8.87
   5   8  -4   61.69    7.94
  -4   8   4  202.52   13.77
  -4   8   4  216.53   11.89
  -4  -8   4  221.43   11.59
   4   8  -4  207.09   13.40
  -4  -8   4  207.22   11.20
  -3   8   4  530.59   21.62
   3   8  -4  513.09   20.26
  -3   8   4  533.70   22.81
   3   8  -4  505.20   22.86
  -2   8   4 1078.13   38.51
  -2   8   4 1157.37   38.42
   2   8  -4 1024.79   36.74
   2   8  -4 1105.20   39.50
  -2  -8   4 1101.38   34.44
  -1   8   4 2019.19   64.52
   1   8  -4 1764.77   61.80
  -1   8   4 2044.80   61.66
  -1  -8   4 2009.44   56.88
   1   8  -4 1956.58   63.72
   0  -8   4 1133.76   35.12
   0   8  -4 1094.66   37.80
   0   8  -4 1113.38   38.43
   0   8   4 1163.02   35.40
   0  -8   4 1134.75   35.73
   0   8   4 1107.94   39.90
   1  -8   4  822.58   28.59
  -1   8  -4  813.35   27.52
   1  -8   4  836.58   27.34
  -1   8  -4  819.45   30.03
   1   8   4  781.31   31.10
   2  -8   4  596.66   21.59
   2  -8   4  549.06   22.75
  -2   8  -4  571.47   23.93
   2   8   4  584.18   24.94
   3   8   4  468.58   22.18
   3  -8   4  486.61   21.67
  -3   8  -4  474.74   22.37
   3  -8   4  489.35   19.63
  -4   8  -4  228.12   15.22
   4  -8   4  193.61   13.91
   4   8   4  188.73   13.05
   4   8   4  233.78   14.69
  -5   8  -4    3.49    4.40
   5   8   4    1.71    4.91
   5   8   4   -5.58    4.05
   5  -8   4    4.73    5.50
   6  -8   4   -2.36    5.85
  -6   8  -4   -7.70    5.34
   6   8   4    0.57    5.61
  -7   8  -4   10.96    7.89
   7  -8   4    0.68    6.84
   7   8   4   -3.53    6.72
   9   9  -4   25.11    8.34
  -9   9   4   20.64    8.21
   8   9  -4   45.58    9.24
  -8   9   4   50.19   10.25
  -7  -9   4   30.85    6.53
   7   9  -4   19.85    6.78
  -7   9   4   20.59    7.79
  -6  -9   4   45.00    6.97
  -6   9   4   57.40    6.81
  -6   9   4   56.77   10.19
   6   9  -4   57.10    9.11
  -5  -9   4  143.50    9.66
  -5   9   4  139.37   12.31
   5   9  -4  162.50   12.46
  -5   9   4  150.78   10.12
  -5  -9   4  160.77    9.97
   4   9  -4   94.94    9.64
  -4   9   4  108.74   10.59
  -4  -9   4  117.53    8.11
  -4  -9   4  110.94    8.01
  -4   9   4   99.00    8.56
  -3   9   4   15.73    4.43
   3   9  -4   22.92    4.40
  -3   9   4   18.77    5.54
   3   9  -4   27.29    5.91
  -2   9   4  505.93   20.96
   2   9  -4  526.77   22.64
  -2   9   4  489.80   21.44
   2   9  -4  504.58   20.15
   1   9  -4  822.38   29.34
  -1   9   4  776.49   27.93
   1   9  -4  783.79   30.39
  -1   9   4  829.22   30.85
  -1  -9   4  820.66   27.14
   0  -9   4  128.42    7.98
   0   9  -4  121.23    8.50
   0   9   4  135.11    6.55
   0   9  -4  125.98    8.38
   0   9   4  142.14   10.03
   1   9   4  619.72   26.58
   1  -9   4  638.86   22.94
  -1   9  -4  627.03   25.25
  -1   9  -4  632.84   22.80
   1  -9   4  674.44   23.58
   2   9   4  500.76   23.38
   2  -9   4  508.04   19.84
  -2   9  -4  500.98   22.36
   2  -9   4  517.33   21.13
   3  -9   4   26.44    5.16
  -3   9  -4   30.81    6.37
   3   9   4   22.99    5.91
   3  -9   4   26.79    6.13
   4   9   4   16.44    5.94
   4   9   4    4.40    4.25
   4  -9   4    9.33    5.35
   4  -9   4    8.39    4.08
  -4   9  -4   11.37    5.14
   5   9   4   23.20    6.63
   5  -9   4   30.49    6.07
   5  -9   4   28.28    7.88
   5   9   4   18.71    6.76
  -5   9  -4   15.23    6.65
   6   9   4   87.65   11.04
   6  -9   4   72.72   11.84
  -6   9  -4  102.02   14.79
   7  -9   4   19.97    9.37
  -7   9  -4    1.47    8.96
   7   9   4   21.99    8.29
   9  10  -4   13.39    6.92
  -8  10   4    8.15    6.87
   8  10  -4    6.73    5.75
  -7  10   4    0.51    4.98
   7  10  -4   -2.06    4.84
  -6 -10   4  223.04   12.75
   6  10  -4  179.52   14.39
  -6  10   4  177.69   14.66
  -5  10   4   70.24    7.75
   5  10  -4   77.40    8.88
  -5 -10   4   60.96    6.63
  -5 -10   4   64.25    6.88
  -5  10   4   71.19    9.19
   4  10  -4    8.44    3.51
  -4  10   4   13.35    5.63
  -4  10   4    8.60    4.02
   4  10  -4    8.29    5.02
  -3  10   4   19.67    5.54
   3  10  -4   25.77    4.60
   3  10  -4   39.56    7.15
  -3  10   4   26.74    5.49
   2  10  -4  208.07   11.43
   2  10  -4  219.09   13.48
  -2  10   4  218.98   12.94
  -2  10   4  198.02   11.78
  -1  10   4  780.96   27.33
  -1  10   4  747.89   30.27
  -1 -10   4  777.84   26.82
   1  10  -4  777.94   30.38
   1  10  -4  779.63   28.86
   0 -10   4  215.81   11.11
   0  10  -4  204.17   11.51
   0  10  -4  214.00   11.80
   0  10   4  195.11   12.82
  -1  10  -4  151.36   10.31
   1  10   4  158.56   11.66
   1 -10   4  161.27    9.50
  -2  10  -4  127.34   10.00
   2  10   4  128.43   11.05
   2 -10   4   96.07    8.40
   2 -10   4  139.07    9.02
   3 -10   4   94.14    9.42
  -3  10  -4   96.42    9.63
   3  10   4   82.58    9.65
   3 -10   4   95.36    8.38
  -4  10  -4    5.97    4.97
   4  10   4    7.41    5.31
   4 -10   4    4.25    5.32
   4 -10   4    6.55    3.81
   4  10   4    7.24    4.81
   5 -10   4   34.94    8.45
   5 -10   4   36.63    6.38
  -5  10  -4   21.26    7.51
   5  10   4   23.72    6.65
   5  10   4   22.08    7.24
   6  10   4   53.58    9.96
   6 -10   4   44.05    9.90
  -6  10  -4   44.06   10.71
   6 -10   4   55.20    8.33
   7  10   4   43.86   10.13
  -8  11   4   -3.77    5.55
   8  11  -4    1.89    6.08
   7  11  -4   58.24   10.04
  -7  11   4   54.05   10.59
  -6  11   4  125.93   12.74
   6  11  -4  103.42   11.75
  -6 -11   4  128.18   10.33
  -5  11   4  141.61   12.53
  -5 -11   4  158.05   10.08
  -5 -11   4  161.56   10.54
   5  11  -4  164.08   13.35
  -5  11   4  160.52   11.46
   4  11  -4   64.18    7.11
   4  11  -4   97.60   10.03
  -4  11   4   93.44    8.41
  -4  11   4   58.38    8.80
   3  11  -4  121.16   11.10
  -3  11   4  120.16    9.94
  -3  11   4  132.48   10.51
   3  11  -4  144.36    9.33
  -2  11   4  213.79   11.82
  -2  11   4  180.24   12.07
   2  11  -4  178.84   12.94
   2  11  -4  182.49   10.88
   1  11  -4  298.27   14.75
   1  11  -4  306.76   16.37
  -1  11   4  307.19   16.57
  -1 -11   4  271.61   13.83
  -1  11   4  308.06   13.46
   0  11   4    5.73    4.18
   0 -11   4    6.36    3.21
   0  11  -4   10.70    3.95
   0  11  -4    6.56    3.79
   1  11   4    2.80    4.26
   1 -11   4    2.68    2.86
  -1  11  -4    1.03    3.47
  -2  11  -4  143.60   11.24
   2  11   4  120.69   11.53
   2 -11   4  152.23    9.73
  -3  11  -4    7.70    4.85
   3 -11   4   15.92    5.23
   3  11   4   10.20    5.52
   3 -11   4    9.31    4.41
   4 -11   4    3.42    5.19
   4  11   4    3.54    4.61
   4  11   4   11.01    5.69
  -4  11  -4    5.22    5.00
   4 -11   4    6.43    4.46
   5 -11   4   28.14    8.07
   5  11   4   46.09    9.19
  -5  11  -4   35.84    9.17
   5 -11   4   21.09    6.04
   5  11   4   41.40    8.26
   6 -11   4   47.10   10.11
  -6  11  -4   35.00    9.56
   6  11   4   25.20    8.59
   6 -11   4   32.48    7.02
   6  11   4   39.45    9.64
  -8  12   4   -4.63    6.28
   8  12  -4    4.09    6.44
   7  12  -4   70.33   11.15
  -7  12   4   56.98   10.78
  -6  12   4  102.16   11.97
   6  12  -4  124.61   12.50
  -5 -12   4  152.10   10.13
  -5 -12   4  144.38   10.24
   5  12  -4  155.47   13.54
  -5  12   4  133.89   10.67
  -5  12   4  129.46   12.29
   4  12  -4   22.42    7.08
   4  12  -4   37.20    6.00
  -4  12   4   29.22    6.26
  -4  12   4   33.18    7.13
   3  12  -4  117.39    8.86
  -3  12   4  122.43    9.93
  -3  12   4  132.35   10.42
   3  12  -4  121.57   11.66
   2  12  -4   16.44    4.48
  -2  12   4   12.72    4.98
   2  12  -4   13.53    5.24
  -2  12   4    7.45    3.94
  -1 -12   4  146.62    9.59
   1  12  -4  132.34    9.75
  -1  12   4  117.91   10.58
   1  12  -4  144.94   11.24
   0  12   4  153.18   12.15
   0  12  -4  129.99   10.16
   0  12  -4  139.78   10.26
   0 -12   4  157.53    9.83
   1 -12   4    8.17    3.58
   1  12   4   10.32    5.11
  -1  12  -4    7.17    4.00
   2 -12   4   15.14    4.64
   2  12   4   14.44    5.84
  -2  12  -4   21.77    6.06
  -3  12  -4   -1.05    3.36
   3  12   4    2.68    4.87
   3 -12   4    2.33    3.93
   4  12   4    0.75    5.08
   4  12   4    6.53    5.07
   4 -12   4   -0.22    4.04
  -4  12  -4   -3.19    3.84
   5  12   4    5.95    6.71
   5 -12   4    9.35    5.11
  -5  12  -4   -1.56    5.28
   5  12   4   -1.36    5.20
   6  12   4   55.70   10.34
   6  12   4   55.16   10.67
   6 -12   4   48.53    8.39
  -6  12  -4   61.28   12.45
   7  13  -4   14.64    6.88
  -7  13   4    8.02    6.18
   6  13  -4   38.58    9.16
  -6  13   4   51.10    9.51
   5  13  -4   80.10   10.37
  -5  13   4   56.36    9.63
   4  13  -4   42.23    6.44
   4  13  -4   46.04    8.92
  -4  13   4   43.85    7.91
  -4  13   4   49.99    7.93
  -3  13   4   42.14    7.20
   3  13  -4   39.60    6.17
   3  13  -4   39.74    8.49
  -3  13   4   42.33    7.63
  -2  13   4  151.95   10.08
  -2  13   4  124.67   11.10
   2  13  -4  108.86   11.36
   2  13  -4  136.42    9.75
   1  13  -4    9.78    4.31
   1  13  -4   20.48    5.83
  -1  13   4    7.25    4.85
  -1 -13   4    8.09    3.99
   0  13  -4  131.98   10.50
   0  13  -4  130.45   10.10
   0 -13   4  107.92    8.73
   0  13   4  122.15   11.37
   1  13   4   51.59    8.68
   1 -13   4   43.10    6.63
  -1  13  -4   49.60    7.59
   2  13   4   20.21    7.05
   2 -13   4   23.50    5.40
  -2  13  -4   21.63    6.20
   3 -13   4   22.97    5.56
   3  13   4   27.19    7.39
  -3  13  -4   30.78    7.89
   4  13   4   75.07   11.60
  -4  13  -4   82.45   11.03
   4 -13   4   75.25    9.10
   5  13   4   62.94   11.26
   5 -13   4   71.20    9.48
  -5  13  -4   55.19   10.87
   5  13   4   68.17   10.30
   6  13   4   74.65   11.35
   6  13   4   78.34   12.60
   6 -13   4   68.89   10.04
   7  14  -4   20.91    7.92
  -7  14   4   20.58    7.11
  -6  14   4  134.62   13.28
   6  14  -4  138.54   14.06
   5  14  -4  236.69   17.90
  -5  14   4  239.72   16.51
  -4  14   4   89.03    9.62
  -4  14   4  108.40   10.34
   4  14  -4   75.95    8.12
   4  14  -4  115.28   12.32
  -3  14   4   13.24    4.99
  -3  14   4   15.82    5.70
   3  14  -4   16.73    4.77
   3  14  -4   14.75    6.25
   2  14  -4    4.39    4.00
   2  14  -4    3.15    5.12
  -2  14   4   -2.19    3.82
   1  14  -4    0.11    4.42
   1  14  -4    1.08    3.80
  -1  14   4    3.05    4.27
   0  14  -4   -0.97    3.67
   0  14   4    3.21    4.84
   0 -14   4   -0.19    3.04
  -1  14  -4  103.50    9.72
   1 -14   4  127.30    9.58
   1  14   4  130.57   12.31
   2  14   4  119.66   12.34
   2 -14   4  116.41    9.66
  -2  14  -4  124.55   11.49
   3  14   4   55.96   10.81
   3 -14   4   77.92    8.37
  -3  14  -4   63.71   10.45
  -4  14  -4   34.92    8.52
   4  14   4   45.33   10.23
   4 -14   4   26.47    6.61
   5 -14   4    1.30    5.01
   5  14   4   -3.73    6.08
   5  14   4   -0.87    5.45
  -5  14  -4    6.71    6.89
  -7  15   4  -11.93    4.85
   6  15  -4   55.50   10.46
  -6  15   4   61.47   10.56
   5  15  -4   32.58    8.91
  -5  15   4   25.92    7.46
   4  15  -4    3.20    6.02
  -4  15   4    3.19    4.90
  -4  15   4   -3.04    4.21
   4  15  -4    7.08    4.44
  -3  15   4    7.98    4.74
   3  15  -4   16.42    5.29
  -3  15   4    9.90    5.29
   3  15  -4   13.11    6.64
  -2  15   4  120.93   11.70
   2  15  -4   91.96    8.90
   2  15  -4   97.73   11.99
  -1  15   4   79.25    9.83
   1  15  -4   62.00    7.94
   1  15  -4   78.35   10.65
   0 -15   4  144.13   10.66
   0  15  -4  155.10   11.87
   0  15   4  162.25   13.68
   1  15   4   11.56    6.09
  -1  15  -4    4.22    4.36
   1 -15   4    8.56    4.35
   2  15   4    6.20    5.66
  -2  15  -4   -2.30    4.60
   2 -15   4    4.66    4.24
   3 -15   4   -2.76    4.04
  -3  15  -4    1.29    5.30
   3  15   4    7.50    5.98
   4 -15   4   10.23    5.12
  -4  15  -4    3.82    5.93
   4  15   4    2.81    6.87
   5  15   4    5.78    7.23
   5 -15   4   -2.40    4.84
  -6  16   4   12.50    6.81
   6  16  -4   20.08    8.27
   5  16  -4   49.46   11.24
  -5  16   4   41.95    8.68
  -4  16   4    6.44    4.72
  -4  16   4   12.46    6.13
   4  16  -4    4.98    6.23
   3  16  -4    4.67    6.56
  -3  16   4   21.61    7.09
   3  16  -4   13.85    5.49
   2  16  -4   39.43    9.64
  -2  16   4   34.90    8.52
   2  16  -4   29.09    6.31
   1  16  -4   60.01    8.65
  -1  16   4   49.50    9.32
   1  16  -4   69.53   11.37
   0  16   4   64.98   11.13
   0  16  -4   69.27    8.77
  -1  16  -4    3.56    4.98
   1  16   4    2.40    5.32
   1 -16   4    5.43    4.43
  -2  16  -4    2.29    5.18
   2 -16   4   12.25    4.77
   2  16   4    2.17    5.83
   3  16   4   43.28    9.96
  -3  16  -4   45.22    9.30
   3 -16   4   44.62    8.30
   4  16   4   28.30    8.79
   4 -16   4   34.79    7.65
  -4  16  -4   40.99    9.96
  -6  17   4   52.16   10.05
  -5  17   4   82.25   10.98
   5  17  -4   59.38   11.96
   4  17  -4  130.76   14.47
  -3  17   4    6.19    6.18
   3  17  -4   10.29    7.44
  -2  17   4    8.37    5.76
   2  17  -4    0.43    4.23
   2  17  -4   -1.53    6.18
  -1  17   4    5.76    5.79
   1  17  -4   11.54    5.46
   0  17   4    1.34    5.70
   0  17  -4   12.10    5.67
   1  17   4   34.88    9.23
   1 -17   4   55.71    8.49
  -1  17  -4   38.04    8.16
   2 -17   4  111.14   10.20
   2  17   4  119.10   13.90
  -2  17  -4  105.50   11.67
  -3  17  -4   10.92    6.52
   3 -17   4   -7.81    4.44
   3  17   4    8.61    7.26
   4 -17   4   -5.24    4.80
  -5  18   4   47.17    9.68
   4  18  -4  119.37   14.75
   3  18  -4  113.31   15.10
  -3  18   4  116.36   13.35
  -2  18   4   67.05   11.68
   2  18  -4   63.73    9.20
   2  18  -4   47.73   11.19
   1  18  -4    2.83    5.22
  -1  18   4    2.56    5.98
   0  18  -4    0.84    5.01
   0  18   4    1.13    5.88
   1  18   4    0.32    5.80
  -1  18  -4    2.59    5.16
  -2  18  -4    5.05    5.38
   2 -18   4   -3.04    4.26
   2  18   4    6.28    6.64
   3 -18   4   14.02    5.18
   4  19  -4   30.12    9.92
   3  19  -4    8.24    8.28
   2  19  -4   14.90    9.17
  -2  19   4   25.09    8.43
   1  19  -4   60.77    9.52
  -1  19   4   69.09   12.13
   0  19  -4   98.22   11.04
   0  19   4   91.20   12.56
  -1  19  -4   34.86    8.67
   1  19   4   22.87    9.15
   3  20  -4    8.99    8.51
  -2  20   4    1.55    6.50
  -1  20   4    9.35    7.25
   0  20  -4   41.90    8.79
 -10   0   5   -8.32    6.03
  -9   0   5   -4.53    5.06
  -8   0   5   -3.02    5.11
  -7   0   5    1.97    4.93
  -6   0   5   -0.31    3.14
  -5   0   5    4.34    3.11
  -4   0   5    1.98    2.64
  -3   0   5    1.64    2.37
  -2   0   5    2.90    2.00
  -2   0   5    2.04    1.35
  -2   0   5    2.53    1.93
   1   0  -5    2.17    1.57
   0   0  -5    2.95    1.90
  -1   0  -5    0.83    1.55
   1   0   5   -1.59    1.76
   2   0   5    2.68    2.97
  -2   0  -5   -0.16    1.69
   2   0   5    3.51    2.32
   3   0   5    2.89    3.73
  -3   0  -5    1.48    2.14
   3   0   5   -1.87    2.62
   4   0   5    1.97    4.22
   5   0   5    5.56    5.53
   6   0   5   -0.22    5.55
   7   0   5   -0.40    6.59
 -10  -1   5   -1.36    6.27
 -10   1   5   14.23    7.37
  -9  -1   5   -0.41    6.04
  -9   1   5    6.55    6.40
  -8  -1   5    7.73    6.17
  -8   1   5   19.04    7.14
  -7   1   5  155.25   13.65
  -7  -1   5  188.64   13.84
  -6   1   5  209.58   14.16
  -6  -1   5  211.46   13.80
  -5  -1   5   26.97    5.25
  -5   1   5   31.24    5.94
  -4  -1   5   27.33    4.67
  -4   1   5   20.85    4.65
  -3   1   5   77.89    6.43
  -3  -1   5   70.84    5.91
  -3  -1   5   67.89    4.05
  -3  -1   5   77.59    6.10
  -2   1   5  150.78    5.77
  -2  -1   5  144.46    8.08
  -2   1   5  146.47    8.19
  -2   1   5  146.76    8.01
  -2  -1   5  154.29    8.32
  -2  -1   5  136.43    6.12
  -1   1   5  929.37   29.77
  -1   1   5  880.68   29.71
   1   1  -5  864.35   29.76
   0   1  -5  404.54   15.62
   0  -1  -5  411.86   15.17
   1   1   5   87.69    6.20
  -1  -1  -5   85.57    5.27
  -1   1  -5   77.15    5.53
   1  -1   5   82.67    6.39
   1  -1   5   83.77    5.53
  -2   1  -5  684.49   24.62
  -2  -1  -5  676.99   23.79
   2   1   5  704.32   26.49
   2  -1   5  702.57   23.94
   2   1   5  713.52   24.88
   2  -1   5  691.48   26.28
   3  -1   5 1786.81   59.85
  -3   1  -5 1831.75   57.68
   3   1   5 1766.78   59.74
   3   1   5 1787.95   57.88
  -3  -1  -5 1817.74   56.35
   4  -1   5 1365.06   49.50
   4   1   5 1348.18   48.96
  -4   1  -5 1415.42   46.83
   5  -1   5  188.64   14.20
   5   1   5  179.50   13.66
   6  -1   5    1.56    6.26
   6   1   5    7.30    6.20
   7   1   5    1.21    6.41
   7  -1   5   12.25    6.92
 -10   2   5   27.16    8.32
 -10  -2   5   12.47    7.61
  -9  -2   5   -1.67    6.25
  -9   2   5    7.33    6.26
  -8   2   5   39.97    9.01
  -8  -2   5   44.29    8.76
  -7  -2   5   17.11    5.80
  -7   2   5   16.60    6.30
  -6  -2   5   31.79    6.03
  -6   2   5   17.12    5.83
  -5  -2   5    9.71    3.46
  -5   2   5   15.69    4.98
  -4  -2   5   75.46    6.79
  -4   2   5   75.00    7.37
  -3  -2   5  529.55   20.60
  -3   2   5  518.95   20.87
  -3  -2   5  525.90   20.70
  -3  -2   5  552.33   17.15
   2   2  -5 1555.40   49.42
  -2   2   5 1611.29   42.17
  -2  -2   5 1516.55   43.44
  -2   2   5 1500.90   49.28
   1   2  -5 2016.94   62.95
  -1   2   5 1941.58   62.32
  -1  -2   5 2033.95   56.55
  -1   2   5 2136.50   62.72
   0  -2  -5  333.71   12.66
   0   2   5  324.13   13.94
   0   2  -5  323.44   13.39
   1  -2   5    1.85    2.19
  -1  -2  -5   -1.52    1.35
   1   2   5    0.80    2.15
  -1   2  -5   -0.25    1.66
  -2  -2  -5   24.88    3.26
   2  -2   5   30.12    5.33
   2   2   5   27.48    4.35
   2  -2   5   25.84    3.52
  -2   2  -5   24.99    4.01
   2   2   5   20.76    4.63
   3   2   5   49.83    6.48
   3   2   5   54.80    6.58
  -3   2  -5   39.72    5.09
   3  -2   5   61.45    6.88
   4  -2   5   27.62    6.61
   4   2   5   28.22    6.30
  -4   2  -5   24.01    5.11
   5  -2   5    7.56    5.30
   5   2   5    1.76    4.31
   6   2   5    5.57    6.02
   6  -2   5   12.87    6.68
   7  -2   5   37.72    9.63
   7   2   5   48.81    9.97
 -10  -3   5   -1.20    7.14
 -10   3   5    5.72    6.72
  -9  -3   5   -0.44    6.44
  -9   3   5   -3.50    5.43
  -8   3   5   89.37   11.46
  -8  -3   5  101.45   11.70
   7   3  -5  131.72   11.41
  -7   3   5  139.81   12.72
  -7  -3   5  138.41   11.69
  -6  -3   5   67.31    7.54
  -6   3   5   67.10    9.74
   6   3  -5   65.29    7.99
   5   3  -5   20.32    4.71
  -5   3   5   31.21    6.48
  -5  -3   5   21.36    4.97
  -4   3   5  150.39   10.24
  -4  -3   5  144.07    9.34
  -3   3   5   29.46    4.71
  -3  -3   5   28.31    4.50
  -3  -3   5   28.73    4.51
  -2   3   5   47.61    4.91
   2   3  -5   48.99    4.84
  -2  -3   5   40.88    3.75
  -1  -3   5  124.38    6.52
   1   3  -5  110.18    6.96
  -1   3   5  125.93    6.91
   0   3   5  247.10   11.78
   0   3  -5  248.36   11.30
   0   3   5  242.65    9.97
   0  -3   5  246.26   10.67
   0   3   5  242.22   10.00
   1   3   5   10.69    3.22
  -1   3  -5    8.22    2.60
   1  -3   5   10.77    3.31
  -1  -3  -5   12.33    2.19
  -2   3  -5   16.04    3.61
   2   3   5    7.68    3.35
  -2  -3  -5   10.68    2.16
   2  -3   5    8.28    2.30
   2  -3   5    8.40    3.65
   3   3   5  410.99   17.71
   3   3   5  354.61   17.95
   3  -3   5  391.92   18.61
  -3   3  -5  386.83   17.33
   4   3   5  560.36   25.58
  -4   3  -5  594.11   25.02
   4  -3   5  637.99   26.76
   5  -3   5   92.34   10.53
   5   3   5   81.57    9.54
  -5   3  -5   90.66    9.06
   6  -3   5   -1.19    5.70
   6   3   5   11.01    6.86
   7   3   5   44.00    9.70
   7  -3   5   35.28    9.56
  -9   4   5    4.02    5.90
  -9  -4   5    0.65    5.94
  -8   4   5   32.42    8.42
   8   4  -5   41.60    8.27
  -8  -4   5   32.70    7.90
  -7   4   5  109.40   11.93
   7   4  -5  118.13   10.79
  -7  -4   5  105.69   10.35
  -6  -4   5    3.61    3.38
   6   4  -5    4.83    4.29
  -6   4   5    1.03    4.99
  -5   4   5   24.53    6.42
   5   4  -5   28.30    5.84
  -5  -4   5   21.73    5.08
  -4   4   5   74.78    7.64
  -4  -4   5   86.95    7.13
  -4  -4   5   89.87    7.31
   4   4  -5   76.08    7.48
  -3   4   5   51.49    5.62
   3   4  -5   41.70    5.15
  -3  -4   5   45.00    4.92
  -3  -4   5   47.31    4.94
  -2  -4   5  568.32   18.86
   2   4  -5  549.01   21.36
   2   4  -5  602.07   22.54
  -2   4   5  587.63   21.73
  -1  -4   5 2713.23   75.19
  -1  -4   5 2748.24   80.99
  -1   4   5 2705.68   82.37
   1   4  -5 2679.12   83.40
  -1   4   5 2741.54   85.39
   0   4   5  926.38   30.45
   0   4  -5  955.79   32.66
   0  -4   5  953.33   31.38
   0   4   5  954.56   33.59
   0  -4   5  974.40   29.87
   1  -4   5   22.22    4.05
   1   4   5   27.55    4.69
  -1   4  -5   26.69    4.12
   1   4   5   24.03    2.75
   1   4   5   29.12    2.87
   2  -4   5   53.07    6.47
  -2   4  -5   65.79    6.07
   2   4   5   62.06    6.74
   3   4   5  473.35   20.17
   3   4   5  354.71   18.05
   3  -4   5  442.41   19.92
  -3   4  -5  435.16   19.05
   4  -4   5  154.54   12.40
   4   4   5  161.30   11.16
   4   4   5  171.35   11.92
  -4   4  -5  157.08   11.35
  -5   4  -5   19.30    5.73
   5   4   5   29.73    6.81
   5  -4   5   16.69    6.60
   6  -4   5   26.56    8.03
   6   4   5   21.91    7.56
   7   4   5   18.55    7.87
   7  -4   5   18.61    8.15
  -9  -5   5   12.18    6.66
   9   5  -5   14.31    6.30
  -9   5   5    7.41    5.64
  -8   5   5   47.13    9.42
  -8  -5   5   54.90    9.33
   8   5  -5   45.51    8.67
  -7  -5   5  183.71   12.94
   7   5  -5  155.72   12.73
  -7   5   5  165.45   14.30
  -6  -5   5  209.01   13.15
  -6   5   5  199.69   15.38
   6   5  -5  236.27   14.68
   5   5  -5  129.27   10.55
  -5   5   5  129.38   11.28
  -5  -5   5  144.53    9.95
  -4  -5   5   38.59    5.24
  -4  -5   5   39.40    5.72
  -4   5   5   51.01    7.48
   4   5  -5   43.51    6.52
  -3   5   5  117.94    8.66
   3   5  -5  122.34    7.87
   3   5  -5   98.37    8.07
  -2   5   5  781.07   28.08
   2   5  -5  795.60   29.03
  -2  -5   5  752.49   24.91
   2   5  -5  779.65   28.05
  -2  -5   5  824.62   24.25
  -1  -5   5 2418.63   67.76
   1   5  -5 2441.91   75.10
  -1   5   5 2478.88   74.03
  -1  -5   5 2355.08   72.08
  -1   5   5 2387.13   76.79
   0   5  -5 1090.82   36.61
   0   5   5 1082.36   37.50
   0   5   5 1034.34   33.94
   0  -5   5 1104.65   35.05
   0  -5   5 1058.03   33.15
   1   5   5  342.54   15.49
  -1   5  -5  336.69   14.87
   1  -5   5  336.42   14.52
   1   5   5  312.39   11.57
   2  -5   5    7.78    3.62
   2   5   5    8.21    3.93
  -2   5  -5   10.93    3.21
  -3   5  -5   -2.42    2.56
   3  -5   5    3.55    3.89
   3   5   5    5.91    3.66
   3   5   5    4.43    3.61
   4  -5   5   12.59    5.76
   4   5   5    9.91    4.96
  -4   5  -5    7.79    4.17
   4   5   5   10.02    4.51
   5   5   5   60.28    9.36
   5  -5   5   68.12   10.25
  -5   5  -5   66.30    8.79
  -6   5  -5    5.67    5.79
   6   5   5   18.46    6.95
   6  -5   5    5.33    6.73
   7  -5   5    7.50    7.65
   7   5   5  -11.60    5.56
  10   6  -5    6.75    7.51
  -9   6   5   10.67    7.14
  -9  -6   5   31.42    8.99
   9   6  -5   25.14    7.68
   8   6  -5  163.97   14.15
  -8   6   5  221.07   16.88
  -8  -6   5  194.96   14.97
   7   6  -5   73.39    9.62
  -7   6   5   66.47   11.17
  -7  -6   5   81.11    8.97
   6   6  -5  240.08   15.44
  -6  -6   5  251.24   14.58
  -6   6   5  272.76   17.44
  -5   6   5  831.62   34.49
  -5  -6   5  828.90   31.59
   5   6  -5  862.86   33.96
  -4  -6   5  232.81   12.56
  -4  -6   5  251.39   12.74
  -4   6   5  238.91   14.61
   3   6  -5   19.52    4.64
   3   6  -5   18.36    4.11
  -3   6   5   14.48    4.52
  -2  -6   5  799.81   26.21
  -2   6   5  795.89   30.30
   2   6  -5  810.32   30.24
  -2   6   5  854.90   29.88
   2   6  -5  831.58   29.33
   1   6  -5 1495.28   49.32
  -1  -6   5 1488.73   45.72
   1   6  -5 1506.97   49.01
  -1   6   5 1481.38   47.87
  -1   6   5 1483.38   50.60
  -1  -6   5 1555.01   44.46
   0  -6   5  187.30    9.13
   0  -6   5  190.53    9.57
   0   6   5  186.35    8.49
   0   6   5  169.52   10.66
   0   6  -5  193.35   10.34
   1  -6   5   64.67    5.86
   1  -6   5   66.44    6.29
   1   6   5   80.73    7.21
  -1   6  -5   73.22    6.51
   2   6   5  143.40   10.05
  -2   6  -5  133.91    9.34
   2  -6   5  132.16    9.91
   3   6   5   30.85    5.87
   3  -6   5   26.66    6.12
  -3   6  -5   20.91    5.22
  -4   6  -5   99.15    9.59
   4   6   5   90.57    9.26
   4  -6   5   99.82   10.32
   4   6   5   82.33    8.93
   5  -6   5  127.92   12.65
  -5   6  -5  135.23   12.13
   5   6   5  135.95   12.03
  -6   6  -5   33.08    8.18
   6  -6   5   39.05    8.81
   6   6   5   25.68    7.82
   7  -6   5   18.80    8.59
   9   7  -5   52.13   10.11
  -9   7   5   56.41   10.84
   8   7  -5  204.77   15.57
  -8   7   5  212.08   16.99
  -8  -7   5  208.80   15.07
  -7  -7   5 1044.49   39.44
  -7   7   5  997.40   42.53
   7   7  -5  981.82   40.61
  -6   7   5 1309.10   49.66
   6   7  -5 1227.75   47.74
  -6  -7   5 1289.11   45.66
   5   7  -5  777.98   32.71
  -5  -7   5  799.78   30.60
  -5   7   5  826.66   34.10
  -5  -7   5  797.45   30.47
  -4  -7   5  194.78   11.24
  -4  -7   5  183.85   10.67
   4   7  -5  163.60   11.99
  -4   7   5  184.31   12.88
   3   7  -5  129.03    8.48
   3   7  -5  134.17   10.08
  -3   7   5  136.88   10.20
   2   7  -5  104.15    7.84
  -2   7   5  115.37    8.49
  -2   7   5  124.60    8.93
   2   7  -5  121.59    8.77
  -2  -7   5  103.01    7.01
  -1   7   5   19.56    4.52
   1   7  -5   14.35    3.90
   1   7  -5   17.89    3.82
  -1  -7   5   21.49    4.03
  -1  -7   5   20.28    2.53
  -1   7   5   24.14    4.34
   0  -7   5  165.22    9.35
   0  -7   5  176.24    8.72
   0   7   5  171.70    8.46
   0   7  -5  176.63   10.12
   0   7   5  163.39   10.59
   1   7   5  193.73   11.81
   1  -7   5  169.71    9.98
   1  -7   5  195.86   10.49
  -1   7  -5  181.71   10.80
   2   7   5  283.13   15.20
   2  -7   5  261.73   12.98
   2  -7   5  234.51   13.39
  -2   7  -5  250.65   13.92
   3  -7   5  183.23   12.68
   3   7   5  188.44   12.74
  -3   7  -5  181.83   12.46
  -4   7  -5  127.45   11.04
   4   7   5  115.33   10.44
   4  -7   5  121.79   11.24
   4   7   5   98.43    9.88
   5  -7   5    2.14    5.72
  -5   7  -5    1.54    4.68
   5   7   5    1.41    4.80
   6  -7   5   40.80    9.49
   6   7   5   38.73    8.81
  -6   7  -5   26.20    7.90
  -9   8   5    0.27    6.55
   9   8  -5    1.06    6.39
  -8  -8   5   41.76    8.56
   8   8  -5   50.55    9.15
  -8   8   5   42.66    9.89
  -7   8   5    7.33    6.81
   7   8  -5   10.97    5.45
  -7  -8   5    9.43    4.59
   6   8  -5    8.53    5.45
  -6   8   5   24.01    7.14
  -6  -8   5    7.07    4.47
  -5   8   5   59.68    9.44
  -5  -8   5   65.71    6.86
  -5  -8   5   55.19    6.73
  -5   8   5   62.28    6.86
   5   8  -5   50.57    8.13
  -4   8   5  389.39   19.66
  -4  -8   5  349.99   16.68
  -4   8   5  353.76   17.23
  -4  -8   5  354.49   16.65
   4   8  -5  377.58   19.11
   3   8  -5 1282.84   43.24
   3   8  -5 1336.56   46.55
  -3   8   5 1305.10   45.03
  -3   8   5 1184.83   44.83
   2   8  -5  891.87   32.93
   2   8  -5  893.24   31.31
  -2  -8   5  814.84   28.38
  -2   8   5  856.78   32.66
  -2   8   5  858.31   31.77
  -1   8   5  148.94   10.25
   1   8  -5  133.46    9.07
  -1   8   5  149.85    9.14
   1   8  -5  138.80    9.22
  -1  -8   5  141.87    8.71
   0  -8   5   32.80    5.04
   0  -8   5   39.68    4.59
   0   8  -5   33.06    5.16
   0   8   5   32.94    5.75
   0   8  -5   32.10    4.45
   1   8   5    3.77    3.77
  -1   8  -5    2.22    2.51
   1  -8   5    2.95    3.19
   1  -8   5   -1.09    2.70
   2  -8   5  113.80    9.16
   2  -8   5  131.31    8.69
   2   8   5  114.26   10.08
  -2   8  -5   97.25    8.82
   3  -8   5  205.09   12.19
   3  -8   5  205.99   13.41
  -3   8  -5  233.84   14.32
   3   8   5  204.79   14.01
  -4   8  -5   95.15   10.38
   4   8   5  104.14   10.09
   4   8   5  116.85   10.77
   4  -8   5  104.96   11.50
   5   8   5   19.90    6.52
   5  -8   5   27.39    8.31
  -5   8  -5   12.80    6.16
   5   8   5   17.93    6.58
   6   8   5    2.69    5.84
   6  -8   5   -0.10    6.57
  -6   8  -5   -3.10    6.05
   9   9  -5   -5.59    5.62
  -9   9   5    5.72    5.99
  -8   9   5    8.65    7.00
   8   9  -5    0.67    5.34
  -7  -9   5   -1.67    3.70
   7   9  -5   -4.49    4.53
  -7   9   5   10.44    7.15
  -6   9   5   95.95   11.80
  -6  -9   5   97.11    9.19
   6   9  -5   81.57   10.13
  -6   9   5   93.47    8.71
  -5  -9   5   96.56    8.55
   5   9  -5   97.10   10.33
  -5  -9   5   88.09    7.81
  -5   9   5  106.63    8.93
  -5   9   5  101.68   11.08
  -4   9   5  159.66   10.99
   4   9  -5  171.61   10.48
   4   9  -5  146.44   12.07
  -4   9   5  155.19   12.22
   3   9  -5  596.23   24.37
   3   9  -5  637.65   27.37
  -3   9   5  649.55   26.35
   2   9  -5  786.18   29.43
  -2  -9   5  768.04   27.14
  -2   9   5  811.75   29.91
  -2   9   5  781.54   30.80
   2   9  -5  794.25   31.10
  -1   9   5  475.92   22.50
  -1   9   5  569.58   20.65
   1   9  -5  490.48   21.25
  -1  -9   5  504.88   19.67
   1   9  -5  545.96   22.13
   0  -9   5  271.36   13.36
   0   9  -5  270.51   14.44
   0   9   5  295.03   15.87
   0   9  -5  293.59   13.53
   1   9   5  136.99   11.19
   1  -9   5  158.41    9.73
   1  -9   5  176.69   10.33
  -1   9  -5  174.58   10.95
  -2   9  -5  303.45   16.02
   2  -9   5  263.27   14.45
   2   9   5  285.63   16.66
   2  -9   5  288.07   14.45
   3  -9   5    6.51    4.56
  -3   9  -5   -0.81    2.96
   3   9   5   -5.20    4.14
   3  -9   5    1.78    3.02
   4  -9   5   62.71    7.62
   4  -9   5   56.90    9.37
  -4   9  -5   70.71    9.11
   4   9   5   51.45    8.15
   4   9   5   58.01    9.48
   5  -9   5   32.74    8.66
   5   9   5   32.81    7.85
  -5   9  -5   38.66    8.80
   5  -9   5   25.99    6.08
   5   9   5   43.96    8.37
   6  -9   5   10.89    7.68
  -6   9  -5   28.18    8.50
   6   9   5   21.19    7.32
   6  -9   5    9.33    5.23
   9  10  -5   -3.51    6.32
   8  10  -5   29.24    8.21
  -8  10   5   34.91    9.22
  -7  10   5   -0.34    6.15
  -7 -10   5   -2.50    3.76
   7  10  -5   -1.12    5.04
  -6  10   5  183.47   15.63
  -6  10   5  194.71   12.86
  -6 -10   5  215.18   13.29
   6  10  -5  212.09   15.71
  -5  10   5  182.42   12.41
  -5 -10   5  184.99   11.70
  -5 -10   5  164.75   11.09
  -5  10   5  164.66   13.95
   5  10  -5  182.34   14.11
  -4  10   5   46.74    7.37
  -4  10   5   37.98    7.72
   4  10  -5   38.92    6.38
   4  10  -5   51.01    8.41
  -3  10   5   30.69    6.56
  -3  10   5   32.73    6.40
   3  10  -5   50.12    8.00
   3  10  -5   30.79    5.65
  -2 -10   5   53.08    6.10
  -2  10   5   59.41    7.12
   2  10  -5   55.58    7.35
   2  10  -5   54.98    6.50
  -2  10   5   51.79    6.94
  -1  10   5   35.54    6.55
   1  10  -5   40.15    6.45
   1  10  -5   36.20    5.96
  -1 -10   5   36.18    5.54
   0  10  -5  218.38   11.22
   0  10  -5  191.83   11.79
   0  10   5  174.23   12.34
   0 -10   5  174.86   10.56
  -1  10  -5  174.42   11.43
   1 -10   5  160.44   10.10
   1  10   5  161.98   12.44
  -2  10  -5  315.82   16.80
   2 -10   5  293.04   15.40
   2  10   5  299.05   17.70
   2 -10   5  296.61   15.01
  -3  10  -5  243.19   15.83
   3 -10   5  248.67   13.93
   3 -10   5  241.91   14.92
   3  10   5  264.55   16.79
   4  10   5   95.87   10.12
   4 -10   5  122.14   10.05
   4  10   5  106.35   11.57
   4 -10   5  103.53   10.97
  -4  10  -5  106.17   11.51
   5 -10   5   20.72    5.90
   5  10   5   30.56    8.26
  -5  10  -5   12.67    7.12
   5  10   5   24.16    7.23
   5 -10   5   37.46    9.00
  -6  10  -5   -2.64    6.35
   6 -10   5    6.16    7.04
   6 -10   5    3.83    4.85
   6  10   5    5.05    6.66
   8  11  -5   21.40    7.60
  -8  11   5   27.10    8.41
  -7  11   5   69.62   11.67
   7  11  -5   67.40   10.96
  -6  11   5   81.55   11.80
  -6 -11   5   81.12    8.67
   6  11  -5   78.91   10.60
  -6  11   5   74.08    9.03
  -5 -11   5   92.94    8.72
  -5  11   5  100.86   11.37
  -5 -11   5  111.89    9.05
  -5  11   5  121.05   10.46
   5  11  -5  126.79   12.09
  -4  11   5  218.44   14.87
  -4  11   5  243.37   14.49
   4  11  -5  223.84   15.73
   4  11  -5  209.75   12.39
   3  11  -5  195.78   14.17
   3  11  -5  207.99   12.19
  -3  11   5  189.81   13.05
  -3  11   5  196.04   12.86
   2  11  -5    1.38    3.32
  -2  11   5    0.32    3.04
  -2 -11   5    2.94    3.77
   2  11  -5    0.20    3.87
  -2  11   5    4.84    3.81
  -1 -11   5  331.38   15.61
   1  11  -5  344.81   17.47
  -1  11   5  354.14   18.55
   1  11  -5  338.74   16.83
   0 -11   5  286.96   14.17
   0  11  -5  293.88   15.73
   0  11  -5  297.47   14.85
   0  11   5  287.71   16.89
   1 -11   5   35.94    5.92
  -1  11  -5   31.69    6.31
   1  11   5   42.96    8.04
   2  11   5   10.59    5.12
   2 -11   5   -0.92    2.84
  -2  11  -5    0.87    3.61
   3 -11   5   20.94    5.92
  -3  11  -5   11.70    5.03
   3 -11   5   16.63    5.24
   3  11   5   15.38    6.52
   4  11   5   25.33    7.60
   4  11   5   27.45    7.11
  -4  11  -5   28.68    7.21
   4 -11   5   25.19    7.69
   4 -11   5   28.90    6.35
   5 -11   5  102.73   10.38
  -5  11  -5  121.41   13.69
   5  11   5   90.91   11.35
   5  11   5  109.63   12.44
   5 -11   5   97.78   11.85
   6 -11   5   73.53   12.08
   6  11   5   63.46   11.05
  -8  12   5   32.31    8.98
   8  12  -5   39.63    9.73
   7  12  -5    3.98    5.87
  -7  12   5   -3.97    5.07
  -6  12   5   27.92    7.82
  -6 -12   5   30.66    6.35
   6  12  -5   23.37    7.68
  -5 -12   5   84.58    8.35
  -5  12   5   74.14   10.72
  -5 -12   5   79.81    8.16
   5  12  -5   72.14   10.99
  -5  12   5   84.29    9.07
  -4  12   5  266.98   16.39
   4  12  -5  288.23   15.03
  -4  12   5  256.49   15.94
   4  12  -5  263.84   17.83
  -3  12   5  594.01   25.13
  -3  12   5  545.57   25.70
   3  12  -5  569.89   27.61
   3  12  -5  580.56   24.07
   2  12  -5  691.58   29.31
  -2  12   5  637.17   28.03
   2  12  -5  593.05   25.60
  -1  12   5  158.74   12.03
   1  12  -5  155.83   11.81
  -1 -12   5  152.62   10.66
   1  12  -5  152.50   10.75
   0  12   5   77.93    9.15
   0 -12   5   83.26    7.78
   0  12  -5   97.21    8.81
   1  12   5   50.01    8.75
  -1  12  -5   74.64    8.18
   1 -12   5   61.01    7.21
  -2  12  -5    4.25    3.98
   2 -12   5   -1.20    2.83
   2  12   5    5.14    4.73
  -3  12  -5   31.14    7.32
   3 -12   5   48.11    7.42
   3  12   5   33.09    8.12
   4  12   5  106.27   11.07
   4  12   5  112.60   13.09
  -4  12  -5  128.43   13.13
   4 -12   5  135.88   11.36
   5  12   5  130.97   13.68
   5 -12   5  136.46   11.78
  -5  12  -5  111.69   13.35
   5  12   5   98.66   11.53
   5 -12   5  112.32   12.47
  -7  13   5   84.74   13.24
   7  13  -5   87.12   11.45
  -6  13   5   63.74   10.99
   6  13  -5   85.76   10.98
   5  13  -5   45.56    9.46
  -5 -13   5   45.58    7.25
  -5  13   5   55.37    9.71
  -5  13   5   36.95    7.62
  -5 -13   5   48.24    7.32
   4  13  -5    6.33    4.71
  -4  13   5   14.74    5.51
  -4  13   5    8.41    5.67
   4  13  -5    4.90    5.32
  -3  13   5   42.53    7.35
   3  13  -5   44.53    7.04
   3  13  -5   50.45    9.31
  -3  13   5   40.41    7.59
  -2  13   5  142.54   12.16
   2  13  -5  175.43   13.62
   2  13  -5  150.64   10.99
   1  13  -5  168.21   12.27
  -1  13   5  132.16   11.61
  -1 -13   5  140.41   10.49
   1  13  -5  161.17   11.45
   0 -13   5  107.41    9.10
   0  13  -5  110.19   10.04
   0  13   5  110.52   10.92
  -1  13  -5  561.86   25.55
   1  13   5  561.55   27.94
   1 -13   5  555.30   23.23
  -2  13  -5  575.73   27.26
   2 -13   5  578.38   24.07
   2  13   5  542.76   28.21
   3 -13   5  213.00   13.37
   3  13   5  197.03   15.68
  -3  13  -5  200.63   15.25
  -4  13  -5   60.98   11.05
   4  13   5   32.18    7.75
   4 -13   5   49.03    8.55
   4  13   5   50.11   10.12
   5  13   5   26.13    7.81
  -5  13  -5   42.21   10.69
   5  13   5   33.57    9.57
   5 -13   5   58.46    8.94
  -7  14   5    1.67    6.44
   7  14  -5   15.77    7.41
  -6  14   5   -4.53    5.30
   6  14  -5    1.96    5.61
   5  14  -5    2.69    5.69
  -5  14   5   -3.05    5.03
  -5 -14   5    3.70    3.74
  -5 -14   5    3.96    4.71
  -5  14   5    1.91    4.23
   4  14  -5   14.48    6.46
  -4  14   5   15.70    5.83
   4  14  -5   11.20    5.19
  -4  14   5   26.37    6.72
   3  14  -5  108.30    9.75
  -3  14   5  119.48   11.21
   3  14  -5  115.03   12.52
   2  14  -5  129.10   12.68
  -2  14   5  124.78   11.63
   2  14  -5   98.69    9.46
   1  14  -5    8.36    5.39
   1  14  -5   11.76    4.94
  -1  14   5    9.74    5.39
  -1 -14   5    6.94    4.14
   0 -14   5   -2.36    3.51
   0  14  -5    0.34    3.93
   0  14   5    1.25    4.52
   1  14   5   21.40    7.33
  -1  14  -5   24.87    6.75
   1 -14   5   19.81    5.52
  -2  14  -5   80.73    9.79
   2 -14   5   97.35    9.18
   2  14   5   79.08   12.05
  -3  14  -5  145.72   13.31
   3  14   5  142.23   14.24
   3 -14   5  159.98   12.09
  -4  14  -5    7.35    6.20
   4 -14   5    7.38    5.19
   4  14   5   15.33    7.40
   4  14   5    9.57    6.54
   5  14   5   10.42    6.79
   5  14   5    5.59    7.71
  -7  15   5    6.59    6.33
  -6  15   5    9.01    6.24
   6  15  -5   11.49    6.60
   5  15  -5    6.44    6.98
  -5  15   5   -2.80    4.74
  -4  15   5   -7.13    3.50
  -4  15   5    4.85    4.77
   4  15  -5  -12.35    4.82
   4  15  -5    4.06    4.77
  -3  15   5   -5.41    4.00
   3  15  -5    9.56    4.86
   3  15  -5   -2.43    5.30
   2  15  -5   -0.13    4.11
   2  15  -5    3.09    5.72
  -2  15   5   -1.12    4.45
  -1  15   5   19.98    7.00
   1  15  -5   15.59    5.60
   0  15   5   14.37    6.23
   0 -15   5   13.68    5.02
   0  15  -5   15.69    5.80
  -1  15  -5   62.44    9.39
   1 -15   5   58.89    8.49
   1  15   5   77.59   11.84
   2  15   5   56.05   10.12
   2 -15   5   45.35    7.44
  -2  15  -5   36.23    8.45
  -3  15  -5    9.68    6.81
   3 -15   5   10.40    5.00
   3  15   5   10.10    6.58
   4 -15   5   15.87    6.08
   4  15   5   24.57    7.04
   4  15   5   35.05    9.65
   6  16  -5   15.52    8.13
  -6  16   5   16.10    7.56
   5  16  -5   30.88    9.28
  -5  16   5   37.67    8.72
  -4  16   5   13.26    5.81
   4  16  -5    0.14    4.88
   4  16  -5   -1.34    6.39
  -3  16   5    2.54    5.32
   3  16  -5    3.83    5.95
   3  16  -5    6.79    5.32
   2  16  -5    6.79    6.44
  -2  16   5    0.06    4.82
   2  16  -5   -1.67    4.19
   1  16  -5    4.68    4.92
  -1  16   5    8.19    5.60
   0 -16   5   23.11    6.02
   0  16  -5   26.31    6.95
   0  16   5   44.25    9.25
   1 -16   5   79.58    9.06
  -1  16  -5   59.48    9.69
   1  16   5   62.66   11.10
   2  16   5    3.65    6.08
  -2  16  -5   -0.25    5.20
   2 -16   5   -0.68    3.90
  -3  16  -5   11.19    6.87
   3  16   5    0.16    6.27
   3 -16   5    5.89    4.94
  -6  17   5    7.12    7.28
   5  17  -5    7.01    7.26
   4  17  -5    8.20    7.59
  -4  17   5   15.82    7.53
   3  17  -5    3.45    7.07
  -3  17   5    3.92    5.86
   3  17  -5   -5.43    4.96
   2  17  -5   -0.20    4.76
  -2  17   5    3.68    5.64
   2  17  -5    1.47    6.25
  -1  17   5   96.32   12.07
   1  17  -5   76.63    9.58
   0  17  -5  275.40   17.79
   0 -17   5  297.83   17.36
   0  17   5  284.30   20.58
  -1  17  -5  195.09   15.21
   1 -17   5  216.34   14.69
   1  17   5  214.14   17.59
  -2  17  -5   80.07   11.99
   2 -17   5   82.20    9.26
   2  17   5   74.45   12.88
   4  18  -5   60.31   13.12
   3  18  -5   95.70   15.78
   3  18  -5  101.35   11.14
  -3  18   5  112.26   13.62
   2  18  -5   50.41    8.95
  -2  18   5   51.37   10.70
   1  18  -5   19.43    6.58
  -1  18   5   26.12    8.68
   0  18  -5   97.50   11.35
   0  18   5   90.17   12.25
  -1  18  -5   88.19   11.16
   1 -18   5  101.81   10.44
   1  18   5   97.00   12.98
  -3  19   5   34.24    9.26
   3  19  -5   28.05   10.46
   2  19  -5   -0.99    5.15
  -2  19   5    3.50    7.10
  -1  19   5   15.20    7.68
   1  19  -5    5.51    5.67
   0  19  -5   22.84    7.54
 -10   0   6   10.09    7.95
  -9   0   6  -11.90    5.43
  -8   0   6   25.05    7.74
  -7   0   6  158.77   13.40
  -6   0   6  696.62   29.70
  -5   0   6  217.93   13.35
  -4   0   6    3.19    3.21
  -3   0   6  181.20   10.53
  -3   0   6  191.00    7.37
  -2   0   6  529.25   17.17
  -2   0   6  579.75   21.30
  -2   0   6  530.57   20.84
   1   0  -6 3171.43   96.27
   0   0  -6 2470.98   75.91
   1   0   6  395.61   17.20
  -1   0  -6  403.14   15.80
   1   0   6  382.71   16.05
  -2   0  -6   62.33    5.57
   2   0   6   64.47    7.22
   2   0   6   69.30    6.15
   3   0   6  404.98   20.36
  -3   0  -6  473.12   18.42
   4   0   6  172.50   13.12
   5   0   6   -5.31    4.07
   6   0   6   51.55    9.90
 -10  -1   6  -11.86    6.67
 -10   1   6  -16.61    6.56
  -9   1   6   22.86    8.54
  -9  -1   6   19.01    8.33
  -8  -1   6   43.99    9.14
  -8   1   6   39.81    9.24
  -7   1   6   65.93   10.32
  -7  -1   6   58.83    9.40
  -6   1   6    4.13    4.17
  -6  -1   6    1.47    3.53
  -5  -1   6   53.60    6.62
  -5   1   6   39.87    6.88
  -4  -1   6   75.25    7.01
  -4   1   6   54.42    6.44
  -3   1   6   20.98    2.38
  -3  -1   6   38.10    5.60
  -3  -1   6   28.23    4.94
  -3   1   6   21.48    4.54
  -3  -1   6   21.42    2.79
  -2   1   6   30.65    4.80
  -2  -1   6   30.05    4.55
  -2  -1   6   30.55    4.74
  -2   1   6   27.84    2.95
  -2   1   6   23.10    4.14
  -2  -1   6   31.29    3.37
  -1   1   6  419.68   16.97
  -1   1   6  441.44   16.98
   1   1  -6  416.21   16.96
   0  -1  -6  171.65    8.60
   0   1  -6  166.37    8.97
   1   1   6  158.53    9.45
   1  -1   6  154.53    9.85
  -1   1  -6  177.89    9.33
   1  -1   6  180.05    9.36
  -1  -1  -6  182.95    8.90
   2  -1   6    1.09    2.55
   2   1   6    2.48    3.02
  -2   1  -6    2.03    2.29
   2   1   6    9.05    4.07
  -2  -1  -6   -0.59    1.98
   2  -1   6   -1.03    3.10
   3   1   6    3.28    3.94
   3  -1   6    0.93    3.56
  -3   1  -6    2.58    2.67
   4  -1   6  175.64   13.25
   4   1   6  198.83   13.99
   5   1   6  105.19   11.39
   5  -1   6  137.10   12.82
   6   1   6   70.52   11.34
   6  -1   6   70.25   11.79
 -10  -2   6    4.26    7.98
 -10   2   6   -2.56    6.80
  -9  -2   6   -3.03    6.23
  -9   2   6   -8.51    5.36
  -8   2   6    7.87    6.55
  -8  -2   6   10.50    5.92
  -7  -2   6  227.66   15.38
  -7   2   6  179.63   15.05
  -6   2   6 1055.40   41.37
  -6  -2   6 1078.77   40.56
  -5  -2   6 2574.65   81.70
  -5   2   6 2474.40   82.30
  -4   2   6  645.19   26.33
  -4  -2   6  678.26   26.14
  -3   2   6  452.85   13.36
  -3  -2   6  437.58   15.10
  -3  -2   6  447.85   18.76
  -3  -2   6  486.31   19.19
  -3   2   6  430.00   18.77
  -2  -2   6 2338.40   63.37
   2   2  -6 2280.93   71.44
  -2   2   6 2224.69   71.19
   1   2  -6 3059.46   95.41
  -1   2   6 3175.34   95.07
  -1  -2   6 3119.07   86.06
  -1   2   6 3160.08   95.00
   0   2  -6  441.36   17.43
   0  -2   6  422.04   17.05
   0  -2  -6  418.40   16.27
   0   2   6  434.69   18.10
   1  -2   6  202.62   11.02
  -1  -2  -6  191.98    9.22
   1   2   6  201.12   10.83
  -1   2  -6  198.96   10.37
   2  -2   6  252.91   13.74
   2   2   6  254.51   12.53
   2   2   6  210.82   12.83
  -2   2  -6  257.14   12.41
   3   2   6   32.60    5.72
   3  -2   6   33.37    6.71
  -3   2  -6   26.23    4.83
   3   2   6   29.07    6.17
  -4   2  -6   61.85    7.03
   4  -2   6   55.46    9.08
   4   2   6   58.43    8.89
   5  -2   6  135.99   12.82
   5   2   6  116.67   12.14
   6  -2   6   23.78    8.49
   6   2   6   24.28    8.17
 -10  -3   6  118.81   15.54
  -9   3   6   53.97   11.12
  -9  -3   6   67.70   11.94
  -8  -3   6   35.84    8.63
  -8   3   6   41.83   10.13
  -7  -3   6  339.76   19.09
  -7   3   6  323.59   20.21
  -6   3   6  894.50   37.31
  -6  -3   6  940.00   36.01
  -5  -3   6  918.37   34.99
  -5   3   6  942.71   36.02
  -4   3   6    9.09    3.69
  -4  -3   6    5.37    3.21
  -4  -3   6    6.76    3.18
  -3   3   6  258.38   13.28
  -3  -3   6  265.44   10.66
  -3  -3   6  278.84   13.63
  -3  -3   6  257.76   13.21
  -2   3   6  989.41   33.84
  -2  -3   6  952.26   29.70
   2   3  -6 1017.49   34.27
   1   3  -6 2061.72   70.01
  -1   3   6 2318.16   69.50
  -1  -3   6 2355.81   63.60
   0   3   6 1387.65   46.07
   0  -3   6 1446.88   44.32
   0   3  -6 1177.79   44.24
   0   3   6 1355.99   43.19
   0   3   6 1431.64   43.44
   1   3   6  846.58   30.81
  -1  -3  -6  852.48   27.98
  -1   3  -6  840.18   30.18
   1  -3   6  831.72   30.24
   2  -3   6  100.81    8.45
  -2   3  -6   99.43    7.47
   2   3   6   77.03    7.39
   3   3   6  284.35   14.82
   3  -3   6  298.52   16.64
   3   3   6  290.85   16.20
  -3   3  -6  312.84   15.23
   4  -3   6  231.34   14.84
   4   3   6  168.40   13.50
  -4   3  -6  219.67   13.15
   5   3   6   -5.62    4.62
   5  -3   6   -3.36    4.97
   6   3   6   55.57   10.76
   6  -3   6   40.23    9.68
 -10  -4   6   85.93   14.60
  -9   4   6   39.81    9.80
  -9  -4   6   48.78   10.28
  -8  -4   6   -0.62    4.96
  -8   4   6   -3.40    4.45
  -7   4   6   13.51    7.13
   7   4  -6   17.67    6.18
  -7  -4   6   11.78    4.72
  -6   4   6   31.69    7.50
   6   4  -6   41.60    7.81
  -6  -4   6   39.20    7.08
  -5   4   6   -3.96    3.44
  -5  -4   6    5.85    3.86
   5   4  -6    4.77    4.20
  -4  -4   6  105.96    8.64
  -4   4   6  116.16    9.37
  -4  -4   6  112.73    8.54
  -3  -4   6   99.04    6.17
  -3  -4   6   95.20    7.38
   3   4  -6   99.84    7.64
  -3  -4   6   89.96    7.38
  -3   4   6  100.13    8.03
  -2   4   6   10.19    3.24
  -2  -4   6   10.40    2.80
   2   4  -6    5.97    2.91
  -1  -4   6  113.42    6.60
  -1  -4   6  110.57    7.06
   1   4  -6  118.31    7.76
  -1   4   6  125.30    8.56
  -1   4   6  103.59    6.91
   0  -4   6   65.07    5.86
   0   4  -6   66.34    5.94
   0   4   6   61.63    6.66
   0   4   6   63.57    5.00
   0  -4   6   55.94    5.62
  -1   4  -6   37.09    4.65
   1   4   6   38.85    3.96
   1   4   6   32.73    5.33
   1   4   6   43.79    3.98
   1  -4   6   29.26    5.15
  -2   4  -6  492.91   20.63
   2   4   6  490.26   20.93
   2  -4   6  491.66   21.43
   3   4   6  576.91   25.57
   3   4   6  611.51   24.89
  -3   4  -6  595.17   24.63
   3  -4   6  578.33   25.52
   4   4   6  576.62   26.60
   4  -4   6  590.62   27.02
  -4   4  -6  589.19   25.82
   5   4   6  136.98   12.59
   5  -4   6  116.00   12.71
   6   4   6   22.57    7.45
   6  -4   6   -0.79    6.53
 -10  -5   6   55.54   12.31
  -9   5   6   -7.98    5.73
  -9  -5   6    3.60    6.43
   8   5  -6   19.62    7.19
  -8   5   6   20.88    7.69
  -8  -5   6   13.56    6.23
   7   5  -6    1.30    4.40
  -7  -5   6    9.95    4.68
  -7   5   6    3.01    6.04
   6   5  -6  172.18   12.89
  -6   5   6  166.30   14.22
  -6  -5   6  172.59   12.06
   5   5  -6   23.06    5.92
  -5   5   6   19.78    6.24
  -5  -5   6   14.79    4.38
   4   5  -6   35.78    6.49
  -4  -5   6   26.59    5.11
  -4   5   6   23.23    5.81
  -4  -5   6   31.84    5.45
   3   5  -6    0.24    2.85
  -3  -5   6   -3.75    2.03
  -3   5   6   -0.84    2.83
   3   5  -6   -1.64    2.54
   2   5  -6    4.45    2.60
  -2  -5   6    6.88    1.96
  -2  -5   6   11.05    2.90
  -2   5   6   13.56    3.74
  -1   5   6    9.87    2.92
  -1  -5   6   13.84    3.35
  -1  -5   6   18.54    3.10
   1   5  -6    9.87    3.33
  -1   5   6    4.75    3.15
   0   5   6    7.79    2.75
   0  -5   6    7.85    2.88
   0  -5   6    1.82    2.57
   0   5   6    8.13    3.58
   0   5  -6   -0.89    2.23
  -1   5  -6   40.25    4.96
   1  -5   6   29.96    5.28
   1   5   6   36.10    5.77
   2  -5   6   10.60    4.40
  -2   5  -6   13.93    3.96
   2   5   6   10.70    4.31
   3  -5   6  172.84   12.38
   3   5   6  171.74   12.12
   3   5   6  169.14   11.81
  -3   5  -6  160.61   11.31
   4   5   6  226.13   14.98
  -4   5  -6  249.66   15.04
   4  -5   6  221.48   15.80
   5   5   6   37.09    8.55
   5  -5   6   30.03    8.46
  -5   5  -6   31.91    7.11
   6  -5   6    4.82    6.77
   6   5   6    5.71    6.12
   9   6  -6    5.64    6.41
  -9  -6   6   11.96    7.09
  -9   6   6    5.97    6.80
  -8  -6   6   -1.42    4.87
  -8   6   6    8.14    7.00
   8   6  -6   -2.28    5.14
  -7   6   6   14.96    7.16
   7   6  -6    6.33    5.84
  -7  -6   6   14.00    5.22
  -6   6   6    3.20    4.85
   6   6  -6    6.18    4.99
  -6  -6   6    2.31    3.43
  -5   6   6   58.75    9.39
  -5  -6   6   65.01    7.28
   5   6  -6   63.48    8.57
  -5  -6   6   68.41    7.40
  -4  -6   6   93.65    8.22
  -4  -6   6  116.15    8.87
  -4   6   6  120.55   10.40
   4   6  -6  130.87   10.43
   3   6  -6  125.71    9.85
  -3  -6   6  141.62    8.22
   3   6  -6  131.70    9.25
  -3   6   6  121.94    9.57
  -2   6   6    3.66    3.15
   2   6  -6    2.55    2.59
   2   6  -6    5.58    3.42
  -2   6   6    6.90    3.48
  -2  -6   6    6.23    2.78
  -1   6   6   13.24    3.25
  -1  -6   6    4.59    2.23
  -1   6   6    4.16    3.30
   1   6  -6    1.98    2.50
  -1  -6   6    6.46    2.93
   0   6   6   69.54    5.34
   0  -6   6   69.62    6.24
   0   6   6   71.94    7.42
   0   6  -6   82.97    7.10
   0  -6   6   70.88    6.04
  -1   6  -6   38.05    5.74
   1  -6   6   39.77    5.60
   1  -6   6   38.27    5.72
   1   6   6   24.74    5.34
   2  -6   6   -0.61    3.59
   2   6   6   -0.69    3.29
  -2   6  -6   -0.04    2.48
   3  -6   6   88.41   10.07
   3   6   6   84.72    8.96
   3   6   6   79.24    8.66
  -3   6  -6   97.81    9.00
   4   6   6   97.56   10.18
   4   6   6  113.64   10.46
  -4   6  -6   93.41    9.55
   4  -6   6   82.12   10.56
   5   6   6   51.01    9.31
  -5   6  -6   71.34    9.37
   5  -6   6   69.63   10.97
   6  -6   6   13.47    8.12
   6   6   6   11.80    6.68
   9   7  -6   37.26    9.04
  -9   7   6   33.98    9.17
  -9  -7   6   54.75   10.47
  -8   7   6   -0.18    6.51
  -8  -7   6    3.34    4.71
   8   7  -6    5.17    5.95
  -7  -7   6   22.47    6.17
  -7   7   6   32.60    8.87
   7   7  -6   28.95    7.61
  -6  -7   6   87.33    8.99
  -6   7   6   85.58   11.13
   6   7  -6   75.65    9.36
  -5  -7   6    7.79    3.99
  -5  -7   6   15.12    4.61
   5   7  -6   12.87    5.38
  -5   7   6   13.67    5.82
  -4   7   6   32.13    6.59
   4   7  -6   32.26    6.59
  -4  -7   6   21.98    4.79
  -4  -7   6   35.75    5.99
   3   7  -6    4.02    3.04
  -3  -7   6   10.95    3.63
  -3   7   6    5.11    3.63
   3   7  -6    9.96    4.58
  -3   7   6    2.89    4.18
  -2   7   6   -0.62    2.78
  -2  -7   6    1.28    2.92
  -2   7   6    3.97    3.54
   2   7  -6    8.09    3.67
   2   7  -6   -0.96    2.85
  -1   7   6   41.53    5.50
   1   7  -6   46.37    5.80
  -1  -7   6   37.05    5.16
  -1   7   6   41.31    6.64
   0  -7   6  249.31   12.82
   0   7   6  265.88   14.93
   0   7  -6  304.14   14.78
   0  -7   6  284.91   12.77
   1  -7   6   79.88    7.57
  -1   7  -6   88.62    7.90
   1  -7   6   81.69    7.60
   1   7   6   98.72    8.59
   2   7   6   58.71    7.66
  -2   7  -6   71.61    7.53
   2  -7   6   57.84    7.46
   2  -7   6   63.21    6.93
  -3   7  -6  122.84   10.41
   3  -7   6  123.85   10.94
   3   7   6  124.65   10.88
  -4   7  -6   -3.25    3.67
   4   7   6    0.93    4.58
   4  -7   6   -3.19    5.73
   4   7   6   -0.75    4.66
  -5   7  -6   48.56    9.30
   5  -7   6   29.39    8.80
   5   7   6   39.17    8.57
  -6   7  -6  122.77   13.76
   6  -7   6  100.23   13.47
   6   7   6  107.85   12.45
   9   8  -6   19.10    8.14
  -9   8   6   19.41    8.99
  -8   8   6   18.92    8.36
   8   8  -6   21.59    7.71
  -8  -8   6   24.19    6.81
  -7  -8   6    3.64    4.58
   7   8  -6    9.30    5.98
  -7   8   6    9.83    7.43
  -6  -8   6   59.56    7.37
   6   8  -6   54.11    9.40
  -6   8   6   59.73   10.16
  -5   8   6  172.70   11.76
  -5   8   6  148.81   13.29
  -5  -8   6  158.21   11.04
  -5  -8   6  165.93   11.41
   5   8  -6  187.85   13.63
   4   8  -6   50.52    8.05
   4   8  -6   45.62    6.70
  -4   8   6   57.46    8.67
  -4   8   6   44.86    7.08
  -4  -8   6   47.47    6.20
  -4  -8   6   58.30    6.76
  -3   8   6   80.37    8.55
   3   8  -6   97.52    8.41
   3   8  -6   94.17    9.04
  -3   8   6  102.70    8.95
  -2  -8   6  135.41    8.83
  -2   8   6  143.77   10.66
  -2   8   6  158.98   10.53
   2   8  -6  159.86   10.83
   2   8  -6  142.80    9.97
  -1   8   6  261.54   12.92
  -1   8   6  277.57   15.20
  -1  -8   6  284.36   13.10
   1   8  -6  223.08   13.05
   1   8  -6  287.27   14.31
   0   8   6    2.48    3.73
   0   8  -6    3.27    3.10
   0  -8   6    0.68    2.85
   1  -8   6  101.60    8.70
  -1   8  -6  113.01    9.21
   1   8   6  118.38   10.18
   1  -8   6  108.79    8.55
   2  -8   6  124.75    9.36
   2  -8   6  118.86   10.11
  -2   8  -6  116.97    9.85
   2   8   6  136.70   11.48
   3  -8   6  181.64   12.14
  -3   8  -6  179.76   12.95
   3  -8   6  203.36   13.99
   3   8   6  163.05   13.01
   4   8   6  233.44   16.07
   4   8   6  257.65   16.71
  -4   8  -6  277.34   17.63
   4  -8   6  272.10   15.67
   4  -8   6  269.45   17.43
  -5   8  -6  281.16   19.38
   5   8   6  251.08   17.55
   5  -8   6  271.70   18.95
   6  -8   6  140.66   14.99
  -6   8  -6  130.70   14.52
   9   9  -6    0.38    6.70
  -8   9   6   29.85    9.57
  -8  -9   6   21.33    6.83
   8   9  -6   29.89    8.32
  -7   9   6   94.71    9.46
   7   9  -6  102.56   11.41
  -7   9   6  125.14   13.25
  -7  -9   6   91.76   10.11
   6   9  -6   92.61   10.63
  -6   9   6   87.55   11.44
  -6  -9   6   82.06    8.60
  -6   9   6   89.93    8.92
  -5  -9   6   58.13    6.95
   5   9  -6   55.52    9.02
  -5   9   6   72.40    8.09
  -5  -9   6   54.05    7.78
  -5   9   6   50.68    9.41
  -4   9   6   57.48    7.43
   4   9  -6   51.06    6.53
   4   9  -6   59.81    9.23
  -4   9   6   57.04    9.24
  -3   9   6    1.53    4.00
   3   9  -6    5.64    4.45
  -3   9   6   -0.97    3.96
   3   9  -6   -0.01    3.29
   2   9  -6  121.87    9.93
  -2   9   6  118.92    9.76
   2   9  -6  108.36    8.66
  -2  -9   6   99.67    8.07
  -2   9   6  100.64    9.52
   1   9  -6  291.33   15.54
  -1   9   6  315.07   17.29
  -1  -9   6  332.40   14.91
   1   9  -6  343.25   15.94
   0  -9   6  204.59   11.59
   0   9  -6  191.53   12.07
   0   9   6  211.22   13.47
  -1   9  -6  137.39   10.56
   1   9   6  131.81   11.37
   1  -9   6  163.41   10.64
   2  -9   6   65.13    8.13
   2  -9   6   67.29    7.54
   2   9   6   54.93    8.63
  -2   9  -6   62.59    7.32
   3  -9   6   30.22    7.65
   3   9   6   33.65    7.77
  -3   9  -6   44.97    7.78
   3  -9   6   39.22    6.45
   4  -9   6   16.75    5.30
   4   9   6   23.13    7.02
   4   9   6   18.89    6.75
  -4   9  -6   38.37    8.56
   4  -9   6   29.51    8.38
   5  -9   6   82.96    9.26
  -5   9  -6   82.81   12.42
   5   9   6   88.58   11.10
   5  -9   6   96.71   12.82
  -6   9  -6   52.12   11.45
   6  -9   6   15.49    8.91
  -8  10   6   16.08    8.72
   8  10  -6   21.77    7.70
  -7  10   6   57.12   11.41
  -7 -10   6   69.55    8.94
   7  10  -6   78.13   11.70
  -6 -10   6    3.00    4.23
   6  10  -6    7.88    5.31
  -6  10   6    0.09    5.80
  -6  10   6    3.04    4.81
  -5 -10   6    4.03    3.83
  -5  10   6    3.69    4.19
  -5  10   6    5.64    5.81
  -5 -10   6   11.37    4.30
   5  10  -6    8.76    5.19
  -4  10   6    6.03    4.51
   4  10  -6    7.23    5.04
  -4  10   6   -3.19    4.35
   4  10  -6    1.88    3.57
  -3  10   6   31.43    6.60
   3  10  -6   52.16    8.47
  -3  10   6   39.38    7.33
   3  10  -6   35.78    6.36
   2  10  -6    9.76    4.13
   2  10  -6   17.97    5.07
  -2 -10   6   17.81    4.65
  -2  10   6   15.34    5.07
  -2  10   6    5.97    4.48
   1  10  -6    5.91    3.88
  -1  10   6   16.66    5.25
  -1 -10   6   22.04    4.95
   1  10  -6   19.14    5.14
   0 -10   6  148.13    9.98
   0  10  -6  111.09    9.29
   0  10   6  117.75   10.39
   1  10   6  370.89   20.09
  -1  10  -6  380.14   19.07
   1 -10   6  353.44   17.14
   2  10   6   89.08   10.35
  -2  10  -6   94.12    9.50
   2 -10   6  100.30    9.10
   3 -10   6    9.19    4.36
   3  10   6   13.17    6.19
  -3  10  -6    0.03    3.81
   4 -10   6   -4.85    5.47
  -4  10  -6    5.24    4.78
   4  10   6    0.83    5.63
   4  10   6    0.11    4.75
   4 -10   6    0.70    4.23
   5 -10   6   57.87   10.48
   5 -10   6   52.43    8.57
  -5  10  -6   61.73   11.07
   5  10   6   57.05    9.72
  -8  11   6   42.57   10.33
   8  11  -6   62.59   10.93
   7  11  -6   60.91   10.85
  -7 -11   6   70.73   10.17
  -7  11   6   75.26   12.20
   6  11  -6   60.69   10.21
  -6  11   6   51.71    9.95
  -6  11   6   56.35    8.82
  -6 -11   6   47.35    7.71
  -5  11   6   16.85    6.71
  -5  11   6    8.81    5.21
  -5 -11   6    7.82    4.21
  -5 -11   6   10.30    4.75
   5  11  -6    9.75    5.54
  -4  11   6    6.49    4.78
   4  11  -6    2.12    3.99
  -4  11   6    5.40    5.15
   4  11  -6    2.19    4.63
  -3  11   6    7.41    5.03
  -3  11   6    9.53    5.01
   3  11  -6   13.88    5.65
   3  11  -6   16.86    5.03
  -2  11   6   65.75    8.10
   2  11  -6   54.00    6.99
  -2 -11   6   61.51    7.34
   2  11  -6   73.63    8.65
  -1 -11   6   64.00    7.24
  -1  11   6   56.86    8.59
   1  11  -6   63.32    7.68
   1  11  -6   52.41    7.66
   0  11  -6  289.70   16.43
   0 -11   6  297.77   15.28
   0  11   6  279.54   17.20
  -1  11  -6  180.41   12.70
   1  11   6  172.91   13.91
   1 -11   6  180.27   11.66
   2  11   6   74.38   11.06
   2 -11   6   73.15    8.25
  -2  11  -6   78.21    8.89
   3 -11   6    4.79    4.19
   3  11   6    0.89    5.12
  -3  11  -6    0.58    4.37
  -4  11  -6   19.86    6.66
   4 -11   6    9.87    5.49
   4  11   6    8.38    6.12
   4  11   6    9.85    5.82
   5  11   6   27.42    8.33
  -5  11  -6   37.03   10.01
   5  11   6   27.30    7.96
   5 -11   6   13.54    6.28
  -8  12   6   55.38   11.04
   7  12  -6  102.28   12.78
  -7  12   6  115.96   13.26
   6  12  -6   84.47   12.72
  -6  12   6   83.34    9.90
  -6 -12   6   74.19    8.52
  -6  12   6   69.20   11.14
  -6 -12   6   58.16    8.72
  -5 -12   6   17.79    5.15
  -5  12   6   26.37    6.87
   5  12  -6   27.83    7.94
  -5  12   6   24.94    7.76
  -5 -12   6   18.47    5.69
   4  12  -6  122.79   10.60
   4  12  -6  112.78   11.93
  -4  12   6  145.26   12.75
  -4  12   6  150.06   12.08
   3  12  -6  146.91   10.88
   3  12  -6  163.45   13.29
  -3  12   6  142.37   12.11
  -3  12   6  134.63   10.99
  -2 -12   6   68.93    8.02
   2  12  -6   69.93    7.85
  -2  12   6   71.20    8.47
   2  12  -6   74.44    9.13
   1  12  -6    7.09    4.51
   1  12  -6   11.40    4.92
  -1 -12   6   10.84    4.65
  -1  12   6    1.96    4.49
   0 -12   6  141.03   10.56
   0  12  -6  133.93   11.32
   0  12   6  128.86   12.18
   1 -12   6  196.04   12.57
  -1  12  -6  207.46   13.99
   1  12   6  177.24   14.69
  -2  12  -6    5.38    4.54
   2  12   6    2.74    5.49
   2 -12   6    9.67    4.36
   3 -12   6   37.57    7.24
   3  12   6   34.22    8.34
  -3  12  -6   30.36    7.27
  -4  12  -6   25.83    7.26
   4  12   6   19.32    8.05
   4  12   6   20.24    7.36
   4 -12   6   28.57    7.16
   5  12   6   28.24    9.36
  -7  13   6   18.25    8.11
   7  13  -6   20.78    7.40
  -6  13   6   13.14    5.82
  -6 -13   6    4.18    4.35
  -6 -13   6    9.79    5.12
  -6  13   6    3.98    6.10
   6  13  -6    9.92    6.63
   5  13  -6    4.13    6.17
  -5  13   6    6.13    5.23
  -5 -13   6    7.18    5.28
  -5 -13   6   12.37    5.04
  -5  13   6    4.65    5.37
  -4  13   6    0.46    4.72
   4  13  -6    6.48    4.96
  -4  13   6    2.02    4.67
   4  13  -6    7.75    5.61
   3  13  -6    4.06    4.55
  -3  13   6   13.81    5.54
   3  13  -6   -0.33    4.70
   2  13  -6  124.51   10.61
  -2  13   6  109.51   11.16
   2  13  -6   97.65   10.69
  -1  13   6    6.18    4.59
   1  13  -6   18.00    5.60
  -1 -13   6   19.32    5.71
   0 -13   6   71.74    8.43
   0  13   6   76.53   11.25
   0  13  -6   66.73    8.92
   1 -13   6  176.69   12.21
   1  13   6  150.63   13.58
  -1  13  -6  164.46   12.99
   2 -13   6   82.65    8.84
  -2  13  -6   69.37    9.29
   2  13   6   69.49   11.05
   3 -13   6   27.88    6.88
   3  13   6   30.24    8.30
  -3  13  -6   27.08    7.46
   4  13   6    6.29    6.26
   4 -13   6   10.72    5.85
  -4  13  -6   16.82    7.45
   4  13   6    6.51    6.90
  -7  14   6   31.31    8.72
   6  14  -6    0.80    6.79
  -6  14   6   -3.22    5.90
  -5 -14   6   20.82    6.08
   5  14  -6   10.96    7.09
  -5  14   6   10.94    6.64
  -5  14   6   16.21    6.29
  -5 -14   6   23.03    5.49
   4  14  -6  192.89   16.24
   4  14  -6  138.58   11.73
  -4  14   6  160.07   13.41
  -3  14   6  371.35   21.15
   3  14  -6  409.77   23.31
   3  14  -6  352.88   19.18
   2  14  -6   47.07    9.06
   2  14  -6   43.04    7.84
  -2  14   6   35.83    8.10
  -1 -14   6  100.28    9.87
  -1  14   6  107.28   11.24
   1  14  -6   75.55    9.19
   0  14   6  219.36   16.62
   0 -14   6  215.45   13.63
   0  14  -6  206.37   14.50
  -1  14  -6  250.82   16.97
   1 -14   6  278.61   15.74
   1  14   6  243.23   18.31
   2 -14   6  114.66   10.40
  -2  14  -6  103.67   11.51
   2  14   6  102.90   12.36
   3 -14   6   -7.92    3.69
  -3  14  -6    1.36    5.16
   3  14   6    2.54    6.26
   4  14   6   -4.58    6.21
   4  14   6    0.68    6.19
  -7  15   6   -1.28    5.87
  -6  15   6   -2.79    5.15
   6  15  -6   -0.14    6.66
  -5 -15   6   19.57    6.00
  -5 -15   6   29.58    7.00
  -5  15   6   37.46    8.46
   5  15  -6   31.42   10.02
  -5  15   6   30.70    7.91
   4  15  -6   93.14   14.15
  -4  15   6  100.04   11.69
   4  15  -6  106.39   10.64
   3  15  -6    5.37    5.29
  -3  15   6    0.79    5.07
   3  15  -6   -2.83    5.96
   2  15  -6   17.51    6.98
  -2  15   6   25.85    7.56
   2  15  -6    9.26    5.23
  -1 -15   6   10.65    5.53
  -1  15   6   26.24    7.47
   1  15  -6   22.33    6.77
   0 -15   6   36.56    7.21
   0  15   6   39.75    8.52
   0  15  -6   43.77    8.45
   1  15   6   52.09   10.13
   1 -15   6   34.03    6.83
  -1  15  -6   31.61    7.40
  -2  15  -6    1.56    5.16
   2 -15   6   -0.93    4.36
   2  15   6   13.38    6.14
   3 -15   6    2.57    4.49
   3  15   6    7.97    7.01
  -3  15  -6    6.19    6.38
  -6  16   6   11.21    6.88
  -5  16   6  114.45   12.62
   5  16  -6  128.27   15.13
   4  16  -6  341.45   19.66
   4  16  -6  386.55   25.43
  -4  16   6  417.20   23.75
   3  16  -6  313.97   18.22
  -3  16   6  292.68   20.03
   3  16  -6  307.14   21.76
  -2  16   6  166.81   15.11
   2  16  -6  146.55   12.64
  -1  16   6   -1.60    5.03
   1  16  -6    4.94    5.19
   0 -16   6    1.45    3.96
   0  16  -6   -0.86    4.80
   0  16   6    4.17    5.96
   1 -16   6   -0.02    3.68
   1  16   6   -1.44    5.63
  -1  16  -6    4.39    5.83
   2  16   6    5.34    6.37
  -2  16  -6   -0.79    5.79
   2 -16   6   -4.25    4.55
   5  17  -6   22.35    9.17
   4  17  -6   14.01    8.70
   4  17  -6   14.48    6.85
  -4  17   6   15.05    7.34
   3  17  -6   12.63    6.57
  -3  17   6   11.20    7.08
   3  17  -6    8.34    8.74
   2  17  -6   76.25    9.91
  -2  17   6   77.54   12.27
  -1  17   6   75.05   12.23
   1  17  -6   99.72   10.92
   0  17  -6   83.01   10.43
   0 -17   6   60.66    9.52
   0  17   6   77.83   12.67
  -1  17  -6   48.82    9.37
   1 -17   6   79.88    9.28
   1  17   6   56.92   10.98
   4  18  -6    0.00    7.39
  -4  18   6    2.28    6.32
   3  18  -6   15.49    6.76
  -3  18   6   20.76    8.02
   3  18  -6   16.86    9.47
  -2  18   6    2.64    6.52
   2  18  -6    5.60    5.86
   1  18  -6   -4.28    5.26
  -1  18   6    7.63    6.12
   0  18  -6    0.07    5.35
  -9   0   7    0.48    7.02
  -8   0   7   -6.43    5.28
  -7   0   7   -0.09    4.07
  -6   0   7    0.69    4.12
  -5   0   7    4.06    3.74
  -4   0   7    1.98    3.12
  -3   0   7   -4.52    2.42
  -3   0   7    2.66    3.11
  -3   0   7    1.31    1.77
  -2   0   7   -1.60    2.41
  -2   0   7   -1.07    2.61
  -2   0   7   -0.19    1.67
   1   0  -7   -0.77    2.23
   0   0  -7    1.86    2.31
  -1   0  -7    2.63    2.71
   1   0   7   -1.62    2.82
   1   0   7    2.00    3.31
   2   0   7    1.86    4.00
  -2   0  -7   -0.24    2.61
   3   0   7    2.88    4.91
   4   0   7   -0.80    4.79
   5   0   7    3.52    5.96
   6   0   7    0.25    6.11
  -9   1   7  107.50   14.45
  -9  -1   7  113.00   14.18
  -8   1   7    6.98    6.76
  -8  -1   7    3.56    5.58
  -7   1   7   13.58    5.94
  -7  -1   7   17.72    6.21
  -6  -1   7  359.43   19.35
  -6   1   7  369.21   20.28
  -5   1   7  145.01   10.98
  -5  -1   7  115.75   10.45
  -4   1   7   12.56    4.67
  -4  -1   7   14.39    4.64
  -3  -1   7   64.36    6.76
  -3  -1   7   66.34    4.56
  -3   1   7   64.49    4.16
  -3  -1   7   61.59    6.72
  -3   1   7   57.79    6.65
  -2   1   7    3.67    2.89
  -2   1   7    8.21    2.19
  -2   1   7    3.76    3.07
  -2  -1   7    7.33    3.15
  -2  -1   7    5.12    2.12
  -2  -1   7    1.87    2.89
  -1   1   7   53.31    5.61
  -1   1   7   54.94    5.68
   1   1  -7   67.07    6.04
   0  -1  -7  441.55   17.44
   0   1  -7  423.71   17.71
   0   1   7  422.42   18.53
   1   1   7  165.29   10.58
   1  -1   7  190.79   11.72
   1  -1   7  190.34   10.36
  -1  -1  -7  184.90    9.85
  -1   1  -7  193.47   10.48
  -2   1  -7   12.21    3.73
   2  -1   7   13.49    4.84
   2   1   7   11.26    4.92
   2   1   7   11.24    3.91
   3   1   7   14.48    5.61
   3  -1   7   15.29    5.99
   4  -1   7   71.08   10.55
   4   1   7   56.87    9.31
   5  -1   7   87.09   11.55
   5   1   7   81.88   10.90
   6  -1   7   86.48   13.55
  -9  -2   7   -3.21    6.50
  -9   2   7   10.22    7.49
  -8   2   7   12.72    7.28
  -8  -2   7    0.03    4.57
  -7   2   7   45.70    8.94
  -7  -2   7   52.33    8.78
  -6   2   7  364.01   20.28
  -6  -2   7  373.15   19.50
  -5   2   7  901.33   36.38
  -5  -2   7  963.63   36.01
  -4   2   7  233.34   13.74
  -4  -2   7  240.52   13.70
  -3  -2   7   24.34    5.11
  -3   2   7   34.86    5.65
  -3  -2   7   22.58    5.00
  -3  -2   7   23.41    3.47
  -2   2   7    2.17    2.85
   2   2  -7   -0.79    2.54
  -2  -2   7    1.07    2.00
  -1   2   7   26.60    4.48
  -1  -2   7   19.52    3.75
  -1   2   7   21.96    4.23
   1   2  -7   24.40    4.50
   0   2  -7   14.86    3.77
   0   2   7   10.07    3.89
   0   2   7   10.16    3.21
   0   2   7   12.79    3.51
   0  -2   7    9.01    3.42
  -1  -2  -7  320.46   13.70
   1  -2   7  313.46   15.68
  -1   2  -7  330.74   15.15
   1   2   7  314.49   15.33
   1  -2   7  328.61   14.54
  -2   2  -7   40.13    5.34
   2   2   7   43.07    7.10
   2  -2   7   38.68    7.05
   2   2   7   42.95    6.16
   3  -2   7   32.77    7.31
   3   2   7   30.94    7.05
  -3   2  -7   45.90    6.08
   4  -2   7   85.74   10.58
   4   2   7   76.14   10.02
   5   2   7  203.75   15.83
   5  -2   7  190.94   15.66
   6  -2   7   63.99   12.19
  -9   3   7    1.08    6.24
  -9  -3   7    1.94    6.76
  -8  -3   7    6.27    5.63
  -8   3   7   11.11    6.88
  -7  -3   7   35.73    7.47
  -7   3   7   30.49    8.46
  -6   3   7  112.93   11.59
  -6  -3   7  119.89   10.81
  -5  -3   7  201.28   13.06
  -5   3   7  217.27   14.09
  -4  -3   7    9.01    4.22
  -4  -3   7    8.19    4.38
  -4   3   7   17.52    5.15
  -3   3   7   31.45    5.42
  -3  -3   7   33.15    5.86
  -3  -3   7   45.18    5.89
  -3  -3   7   31.86    3.93
  -2   3   7  162.22    9.83
   2   3  -7  159.62    9.93
  -2  -3   7  173.66    8.62
   1   3  -7  300.99   14.98
  -1  -3   7  343.86   13.93
  -1   3   7  348.18   14.69
   0  -3   7  210.08   11.17
   0   3   7  213.36   12.34
   0   3   7  219.40   10.76
   0   3  -7  209.92   11.64
   0   3   7  215.74   10.51
   1   3   7   73.82    7.20
  -1   3  -7   77.89    6.97
   1  -3   7   81.40    7.93
   2   3   7    2.30    3.40
   2   3   7   -1.15    3.64
   2  -3   7   -0.78    3.75
  -2   3  -7    4.49    3.31
   3  -3   7    3.77    5.32
   3   3   7   10.51    5.04
  -3   3  -7    6.14    3.82
   4   3   7   -1.39    4.41
   4  -3   7    4.75    5.69
   5   3   7   15.22    6.71
   5  -3   7   27.68    8.63
   6  -3   7   11.15    8.24
  -9   4   7   -7.17    6.27
  -9  -4   7    9.83    7.27
  -8  -4   7   -0.09    4.52
  -8   4   7    0.61    6.80
  -7   4   7   27.87    8.19
  -7  -4   7   20.21    5.82
  -6   4   7  315.00   19.28
  -6  -4   7  294.27   17.15
  -5   4   7  295.99   16.95
  -5  -4   7  265.71   15.58
  -4  -4   7   40.69    6.58
  -4   4   7   40.70    6.96
  -4  -4   7   40.87    6.64
  -3   4   7   23.05    4.97
  -3  -4   7    8.55    3.76
  -3  -4   7   14.34    4.21
   3   4  -7   16.30    4.23
  -3  -4   7   20.59    3.52
   2   4  -7   25.66    4.73
  -2  -4   7   35.26    4.66
  -2   4   7   40.35    5.31
  -1   4   7  112.56    7.74
  -1  -4   7  128.41    8.00
   1   4  -7  135.91    9.04
  -1  -4   7  115.17    7.38
  -1   4   7  110.66    9.17
   0  -4   7    2.35    2.65
   0   4   7    2.96    2.49
   0   4  -7    0.46    2.61
   0   4   7   -3.12    2.99
   0  -4   7    4.43    3.04
  -1   4  -7   27.00    5.17
   1  -4   7   32.82    5.74
   1   4   7   19.21    4.91
  -2   4  -7    0.70    3.05
   2   4   7    6.55    4.00
   2  -4   7    9.11    4.61
  -3   4  -7   36.80    6.78
   3   4   7   25.67    6.31
   3  -4   7   18.35    6.25
   4  -4   7   34.19    8.07
   4   4   7   38.34    7.98
  -4   4  -7   38.18    6.93
   5  -4   7  158.59   14.94
   5   4   7  149.63   13.93
  -9  -5   7   -2.56    5.96
  -9   5   7   -4.12    6.82
  -8  -5   7   24.69    7.23
  -8   5   7   21.31    8.21
  -7  -5   7   79.31    9.27
  -7   5   7   96.32   11.80
  -6   5   7  183.36   15.42
  -6  -5   7  237.94   14.69
  -5  -5   7  120.76    9.91
  -5   5   7  121.07   11.54
  -4  -5   7   -0.29    3.16
  -4  -5   7   -0.96    3.06
  -4   5   7   -5.07    2.65
  -3   5   7   32.66    5.90
   3   5  -7   46.22    5.74
  -3  -5   7   36.52    4.90
   2   5  -7   26.75    5.02
  -2  -5   7   22.06    4.11
  -2   5   7   30.43    5.22
  -2   5   7   24.75    5.26
  -1  -5   7  269.67   11.80
  -1  -5   7  248.92   12.11
   1   5  -7  283.96   14.01
  -1   5   7  254.44   12.33
  -1   5   7  234.24   14.02
   0  -5   7  481.50   18.87
   0   5   7  440.99   20.65
   0  -5   7  443.48   18.40
   0   5  -7  476.70   20.34
   1  -5   7  206.96   12.02
   1  -5   7  214.65   12.25
  -1   5  -7  204.24   12.10
   1   5   7  200.15   12.65
  -2   5  -7   91.95    8.30
   2  -5   7   73.64    8.65
   2   5   7   93.67    9.15
   3  -5   7   38.43    7.97
   3   5   7   35.14    7.52
  -3   5  -7   48.90    7.42
   3   5   7   47.31    7.67
  -4   5  -7   57.63    7.74
   4  -5   7   46.87    9.39
   4   5   7   57.18    9.71
   5  -5   7  117.43   13.42
   5   5   7   88.93   11.03
  -9  -6   7    2.40    6.54
  -9   6   7   -2.39    7.35
  -8   6   7   22.67    7.84
  -8  -6   7   38.80    8.00
   7   6  -7   83.96   10.64
  -7   6   7   75.00   11.88
  -7  -6   7   93.13    9.99
   6   6  -7  222.47   15.87
  -6   6   7  255.45   17.74
  -6  -6   7  239.31   15.12
   5   6  -7  326.75   18.54
  -5  -6   7  310.76   16.96
  -5  -6   7  324.96   17.21
  -5   6   7  306.24   18.69
  -4  -6   7  130.42   10.26
  -4   6   7  108.13   10.34
  -4  -6   7  143.97   10.41
  -3  -6   7   43.59    5.65
   3   6  -7   52.95    6.25
  -3   6   7   34.23    6.16
  -2  -6   7  128.02    8.39
  -2   6   7  123.47    8.84
  -2   6   7  135.50   10.14
   2   6  -7  127.23    9.45
  -1  -6   7  102.96    7.63
  -1   6   7  104.00    9.50
  -1   6   7  107.08    7.66
   1   6  -7  107.39    8.58
   0   6   7  155.87   10.71
   0  -6   7  119.57    8.79
   0   6  -7  130.28    9.37
   0  -6   7  132.07    9.00
   1  -6   7  832.43   31.33
  -1   6  -7  845.83   32.48
   1   6   7  832.65   32.99
   1  -6   7  858.88   30.28
   2  -6   7  463.61   21.04
   2   6   7  449.60   21.37
  -2   6  -7  426.07   20.62
   2  -6   7  434.75   19.83
  -3   6  -7   25.83    5.96
   3  -6   7   30.43    7.45
   3   6   7   31.68    6.82
   3   6   7   38.56    7.48
   4  -6   7   10.86    6.59
   4   6   7    2.87    5.22
  -4   6  -7   14.76    5.39
   5  -6   7   91.69   12.01
   5   6   7  106.91   12.12
  -9   7   7   56.95   11.93
  -9  -7   7   63.07   11.28
   8   7  -7   40.65    9.25
  -8   7   7   46.95   10.63
  -8  -7   7   43.99    8.69
   7   7  -7    6.19    5.82
  -7  -7   7   -0.55    4.34
  -7   7   7   -2.92    6.11
   6   7  -7   15.12    6.21
  -6  -7   7   17.19    5.58
  -6   7   7    8.90    6.00
  -5  -7   7   89.17    8.80
  -5  -7   7   75.35    8.39
   5   7  -7  105.24   10.47
  -5   7   7   85.36   10.80
   4   7  -7  263.32   16.04
  -4  -7   7  246.27   14.50
  -4  -7   7  277.01   15.18
  -4   7   7  257.35   16.09
  -3  -7   7  596.24   21.74
  -3   7   7  589.16   25.79
  -3   7   7  583.83   25.06
   3   7  -7  570.00   24.22
  -2   7   7 1168.80   42.80
   2   7  -7 1123.18   40.75
  -2  -7   7 1180.86   36.79
  -2   7   7 1127.01   40.23
  -1  -7   7 1380.72   43.18
  -1   7   7 1353.22   49.39
   1   7  -7 1415.14   48.17
   0  -7   7 1978.59   57.73
   0   7   7 1878.40   64.75
   0   7  -7 1825.66   62.71
   1   7   7  976.31   38.38
   1  -7   7  993.99   34.73
  -1   7  -7 1036.95   37.90
   1  -7   7  997.63   36.15
   2  -7   7  188.79   12.97
   2  -7   7  170.19   11.77
  -2   7  -7  186.26   12.61
   2   7   7  171.15   12.74
   3  -7   7   -1.66    3.62
   3  -7   7    5.93    5.43
   3   7   7   -4.61    4.10
  -3   7  -7   -2.30    3.46
   3   7   7    3.99    4.73
  -4   7  -7   13.28    5.34
   4   7   7   10.63    5.81
   4  -7   7   18.42    7.20
   5  -7   7    9.41    7.17
   5   7   7    1.04    5.88
  -5   7  -7    6.22    5.68
   9   8  -7   23.06    8.58
  -9  -8   7   19.87    8.12
   8   8  -7    8.51    5.70
  -8  -8   7   22.40    6.43
  -8   8   7   17.18    8.04
   7   8  -7   31.79    8.25
  -7  -8   7   29.79    7.04
  -7   8   7   29.31    9.66
   6   8  -7  106.79   11.16
  -6   8   7   97.29   12.18
  -6  -8   7   86.14    9.21
  -5  -8   7  259.01   15.48
   5   8  -7  259.68   16.88
  -5  -8   7  245.78   14.84
  -5   8   7  281.51   17.85
  -5   8   7  237.44   15.09
  -4   8   7  530.43   24.89
   4   8  -7  517.94   23.61
  -4  -8   7  544.89   24.30
  -4   8   7  542.41   25.63
  -4  -8   7  545.03   24.24
   4   8  -7  639.78   27.15
  -3  -8   7  381.73   16.48
  -3   8   7  366.51   18.95
   3   8  -7  370.66   18.04
  -3   8   7  360.50   19.04
   3   8  -7  381.48   19.62
   2   8  -7  101.45    8.73
  -2   8   7   70.27    8.28
  -2   8   7   98.02    8.76
  -2  -8   7   90.40    7.46
  -1   8   7  305.55   17.46
   1   8  -7  364.37   17.17
  -1  -8   7  315.51   15.11
   0   8   7    6.49    4.60
   0  -8   7    5.94    3.96
   0   8  -7    6.58    3.72
   1  -8   7   20.60    5.40
   1   8   7   20.60    6.09
  -1   8  -7   25.16    5.62
   2  -8   7   22.83    5.65
   2   8   7   26.49    7.02
  -2   8  -7   14.89    5.21
   3  -8   7  314.10   17.41
  -3   8  -7  315.35   18.43
   3  -8   7  303.65   18.43
   3   8   7  306.96   18.53
   4   8   7  150.84   13.46
   4  -8   7  203.88   13.93
   4  -8   7  195.93   15.64
  -4   8  -7  194.96   15.27
   5   8   7   -2.68    5.10
   5  -8   7    1.07    4.75
   5  -8   7    0.52    6.65
  -5   8  -7    6.77    6.13
  -9  -9   7   13.80    7.29
  -8   9   7   60.08   12.13
  -8  -9   7   66.12    8.83
   8   9  -7   45.54   10.05
  -7  -9   7   -7.97    4.46
  -7   9   7    7.27    4.69
  -7   9   7    3.32    6.65
   7   9  -7    6.75    6.04
   6   9  -7    3.98    5.36
  -6   9   7   15.49    7.08
  -6  -9   7    7.22    4.57
  -6   9   7    9.72    5.15
   5   9  -7   64.26   10.37
  -5   9   7   51.50    8.28
  -5  -9   7   68.56    8.27
  -5   9   7   56.17    9.95
  -5  -9   7   68.75    7.77
  -4   9   7  255.45   15.68
  -4   9   7  257.54   16.65
   4   9  -7  248.96   16.75
   4   9  -7  251.37   14.99
  -3   9   7   84.49    9.38
   3   9  -7   78.30    8.12
  -3   9   7   95.74    9.74
   3   9  -7   95.49    9.72
  -3  -9   7   79.84    7.68
   2   9  -7   10.12    5.09
  -2   9   7   16.04    5.61
  -2  -9   7   16.13    4.65
   2   9  -7    9.31    4.29
  -1  -9   7   44.12    6.61
   1   9  -7   39.72    6.59
  -1   9   7   41.34    7.40
   0   9  -7   36.63    6.46
   0  -9   7   32.97    6.26
   0   9   7   36.75    7.29
   1  -9   7  135.27   10.59
   1   9   7  140.90   11.96
  -1   9  -7  113.11   10.10
   2   9   7   68.48    9.42
   2  -9   7   75.26    8.71
  -2   9  -7   71.12    8.52
   3  -9   7   91.16    9.73
   3   9   7   90.31   10.67
  -3   9  -7   82.18    9.52
   4  -9   7  163.27   13.03
   4   9   7  136.05   12.90
   4   9   7  148.91   13.57
  -4   9  -7  165.36   14.36
   5  -9   7   52.44   10.73
  -5   9  -7   35.16    9.06
   8  10  -7   -3.69    5.66
  -8 -10   7    6.39    5.09
  -8  10   7    5.50    7.71
  -7  10   7    5.40    5.51
   7  10  -7   15.25    6.87
  -7  10   7    6.05    7.11
  -7 -10   7    3.89    5.37
  -6  10   7    9.67    4.91
  -6 -10   7    1.13    4.26
  -6  10   7   14.08    6.97
  -6 -10   7    0.45    4.37
   6  10  -7    0.08    5.28
   5  10  -7   19.98    7.25
  -5  10   7   26.98    7.59
  -5 -10   7   28.78    6.37
  -5  10   7   12.21    5.63
  -5 -10   7    7.42    4.86
   4  10  -7   62.66    8.40
  -4  10   7   85.70   10.35
  -4  10   7   80.71    9.14
   4  10  -7   76.08   10.01
   3  10  -7   18.11    6.07
  -3  10   7   16.11    5.60
   3  10  -7    6.79    4.70
  -3  10   7   12.18    5.37
   2  10  -7   16.46    5.04
  -2  10   7    5.93    4.75
   2  10  -7   17.02    5.32
  -2 -10   7   15.83    4.63
   1  10  -7   27.49    5.75
  -1  10   7   41.50    7.63
  -1 -10   7   41.51    6.42
   0  10   7   29.25    7.07
   0  10  -7   28.61    6.24
   0 -10   7   31.70    6.15
   1 -10   7  293.56   16.08
   1  10   7  299.91   18.38
  -1  10  -7  299.72   17.03
  -2  10  -7   53.95    8.76
   2  10   7   51.13    9.32
   2 -10   7   70.14    8.42
  -3  10  -7    7.68    4.98
   3 -10   7   10.14    5.59
   3  10   7    9.42    6.16
  -4  10  -7   32.91    8.89
   4  10   7   35.42    8.36
   4 -10   7   28.20    6.91
   4  10   7   34.07    8.80
  -8 -11   7   15.35    5.81
  -8  11   7   -4.47    7.28
  -7  11   7   13.84    7.81
  -7 -11   7   13.41    6.40
  -7  11   7   13.02    6.24
   7  11  -7    9.56    6.92
   6  11  -7  113.19   12.98
  -6 -11   7   77.74    9.12
  -6 -11   7   95.93   10.09
  -6  11   7   75.11   11.81
  -6  11   7   96.88   10.73
  -5 -11   7   11.31    5.02
  -5  11   7   12.12    6.77
   5  11  -7   18.34    6.98
  -5 -11   7   14.28    5.73
  -5  11   7   24.09    6.68
   4  11  -7  472.20   24.67
   4  11  -7  438.98   21.45
  -4  11   7  425.31   22.89
  -4  11   7  434.86   22.74
   3  11  -7  510.35   24.17
  -3  11   7  565.73   26.48
   3  11  -7  569.46   26.89
   2  11  -7  166.62   12.71
   2  11  -7  130.28   10.99
  -2 -11   7  149.97   10.53
  -2  11   7  137.98   12.16
   1  11  -7   70.76    8.62
  -1  11   7   75.79    9.45
  -1 -11   7   73.54    8.20
   0 -11   7  189.98   12.74
   0  11   7  212.37   15.07
   0  11  -7  206.08   13.74
   1  11   7  104.71   11.44
  -1  11  -7  116.07   10.62
   1 -11   7  109.21   10.09
   2 -11   7    9.13    4.75
   2  11   7   18.24    7.02
  -2  11  -7   11.58    5.56
   3  11   7   10.69    6.47
   3 -11   7   13.28    5.96
  -3  11  -7   17.32    6.27
   4  11   7   17.00    6.43
  -4  11  -7   14.40    7.23
   4 -11   7   23.63    6.69
   4  11   7   15.50    7.23
   7  12  -7   50.60   10.52
  -7  12   7   37.64   10.15
  -7 -12   7   51.15    9.17
  -6 -12   7   65.75    8.42
  -6  12   7   39.71    9.48
  -6  12   7   53.22    9.69
  -6 -12   7   71.99    9.15
   6  12  -7   68.53   12.08
  -5  12   7  249.35   17.59
  -5 -12   7  261.72   16.47
  -5 -12   7  251.57   15.78
   5  12  -7  269.85   19.13
  -5  12   7  238.01   16.57
   4  12  -7  359.82   22.50
   4  12  -7  390.27   20.32
  -4  12   7  429.27   22.19
  -4  12   7  405.53   22.03
  -3  12   7  194.23   14.67
   3  12  -7  163.25   12.74
   3  12  -7  217.33   15.52
   2  12  -7   43.64    8.20
  -2 -12   7   41.39    7.16
   2  12  -7   41.87    7.35
  -2  12   7   42.28    8.22
  -1 -12   7    4.20    4.42
   1  12  -7    0.71    3.87
  -1  12   7    1.51    4.50
   0  12   7   26.10    7.75
   0  12  -7   31.20    7.10
   0 -12   7   22.43    6.54
  -1  12  -7  193.84   13.79
   1  12   7  169.71   14.72
   1 -12   7  147.21   11.71
   2  12   7  224.50   17.36
   2 -12   7  240.43   14.97
  -2  12  -7  232.53   16.70
  -3  12  -7  158.00   14.52
   3  12   7  173.95   15.27
   3 -12   7  171.12   13.20
   4  12   7   82.94   12.58
  -7 -13   7   42.49    8.76
  -7  13   7   34.65    9.30
  -6 -13   7   -1.01    4.73
  -6  13   7   12.77    7.08
   6  13  -7   -1.71    6.12
  -6  13   7   -4.03    5.52
  -6 -13   7   -2.61    3.96
  -5 -13   7   18.87    6.20
  -5  13   7   10.58    6.28
   5  13  -7   10.36    6.87
  -5 -13   7   16.23    5.72
  -5  13   7   30.62    7.57
   4  13  -7   42.27    8.01
  -4  13   7   26.44    7.67
   4  13  -7   35.80    8.91
   3  13  -7    8.58    4.81
  -3  13   7    0.67    4.69
   3  13  -7    1.70    5.22
   2  13  -7   73.73   10.05
   2  13  -7   64.39    9.51
  -2  13   7   77.49    9.69
  -2 -13   7   78.56    9.01
  -1 -13   7  238.43   14.87
  -1  13   7  275.27   18.03
   1  13  -7  237.63   15.90
   0 -13   7  124.03   10.63
   0  13  -7  112.32   10.99
   0  13   7  137.42   13.20
   1 -13   7   84.75    9.74
  -1  13  -7   73.51    9.27
   1  13   7   79.38   12.25
   2 -13   7    8.16    5.09
  -2  13  -7   11.37    5.64
   2  13   7    8.56    6.62
  -3  13  -7   11.56    6.73
   3 -13   7   26.61    7.33
   3  13   7   27.09    8.37
  -7  14   7   -2.14    6.53
  -6 -14   7   12.18    5.90
  -6  14   7   14.03    6.80
  -6 -14   7   10.79    5.91
   6  14  -7   12.99    7.40
  -6  14   7   -0.23    5.98
  -5 -14   7   30.83    7.18
  -5  14   7   21.81    7.24
   5  14  -7   14.06    7.81
  -5 -14   7   29.49    7.32
   4  14  -7   35.75    9.81
   4  14  -7   29.15    7.21
  -4  14   7   23.04    7.23
  -3  14   7    3.67    5.54
   3  14  -7   19.84    7.01
   3  14  -7    6.54    5.49
  -2  14   7   -2.34    4.47
   2  14  -7    5.02    5.19
  -1  14   7    9.63    5.87
  -1 -14   7   18.69    6.08
   1  14  -7   15.40    6.00
   0 -14   7   10.23    5.18
   0  14  -7   -4.49    4.03
   0  14   7    5.17    5.95
   1 -14   7    7.00    4.90
  -1  14  -7   -0.60    4.83
   1  14   7    3.12    5.40
   2 -14   7   -2.59    3.91
   2  14   7   -1.19    5.67
  -2  14  -7    2.51    4.82
   3  14   7   18.28    7.97
  -5  15   7    4.50    5.84
  -5 -15   7    1.73    5.06
   5  15  -7    3.01    6.90
  -5 -15   7   17.49    5.86
  -4  15   7    7.59    5.82
   4  15  -7   -3.80    4.98
   4  15  -7   -1.54    6.62
  -3  15   7   17.46    6.37
   3  15  -7   13.39    7.06
   3  15  -7   23.91    7.26
   2  15  -7    3.40    5.19
  -2  15   7    0.90    5.13
  -1  15   7    9.36    6.00
  -1 -15   7    8.04    5.00
   1  15  -7    5.33    5.30
   0  15  -7   -0.81    4.98
   0 -15   7    4.70    5.24
   0  15   7    1.80    6.56
  -1  15  -7   15.15    6.59
   1 -15   7   22.66    6.64
   1  15   7   12.41    7.36
   2  15   7   -2.41    5.56
  -5 -16   7    0.92    5.97
   5  16  -7    1.21    7.11
  -5 -16   7    6.78    4.99
  -5  16   7   -0.39    5.74
   4  16  -7   -0.28    5.81
  -4  16   7    0.22    5.66
   4  16  -7    7.24    7.54
   3  16  -7    8.06    5.91
  -3  16   7   12.29    6.96
   3  16  -7    4.21    7.50
   2  16  -7    1.29    5.51
  -2  16   7   -6.39    5.08
   1  16  -7    9.69    6.16
  -1 -16   7    8.02    5.81
  -1  16   7   13.26    6.55
   0  16   7    1.63    6.09
   0 -16   7    0.93    4.77
   0  16  -7    0.55    4.73
  -4  17   7   14.53    7.19
   4  17  -7   -0.74    6.00
   4  17  -7   -8.71    7.05
   3  17  -7   16.29    6.87
  -3  17   7   12.58    7.17
   2  17  -7    9.95    6.13
  -2  17   7    5.58    6.78
   1  17  -7   12.90    6.49
  -9   0   8   62.91   12.68
  -8   0   8    2.45    5.87
  -7   0   8   65.12   10.40
  -6   0   8   63.90    9.72
  -5   0   8   31.11    7.24
  -4   0   8   59.88    7.85
  -3   0   8  218.27   13.05
  -3   0   8  227.63   13.45
  -2   0   8    6.79    3.77
  -2   0   8    5.90    3.72
  -2   0   8    8.05    2.79
  -1   0   8   85.35    7.68
  -1   0   8   82.59    7.52
   1   0  -8   79.45    7.23
   0   0  -8  561.31   22.51
   0   0   8  581.30   23.76
   1   0   8  646.48   25.70
   1   0   8  605.99   26.33
  -1   0  -8  671.79   25.11
   2   0   8   16.86    5.87
   3   0   8   61.56    9.69
   4   0   8    9.56    6.26
   5   0   8  165.09   15.82
  -9  -1   8   12.05    7.88
  -9   1   8   -0.13    8.08
  -8   1   8   34.59    9.19
  -8  -1   8   31.12    8.04
  -7   1   8   29.47    7.65
  -7  -1   8   30.93    7.11
  -6  -1   8    8.94    5.17
  -6   1   8    2.83    5.04
  -5   1   8   36.62    7.11
  -5  -1   8   38.57    7.60
  -4  -1   8   39.72    7.14
  -4   1   8   51.89    6.96
  -3  -1   8   61.20    7.29
  -3  -1   8   63.43    7.52
  -3   1   8   68.48    7.59
  -3  -1   8   69.66    5.40
  -2  -1   8  275.75   14.62
  -2   1   8  258.74   14.11
  -2   1   8  299.18   11.52
  -2  -1   8  277.41   11.87
  -2   1   8  267.54   14.33
  -1  -1   8  159.12    9.14
   1   1  -8  147.50   10.00
  -1   1   8  155.92   10.20
   0   1   8    2.26    3.47
   0  -1   8    4.47    3.41
   0  -1  -8    2.14    3.09
   0   1  -8    0.61    2.79
  -1   1  -8    2.95    3.26
   1  -1   8   -2.30    3.49
   1  -1   8    2.19    3.72
   1   1   8    0.95    3.93
   1   1   8    8.07    4.16
   2   1   8   46.00    7.84
   2  -1   8   33.61    7.24
   3   1   8   15.42    6.39
   3  -1   8   17.84    6.52
   4   1   8   25.91    7.43
   4  -1   8   23.21    7.49
   5  -1   8   -0.66    6.50
   5   1   8   -6.20    6.15
  -9   2   8    4.66    7.89
  -9  -2   8   20.83    7.79
  -8   2   8   40.63   10.24
  -8  -2   8   14.73    6.44
  -7   2   8   26.35    7.92
  -7  -2   8   30.15    7.34
  -6   2   8   65.83   10.11
  -6  -2   8   68.57    8.38
  -5  -2   8   54.93    8.64
  -5   2   8   55.00    8.80
  -4  -2   8   36.12    6.63
  -4  -2   8   32.17    6.79
  -4   2   8   32.33    6.49
  -3  -2   8    2.26    2.40
  -3  -2   8   -1.46    3.16
  -3   2   8   -3.42    3.04
  -3  -2   8    3.02    3.40
  -2  -2   8   77.56    7.73
  -2   2   8   64.81    5.10
  -2   2   8   74.42    7.09
   2   2  -8   66.64    7.03
  -2  -2   8   60.65    5.76
  -1   2   8  221.78   12.17
  -1   2   8  223.94   12.09
  -1  -2   8  207.69   10.88
   1   2  -8  212.12   12.12
   0   2   8 1302.44   45.16
   0   2  -8 1282.44   43.78
   0   2   8 1308.48   43.16
   0  -2   8 1311.14   43.88
   0   2   8 1137.79   42.45
   1  -2   8 1362.99   48.20
   1   2   8 1413.65   48.43
  -1   2  -8 1387.55   47.44
   2  -2   8  708.33   29.81
   2   2   8  678.00   29.79
  -2   2  -8  739.52   28.31
   3   2   8   74.69    9.93
   3  -2   8  113.64   11.46
   4  -2   8   60.93   10.59
   4   2   8   51.49    9.44
   5   2   8  174.94   15.73
   5  -2   8  168.60   15.97
  -9   3   8   51.55   12.15
  -9  -3   8   63.03   11.85
  -8   3   8   17.71    8.44
  -8  -3   8   16.03    6.91
  -7   3   8   35.50    8.91
  -7  -3   8   44.05    8.36
  -6  -3   8   12.14    5.26
  -6   3   8   13.16    6.33
  -5  -3   8  322.80   17.94
  -5   3   8  301.75   17.64
  -4  -3   8 1052.42   40.04
  -4   3   8 1067.43   39.95
  -4  -3   8 1066.61   39.95
  -3  -3   8  877.46   28.48
  -3  -3   8  917.72   34.68
  -3   3   8  919.05   34.14
  -3  -3   8  888.67   34.39
  -2  -3   8  211.10   10.49
  -2   3   8  200.51   11.98
   2   3  -8  237.41   12.93
  -1   3   8  261.04   14.79
   1   3  -8  280.36   14.22
  -1  -3   8  248.44   12.27
  -1   3   8  253.27   13.06
  -1  -3   8  255.67   12.75
   0   3   8  515.18   22.89
   0  -3   8  526.54   20.63
   0  -3   8  489.92   21.24
   0   3  -8  478.91   21.55
   0   3   8  559.19   21.01
  -1   3  -8  389.61   18.18
   1   3   8  365.87   18.24
   1  -3   8  382.09   18.79
   2  -3   8   64.46    8.72
   2   3   8   47.10    8.17
   2   3   8   56.40    7.21
  -2   3  -8   57.49    7.03
   3   3   8   85.46   10.33
   3  -3   8   91.69   11.25
   4   3   8  177.18   14.93
   4  -3   8  196.43   16.18
   5  -3   8  141.02   15.08
  -9   4   8   23.03    9.55
  -9  -4   8   28.16    8.79
  -8   4   8   15.16    7.89
  -8  -4   8    7.02    5.54
  -7   4   8   48.41   10.41
  -7  -4   8   35.62    7.42
  -6  -4   8  205.41   14.27
  -6   4   8  198.72   15.62
  -5   4   8  242.31   15.74
  -5  -4   8  273.83   16.11
  -4  -4   8  608.98   26.66
  -4  -4   8  630.81   27.00
  -4   4   8  623.17   26.94
  -3  -4   8  426.89   20.95
  -3   4   8  470.79   21.00
  -3  -4   8  481.98   17.57
  -3  -4   8  477.35   21.66
   2   4  -8   44.69    6.65
  -2  -4   8   44.74    5.20
  -2   4   8   43.77    6.61
  -1  -4   8    9.48    3.67
  -1  -4   8   12.54    3.86
  -1   4   8    4.01    3.95
   1   4  -8    7.79    3.86
  -1   4   8    7.05    3.59
   0  -4   8   58.77    7.09
   0  -4   8   58.76    6.89
   0   4  -8   58.89    6.56
   0   4   8   52.44    7.25
  -1   4  -8   32.57    5.87
   1  -4   8   17.35    5.44
   1   4   8   28.91    6.10
   2  -4   8   21.12    6.26
   2   4   8   13.23    5.57
  -2   4  -8   31.85    6.35
   2   4   8   13.75    4.98
  -3   4  -8   67.66    8.35
   3   4   8   36.54    7.94
   3  -4   8   39.62    8.56
   4  -4   8   10.54    7.18
   4   4   8    3.50    5.75
   5  -4   8   21.70    9.02
  -9   5   8    9.03    8.40
  -9  -5   8    2.22    6.85
  -8  -5   8   62.39   10.57
  -8   5   8   65.48   12.14
  -7  -5   8   45.58    8.44
  -7   5   8   54.54   11.21
  -6   5   8   13.26    6.84
  -6  -5   8   11.26    5.05
  -5  -5   8   50.01    8.39
  -5  -5   8   58.59    8.60
  -5   5   8   56.85    9.47
  -4  -5   8  361.59   19.10
  -4  -5   8  382.41   19.35
  -4   5   8  410.98   20.08
   3   5  -8  200.51   12.58
  -3   5   8  196.54   12.32
  -3  -5   8  180.31    9.94
   2   5  -8  109.97    8.86
  -2   5   8   92.83    8.26
  -2   5   8   99.77    9.61
  -2  -5   8  120.08    8.25
  -1   5   8  126.74   10.55
   1   5  -8  143.18   10.06
  -1  -5   8  112.12    8.63
   0   5  -8   39.52    6.49
   0  -5   8   29.31    5.60
   0   5   8   23.63    5.84
   1  -5   8  165.60   11.74
  -1   5  -8  166.22   11.40
   1  -5   8  157.35   11.05
   1   5   8  167.87   12.03
  -2   5  -8    7.34    3.96
   2  -5   8    2.76    5.16
   2   5   8    5.08    4.46
   3   5   8    6.34    5.92
  -3   5  -8   10.85    4.85
   3  -5   8    1.40    6.00
   4  -5   8   -4.19    6.24
   4   5   8   -0.09    5.28
   5  -5   8   -7.25    6.68
  -9  -6   8  183.91   16.60
  -8   6   8   73.87   12.97
  -8  -6   8   62.63   10.21
  -7  -6   8   -5.68    4.50
  -7   6   8   -1.72    6.12
  -6   6   8   -4.28    4.54
  -6  -6   8    2.27    3.96
  -5  -6   8  129.12   10.82
  -5  -6   8  131.57   11.31
  -5   6   8  133.94   12.61
  -4  -6   8  251.69   15.44
  -4   6   8  257.74   15.77
  -4  -6   8  250.00   15.15
  -3   6   8   84.76    9.06
  -3  -6   8   73.91    6.72
   3   6  -8   71.78    7.55
  -3   6   8   63.65    7.78
  -2   6   8    1.62    3.24
  -2   6   8    1.87    3.84
   2   6  -8    3.04    3.78
  -2  -6   8    1.02    3.22
   1   6  -8   12.44    4.27
  -1  -6   8    4.06    3.53
  -1   6   8    3.35    4.48
   0  -6   8   -4.78    3.36
   0   6  -8   -2.70    3.15
   0   6   8   -2.21    3.53
   1   6   8   -3.01    3.93
   1  -6   8   -1.26    3.82
  -1   6  -8   -1.12    3.20
   2  -6   8   18.14    6.41
   2   6   8   17.27    5.97
   2  -6   8   14.26    5.27
  -2   6  -8   24.27    5.79
  -3   6  -8    9.64    5.34
   3   6   8    7.77    5.71
   3  -6   8    4.61    6.30
   4  -6   8   32.13    9.17
   4   6   8   21.86    6.84
   5  -6   8    9.75    7.81
  -9  -7   8   13.47    8.33
  -8  -7   8   42.26    8.55
  -8   7   8   32.94    9.84
  -7   7   8    2.40    6.11
  -7  -7   8   12.55    5.67
  -6   7   8  141.62   14.36
  -6  -7   8  137.97   12.31
  -5  -7   8   19.93    6.20
  -5   7   8   26.30    7.70
  -5  -7   8   35.93    6.77
  -4  -7   8  189.86   13.31
  -4  -7   8  219.00   14.08
  -4   7   8  200.19   13.95
  -4   7   8  190.98   14.23
  -3   7   8  201.20   13.54
  -3  -7   8  168.05   10.61
  -3   7   8  189.70   12.56
   3   7  -8  176.94   12.24
  -2  -7   8   81.31    7.61
   2   7  -8   88.52    8.53
  -2   7   8   84.74    9.50
  -1  -7   8    9.50    4.27
   1   7  -8    4.39    3.65
  -1   7   8    2.94    4.07
   0  -7   8   68.87    7.83
   0   7  -8   74.73    8.15
   0   7   8   92.86    9.65
  -1   7  -8   66.16    7.52
   1  -7   8   52.14    7.87
   1   7   8   56.89    8.86
  -2   7  -8   19.00    5.52
   2  -7   8    5.96    4.65
   2   7   8   -0.95    4.66
  -3   7  -8   15.60    5.46
   3   7   8   14.35    5.83
   3  -7   8   26.84    6.79
   4  -7   8   23.45    7.98
  -4   7  -8   11.78    5.79
   4   7   8    9.46    5.91
   4  -7   8    5.93    5.92
  -8   8   8  136.25   15.66
  -8  -8   8  138.41   13.07
  -7   8   8   78.53   13.06
  -7  -8   8   98.16   11.03
  -6  -8   8  136.38   12.22
  -6   8   8  136.13   13.91
  -5  -8   8  338.00   18.94
  -5  -8   8  393.94   20.26
  -5   8   8  352.12   19.77
  -5   8   8  333.52   20.68
  -4   8   8  317.31   19.18
  -4   8   8  336.77   18.94
  -4  -8   8  331.30   18.46
  -4  -8   8  335.75   18.39
  -3   8   8  130.38   11.39
  -3  -8   8  136.49    9.56
  -3   8   8  124.91   10.85
   3   8  -8  126.77   10.41
  -2  -8   8   12.39    4.44
   2   8  -8   15.08    4.88
  -2   8   8   15.60    5.36
  -1   8   8   -0.65    4.24
  -1  -8   8   -2.19    3.67
   1   8  -8    0.75    3.46
   0   8  -8   13.47    4.60
   0  -8   8    8.04    4.48
   0   8   8   12.60    5.30
   1   8   8   98.86   10.45
   1  -8   8   83.80    9.06
  -1   8  -8   75.21    8.64
   2  -8   8  107.03   10.33
   2   8   8  111.02   11.45
  -2   8  -8  140.81   11.78
   3  -8   8   16.11    6.16
   3   8   8    9.42    6.19
   3   8   8   12.73    6.37
  -3   8  -8   16.83    5.99
   4  -8   8   10.89    5.88
   4   8   8   30.87    7.70
  -4   8  -8   20.13    7.28
  -8   9   8   89.20   14.54
  -8   9   8   91.81   11.27
   8   9  -8   65.36   12.02
   7   9  -8    4.95    6.57
  -7   9   8    8.69    6.30
  -7  -9   8   -5.65    4.49
  -7   9   8    0.98    4.75
  -6   9   8  156.92   15.01
   6   9  -8  177.36   15.53
  -6  -9   8  145.43   12.74
  -6   9   8  144.38   12.79
  -5   9   8   67.44   10.79
   5   9  -8  113.69   12.18
  -5  -9   8   91.83    9.95
  -5   9   8   93.59   10.32
  -5  -9   8   87.10    9.28
   4   9  -8    6.53    5.09
  -4   9   8    4.35    5.49
  -4   9   8    8.79    4.80
  -3   9   8    4.14    4.73
   3   9  -8    8.15    4.53
  -3  -9   8    8.12    4.44
   2   9  -8   92.54    8.91
  -2  -9   8   84.47    8.19
  -2   9   8   69.92    9.32
   1   9  -8  104.82    9.78
  -1   9   8   95.80   10.37
  -1  -9   8   99.15    9.07
   0   9   8   67.62    9.98
   0  -9   8   63.92    8.53
   0   9  -8   66.96    8.18
   1   9   8   76.75   10.18
   1  -9   8   92.08    9.67
  -1   9  -8   80.42    9.15
   2  -9   8   24.94    6.91
  -2   9  -8   31.50    6.92
   2   9   8   41.71    8.65
   3  -9   8    3.48    4.61
  -3   9  -8    9.46    5.25
   3   9   8   11.96    6.78
   3   9   8   -0.79    5.04
  -4   9  -8    5.66    6.54
  -8  10   8   55.59   11.90
  -8 -10   8   73.23   11.20
  -7  10   8   37.96    8.45
  -7 -10   8   54.69    9.66
  -7  10   8   54.68   11.20
   7  10  -8   75.61   12.35
   6  10  -8  107.86   12.81
  -6  10   8   76.29   10.02
  -6  10   8   86.25   12.83
  -6 -10   8   82.85    9.93
  -6 -10   8   72.56    9.24
   5  10  -8   61.56   11.00
  -5 -10   8   54.71    9.06
  -5 -10   8   68.24    8.82
  -5  10   8   77.58   11.72
  -5  10   8   73.34    9.75
  -4  10   8    1.36    5.92
   4  10  -8    3.14    4.44
  -4  10   8    4.23    5.03
   4  10  -8    0.93    5.18
  -3  10   8   20.15    6.33
  -3 -10   8   34.30    6.40
   3  10  -8   28.13    6.88
  -2 -10   8    8.58    4.57
   2  10  -8    4.80    4.27
  -2  10   8   -3.23    3.96
  -1 -10   8   46.09    7.49
   1  10  -8   46.74    7.83
  -1  10   8   40.53    7.92
   0 -10   8    7.98    5.00
   0  10   8   20.71    6.37
   0  10  -8   14.99    4.87
   1 -10   8    7.21    4.80
   1  10   8   10.37    5.38
  -1  10  -8    9.70    4.67
   2 -10   8    1.05    4.93
  -2  10  -8    8.16    4.41
   2  10   8    4.46    5.56
   3 -10   8   26.88    7.70
   3  10   8   23.01    7.76
  -3  10  -8   18.13    6.88
  -8 -11   8   23.62    8.06
  -7  11   8    5.71    6.46
  -7  11   8   11.31    7.69
  -7 -11   8    5.52    5.80
   7  11  -8   12.54    7.26
  -6 -11   8   61.03    9.76
  -6  11   8   57.91   10.08
  -6 -11   8   84.76    9.82
  -6  11   8   44.64   10.64
   6  11  -8   69.24   11.96
  -5 -11   8  149.44   13.16
  -5  11   8  154.86   14.86
  -5 -11   8  161.84   12.92
  -5  11   8  160.99   13.94
   5  11  -8  148.48   14.71
  -4  11   8   75.01    9.46
   4  11  -8   87.89   10.02
   4  11  -8   78.00   11.87
   3  11  -8   60.10    9.86
  -3 -11   8   62.01    8.51
   3  11  -8   36.13    7.79
  -3  11   8   75.45    9.78
  -2 -11   8  123.43   10.32
   2  11  -8  125.59   11.12
  -2  11   8  125.07   11.81
  -1  11   8   75.16   10.00
  -1 -11   8   75.21    8.37
   1  11  -8   91.54    9.65
   0  11  -8   39.60    7.40
   0  11   8   36.33    8.69
   0 -11   8   37.98    7.30
   1  11   8   -4.81    4.77
   1 -11   8    3.13    4.72
  -1  11  -8    2.26    4.30
   2 -11   8   10.98    5.77
   2  11   8   11.03    6.81
  -2  11  -8   10.28    5.80
   3 -11   8   11.69    5.84
   3  11   8   21.90    8.07
  -3  11  -8   17.10    7.56
  -7  12   8    9.88    7.28
  -7  12   8    4.65    6.22
  -7 -12   8   16.12    6.64
  -6 -12   8    2.02    4.89
  -6  12   8    0.99    6.33
  -6 -12   8   -2.66    4.56
   6  12  -8    6.25    7.01
  -6  12   8    6.74    6.17
   5  12  -8    4.65    7.42
  -5  12   8    8.41    6.58
  -5  12   8   19.58    7.33
  -5 -12   8    4.93    4.92
  -5 -12   8   -1.28    5.15
   4  12  -8   19.67    7.45
  -4  12   8   13.50    6.20
   4  12  -8    5.23    4.91
  -3  12   8   -2.63    4.70
   3  12  -8    0.33    4.94
   3  12  -8    0.40    4.92
   2  12  -8   45.62    8.47
  -2 -12   8   55.86    8.43
  -2  12   8   65.25   10.34
  -1 -12   8  237.96   14.35
   1  12  -8  224.80   15.56
  -1  12   8  213.20   16.07
   0  12  -8  131.56   12.01
   0  12   8  149.91   13.93
   0 -12   8  134.91   11.43
   1  12   8   71.18   11.24
   1 -12   8   50.03    8.61
  -1  12  -8   76.35    9.75
   2 -12   8   32.28    8.41
   2  12   8   42.48    9.66
  -2  12  -8   66.33   10.50
   3  12   8   41.69    9.50
  -7 -13   8   -0.35    6.29
  -7  13   8    2.23    7.39
  -6 -13   8    4.11    5.14
  -6 -13   8   -4.51    4.87
  -6  13   8   -4.09    6.94
  -6  13   8    6.53    6.38
   6  13  -8    1.21    6.87
  -5 -13   8    4.70    5.28
   5  13  -8    7.79    7.43
  -5  13   8   -3.02    5.40
  -5 -13   8   -1.57    4.17
   4  13  -8    4.80    5.47
   4  13  -8   14.43    7.83
  -4  13   8    7.15    5.88
  -3  13   8    5.00    5.47
   3  13  -8    2.81    6.20
   3  13  -8    7.11    5.58
  -2 -13   8   35.45    7.46
  -2  13   8   23.25    7.49
   2  13  -8   25.32    7.14
   1  13  -8   44.97    8.80
  -1 -13   8   42.46    7.99
  -1  13   8   42.03    8.89
   0  13   8   13.09    6.69
   0  13  -8   19.42    6.25
   0 -13   8   23.03    6.41
   1 -13   8    6.50    5.60
   1  13   8    5.82    6.29
  -1  13  -8    0.84    4.31
  -2  13  -8   29.18    8.16
   2  13   8   23.24    8.60
  -6 -14   8    1.77    4.74
  -6  14   8   -3.98    5.82
  -6 -14   8   -3.14    5.32
  -5  14   8   -4.91    5.26
  -5 -14   8    3.33    5.58
   5  14  -8    6.32    7.69
  -5 -14   8    4.43    4.77
   4  14  -8   13.97    8.65
   4  14  -8   16.52    6.84
  -4  14   8   -4.75    5.11
   3  14  -8   -2.21    5.63
  -3  14   8   -4.01    5.11
   3  14  -8    4.32    5.48
   2  14  -8   18.39    6.58
  -2  14   8    6.26    6.62
  -2 -14   8   28.51    6.91
  -1 -14   8   40.19    8.14
  -1  14   8   31.05    8.96
   1  14  -8   35.92    8.22
   0  14   8   29.19    8.31
   0  14  -8   23.33    7.02
   0 -14   8   17.20    6.16
  -1  14  -8   17.15    6.45
   1  14   8    3.05    5.85
   1 -14   8   11.99    6.24
   5  15  -8    1.26    7.08
  -5 -15   8    1.52    4.82
  -5 -15   8    3.76    6.05
  -5  15   8   11.92    7.00
  -4  15   8   -4.41    4.93
   4  15  -8   -3.47    7.00
   4  15  -8    0.33    5.57
   3  15  -8   31.96    7.79
  -3  15   8   24.29    7.79
  -2  15   8   -6.30    5.43
   2  15  -8   -2.52    4.96
  -1  15   8    1.46    5.70
   1  15  -8    7.97    6.04
  -1 -15   8    9.33    6.00
   0 -15   8    3.29    4.72
   0  15   8    3.56    5.99
   0  15  -8   -4.68    4.35
   4  16  -8   -5.39    7.04
   4  16  -8    6.23    6.12
   3  16  -8   36.55    8.33
   2  16  -8   77.97   11.57
  -8   0   9    8.30    6.18
  -7   0   9    1.24    4.91
  -6   0   9    5.34    5.25
  -5   0   9   -7.25    4.46
  -4   0   9   -1.17    4.34
  -3   0   9    2.32    4.04
  -2   0   9    5.78    3.99
  -2   0   9   -0.04    3.69
  -1   0   9    3.15    3.74
  -1   0   9   -3.22    3.53
   0   0  -9    2.50    3.66
   0   0   9    0.32    4.31
   1   0   9    3.07    4.79
   2   0   9    5.56    5.35
   3   0   9    9.93    6.41
   4   0   9   -1.21    6.34
  -8   1   9   89.79   14.17
  -8  -1   9  106.52   12.53
  -7   1   9   31.28    8.72
  -7  -1   9   12.92    6.13
  -6  -1   9    7.37    5.64
  -6   1   9    6.74    5.72
  -5   1   9  416.52   22.25
  -5  -1   9  438.53   22.45
  -4  -1   9 1454.66   52.56
  -4   1   9 1467.45   52.44
  -3   1   9  974.03   37.32
  -3  -1   9  993.55   37.66
  -3  -1   9  969.56   37.77
  -2  -1   9   80.33    6.77
  -2  -1   9   68.16    8.12
  -2   1   9   64.12    7.76
  -2   1   9   77.45    8.18
  -2  -1   9   83.44    8.80
  -1  -1   9    2.27    3.21
  -1   1   9    0.10    3.36
   1   1  -9   -0.86    3.39
  -1   1   9   -0.91    3.26
   0   1   9   45.05    6.89
   0  -1   9   35.53    6.51
   0   1  -9   23.76    5.46
   0   1   9   51.15    7.40
   0   1   9   32.53    6.68
   0  -1   9   41.48    6.77
   1  -1   9  144.52   11.69
   1   1   9  121.27   10.94
   2   1   9    8.46    5.58
   2  -1   9   -2.21    4.97
   3   1   9   37.28    8.71
   3  -1   9   38.18    8.81
   4  -1   9    5.73    7.61
   4   1   9   15.24    7.63
  -8   2   9  110.69   14.35
  -8  -2   9  123.44   13.33
  -7   2   9   58.26   10.44
  -7  -2   9   73.19   11.13
  -6  -2   9   14.22    6.47
  -6   2   9    4.37    5.54
  -5  -2   9    3.55    4.88
  -5   2   9    6.91    5.34
  -4  -2   9    8.07    4.77
  -4   2   9   14.12    5.87
  -3  -2   9   13.69    5.28
  -3  -2   9    5.86    4.57
  -3   2   9    5.23    4.43
  -2  -2   9   10.82    3.81
  -2  -2   9    8.70    4.74
  -2  -2   9   19.14    5.63
  -2   2   9   12.85    4.87
  -1   2   9  115.06    9.54
   1   2  -9  119.71    9.61
  -1   2   9  106.92    9.34
  -1  -2   9  108.35    8.26
  -1   2   9  124.36   10.50
   0   2   9  185.94   12.59
   0  -2   9  159.73   11.49
   0   2  -9  170.84   11.45
   1  -2   9  276.74   16.60
   1   2   9  275.86   16.56
  -1   2  -9  327.75   16.14
   1   2   9  267.20   15.77
   2  -2   9  164.38   13.35
   2   2   9  165.09   13.36
   3  -2   9   26.51    8.08
   3   2   9   12.37    6.55
   4   2   9    5.81    6.35
   4  -2   9    5.84    7.06
  -8   3   9  155.60   16.22
  -8  -3   9  151.22   14.56
  -7   3   9   39.71    9.25
  -7  -3   9   40.49    8.38
  -6   3   9   -0.13    4.74
  -6  -3   9    3.97    4.91
  -5  -3   9   42.36    8.16
  -5   3   9   56.50    9.18
  -4  -3   9  261.74   16.33
  -4  -3   9  252.34   16.11
  -4   3   9  294.44   16.86
  -3   3   9   94.74    9.40
  -3  -3   9   99.53    7.39
  -3  -3   9   97.91    9.71
  -3  -3   9  102.64   10.03
  -2  -3   9   13.99    4.21
   2   3  -9   15.05    5.06
  -2   3   9    9.12    4.27
  -1  -3   9   17.13    4.63
  -1   3   9   22.60    5.96
  -1   3   9   16.75    4.77
   1   3  -9   20.13    5.18
   0  -3   9  195.90   12.22
   0   3  -9  215.07   12.98
   0   3   9  200.12   13.69
   0  -3   9  200.38   12.90
   1   3   9  118.85   10.33
   1  -3   9  126.42   11.20
  -1   3  -9  132.80   10.44
   2  -3   9   35.71    7.91
   2   3   9   24.98    6.80
   3   3   9    3.21    5.79
   3  -3   9    4.58    6.39
   4  -3   9   14.81    7.91
   4   3   9   21.48    7.79
  -8  -4   9  150.65   14.49
  -8   4   9  135.97   15.33
  -7  -4   9   -3.39    3.74
  -7   4   9    2.06    6.64
  -6   4   9   71.99   10.99
  -6  -4   9   51.38    8.94
  -5  -4   9   49.13    8.33
  -5   4   9   68.95   10.13
  -4  -4   9   27.57    6.57
  -4  -4   9   24.51    6.38
  -4   4   9   27.25    6.83
  -3   4   9   51.75    7.74
  -3  -4   9   42.87    8.08
  -3  -4   9   39.50    5.54
  -3  -4   9   37.26    7.40
  -2   4   9   25.62    5.71
  -2  -4   9   21.62    4.79
  -2   4   9   27.24    6.54
   2   4  -9   20.60    5.46
  -1   4   9   10.92    5.40
   1   4  -9    2.28    3.40
  -1  -4   9   -0.82    3.77
   0  -4   9   38.50    6.51
   0   4   9   31.97    7.19
   0   4  -9   47.14    7.17
   1  -4   9  168.73   12.28
  -1   4  -9  174.02   12.21
   1  -4   9  168.04   12.42
   1   4   9  165.96   12.79
   2   4   9   70.49   10.16
  -2   4  -9   61.65    8.28
   2  -4   9   64.47   10.52
   3   4   9    6.82    5.46
   3  -4   9   14.02    7.11
   4  -4   9    8.62    8.05
  -8  -5   9   26.37    7.53
  -8   5   9   23.87    9.42
  -7   5   9    6.70    6.86
  -7  -5   9   -4.30    4.41
  -6  -5   9    4.34    5.00
  -6   5   9    5.22    6.26
  -5  -5   9    8.30    5.17
  -5  -5   9   10.50    5.79
  -5   5   9    8.00    5.45
  -4   5   9   16.35    5.91
  -4  -5   9   23.30    6.61
  -4  -5   9   20.15    5.97
  -3  -5   9   15.61    5.90
  -3  -5   9   15.53    4.45
  -3   5   9   22.37    6.14
  -3  -5   9   14.66    5.66
  -2   5   9    3.28    4.49
  -2  -5   9    8.03    4.10
   2   5  -9    7.68    4.24
  -2   5   9    6.07    4.26
  -1   5   9  119.62   11.28
  -1  -5   9  126.96    9.56
   1   5  -9  128.07   10.40
   0   5   9  184.21   13.61
   0  -5   9  196.05   12.56
   0   5  -9  198.77   13.10
  -1   5  -9  112.08   10.37
   1   5   9  138.96   11.62
   1  -5   9  120.61   10.66
   2  -5   9    9.64    5.51
   2   5   9    2.18    5.19
  -2   5  -9   20.25    5.99
   3  -5   9    5.27    6.49
   3   5   9    1.48    5.16
   4  -5   9    2.57    7.11
  -8   6   9   59.81   12.61
  -8  -6   9   64.70   10.44
  -7   6   9   25.91    9.01
  -7  -6   9   22.94    6.65
  -6  -6   9    9.70    5.22
  -6   6   9    8.63    6.96
  -5  -6   9   72.86    9.39
  -5   6   9   65.49   10.30
  -5  -6   9   57.22    8.97
  -4  -6   9   11.04    5.41
  -4  -6   9   18.38    6.10
  -4   6   9   28.22    6.97
   3   6  -9   64.82    8.15
  -3  -6   9   56.64    6.98
  -3   6   9   54.04    9.20
  -3   6   9   55.82    8.41
  -2  -6   9   86.41    7.95
   2   6  -9   91.96    8.67
  -2   6   9   85.29    9.98
  -1   6   9   93.05   10.08
  -1  -6   9   90.54    8.75
   1   6  -9  101.62    9.47
   0   6   9  245.87   15.81
   0   6  -9  224.09   14.55
   0  -6   9  265.26   14.75
  -1   6  -9  211.85   14.05
   1  -6   9  183.56   13.26
   1   6   9  224.40   14.78
   2  -6   9   47.90    8.14
  -2   6  -9   53.28    9.00
   2   6   9   56.38    9.33
   3  -6   9    3.64    5.45
  -3   6  -9    6.51    5.71
   3   6   9   -0.29    5.33
  -8  -7   9    1.11    5.23
  -8   7   9    3.37    6.77
  -7   7   9   14.56    7.78
  -7  -7   9   -2.33    4.79
  -6   7   9   19.65    7.49
  -6  -7   9    5.78    5.21
  -5  -7   9   73.99    8.62
  -5   7   9   73.75   11.18
  -5  -7   9   90.85    9.83
  -4  -7   9  367.97   20.08
  -4   7   9  391.05   20.90
  -4  -7   9  361.16   20.23
  -4   7   9  300.76   19.09
  -3  -7   9  195.73   11.82
   3   7  -9  213.61   13.92
  -3   7   9  198.04   14.82
  -2  -7   9   43.49    6.89
  -2   7   9   39.28    8.20
   2   7  -9   54.95    8.04
  -1   7   9   -0.10    4.66
   1   7  -9    4.93    3.74
  -1  -7   9    8.40    4.10
   0   7   9   17.06    6.18
   0   7  -9   14.05    5.16
   0  -7   9   17.67    6.07
  -1   7  -9  130.33   11.53
   1   7   9  131.81   12.05
   1  -7   9  130.21   11.41
   2   7   9  215.46   15.69
   2  -7   9  216.39   15.03
  -2   7  -9  250.48   16.25
   3   7   9  123.96   12.98
   3  -7   9  164.65   13.87
  -3   7  -9  166.45   14.07
  -8  -8   9   18.10    7.35
  -8   8   9   13.44    8.74
  -7  -8   9   34.21    8.28
  -7   8   9   35.88    9.54
  -6   8   9   30.88    7.63
  -6  -8   9   49.03    8.84
  -6   8   9   44.51   10.02
  -5  -8   9   12.21    5.41
  -5  -8   9    9.56    5.10
  -5   8   9   10.60    6.19
  -5   8   9   16.95    6.25
  -4   8   9    2.98    5.22
  -4  -8   9   -4.57    2.97
  -4   8   9   -2.66    4.14
  -4  -8   9    3.55    4.03
  -3   8   9   10.12    5.82
   3   8  -9    5.40    4.50
  -3  -8   9    1.18    4.22
   2   8  -9    8.40    4.78
  -2  -8   9    0.86    3.90
  -2   8   9    1.45    5.10
   1   8  -9   49.60    8.14
  -1  -8   9   47.43    7.66
  -1   8   9   47.70    8.72
   0   8   9   95.02   10.65
   0   8  -9  103.23    9.94
   0  -8   9   97.34    9.78
   1   8   9  154.79   13.56
   1  -8   9  135.91   11.98
  -1   8  -9  161.12   12.90
   2   8   9  169.47   14.84
   2  -8   9  154.12   13.22
  -2   8  -9  180.34   14.33
  -3   8  -9   74.36   11.02
  -8   9   9   29.06    8.29
  -7  -9   9   22.76    7.59
  -7   9   9   20.98    9.12
  -7   9   9   11.06    6.62
  -6  -9   9    1.37    4.50
  -6   9   9    4.81    6.97
  -6  -9   9   -9.25    4.15
  -6   9   9    4.93    5.39
  -5  -9   9    6.13    5.32
  -5   9   9   10.20    6.51
  -5  -9   9    0.62    3.69
  -5   9   9    9.84    5.79
  -4  -9   9   20.06    5.93
  -4  -9   9   17.03    5.58
  -4   9   9   16.40    6.45
  -3   9   9   13.91    6.14
   3   9  -9   15.52    5.42
  -3  -9   9   19.23    5.72
   2   9  -9  205.40   13.84
  -2   9   9  156.69   13.68
  -2  -9   9  148.72   11.39
  -1  -9   9  139.24   11.05
   1   9  -9  134.54   11.68
  -1   9   9  151.31   13.21
   0   9   9   11.62    6.10
   0   9  -9   16.11    5.84
   0  -9   9   18.15    6.18
   1   9   9    6.60    6.01
  -1   9  -9   12.00    5.77
   1  -9   9    8.62    5.30
   2  -9   9   45.33    8.85
   2   9   9   55.41    9.82
  -2   9  -9   46.84    9.05
  -3   9  -9   86.43   11.62
  -7  10   9    4.55    6.27
  -7 -10   9   -5.47    5.13
  -7  10   9    3.79    7.42
  -6  10   9   15.07    7.96
  -6 -10   9   24.67    6.82
  -6  10   9    9.98    6.58
  -6 -10   9   13.71    6.14
  -5  10   9   48.47    9.66
  -5 -10   9   38.90    8.50
  -5 -10   9   42.62    8.61
  -5  10   9   31.13    8.21
   4  10  -9   61.13    9.46
  -4  10   9   55.94   10.08
   3  10  -9   34.11    7.35
  -3  10   9   42.17    9.02
  -3 -10   9   35.78    7.04
   2  10  -9   42.44    8.08
  -2  10   9   48.36    9.27
  -2 -10   9   38.36    7.25
  -1 -10   9   -1.18    4.56
  -1  10   9    2.15    5.33
   1  10  -9   -1.38    4.07
   0  10   9    4.46    5.28
   0  10  -9    2.83    4.79
   0 -10   9    4.71    4.68
   1 -10   9   -0.36    4.82
   1  10   9    3.73    5.69
  -1  10  -9   10.86    5.64
   2 -10   9   27.78    7.57
   2  10   9   25.03    7.92
  -2  10  -9   14.63    6.49
  -7  11   9    7.16    6.38
  -7  11   9    4.76    7.74
  -6  11   9   17.66    7.76
  -6  11   9   14.25    7.53
  -6 -11   9   14.41    6.21
  -6 -11   9   10.12    6.05
  -5  11   9    0.11    5.69
  -5 -11   9    3.18    4.95
  -5 -11   9   -2.09    4.93
   4  11  -9    7.09    5.57
  -4  11   9    1.17    5.51
  -3  11   9   -3.11    4.84
  -3 -11   9   -1.66    4.44
   3  11  -9    1.56    4.90
   2  11  -9   15.59    5.92
  -2 -11   9   21.20    6.07
  -2  11   9   13.56    6.42
  -1  11   9   -1.33    4.96
   1  11  -9    4.16    4.45
  -1 -11   9    7.26    5.10
   0 -11   9   15.33    6.07
   0  11   9   28.06    8.17
   0  11  -9   29.24    7.15
   1  11   9   -6.29    5.41
   1 -11   9    9.82    5.52
  -1  11  -9    2.68    4.81
   2  11   9   73.85   12.21
  -2  11  -9   85.59   10.93
  -6 -12   9   52.18    9.77
  -6 -12   9   60.67    9.99
   6  12  -9   63.18   12.25
  -6  12   9   51.50   10.15
  -5 -12   9   43.62    8.82
  -5 -12   9   34.79    8.64
  -5  12   9   69.92   11.17
   4  12  -9    0.67    4.91
  -4  12   9    5.13    6.36
  -3  12   9   34.32    8.25
   3  12  -9   32.11    8.14
  -2  12   9  154.97   14.30
  -2 -12   9  133.70   11.83
   2  12  -9  131.30   12.65
  -1  12   9  130.07   13.32
  -1 -12   9  139.91   11.84
   1  12  -9  150.05   12.74
   0  12   9  107.75   12.66
   0  12  -9  122.57   12.07
   0 -12   9   94.17   10.97
  -1  12  -9   75.69   11.37
   1  12   9   98.84   12.74
   1 -12   9   66.55   10.30
  -5  13   9  110.87   12.73
  -5 -13   9  113.34   12.57
  -5 -13   9  137.86   12.72
   5  13  -9  141.54   15.79
  -4  13   9   79.63   12.06
   4  13  -9   66.77   10.82
  -3  13   9  215.70   16.99
   3  13  -9  190.52   15.30
  -2  13   9  350.81   22.00
   2  13  -9  327.59   19.87
  -2 -13   9  312.95   18.30
   1  13  -9  184.32   14.86
  -1  13   9  179.61   15.71
  -1 -13   9  197.10   14.46
   0 -13   9    6.80    4.90
   0  13   9   -2.04    5.66
   0  13  -9    3.00    4.56
   4  14  -9    3.47    5.93
  -4  14   9    3.34    5.66
  -3  14   9   56.07   10.21
   3  14  -9   55.61   10.26
   2  14  -9   80.97   11.79
  -2 -14   9   91.61   10.81
  -2  14   9   85.30   11.69
  -1 -14   9   10.08    6.33
  -8   0  10   95.44   14.36
  -7   0  10   10.01    6.54
  -6   0  10   54.75    9.88
  -5   0  10   59.75    9.82
  -4   0  10    8.52    5.68
  -3   0  10   76.88    9.36
  -2   0  10   87.28    9.85
  -2   0  10   79.79    9.08
  -1   0  10    9.57    5.61
  -1   0  10   18.01    6.10
   0   0  10  169.23   12.84
   0   0  10  182.00   13.21
   1   0  10  101.48   11.13
   2   0  10   32.19    8.39
   3   0  10   17.49    7.58
  -8  -1  10   46.60   10.85
  -8   1  10   57.72   11.54
  -7   1  10    7.09    6.63
  -7  -1  10   13.46    6.19
  -6  -1  10   -5.38    4.53
  -6   1  10    5.61    5.15
  -5   1  10   29.18    7.68
  -5  -1  10   21.63    6.82
  -4  -1  10   44.04    8.52
  -4   1  10   40.03    7.95
  -3   1  10   19.12    6.04
  -3  -1  10   11.69    5.47
  -3  -1  10   19.46    6.90
  -2  -1  10   49.15    8.25
  -2   1  10   47.17    8.14
  -2   1  10   49.74    7.96
  -2  -1  10   43.56    7.91
  -1   1  10   54.89    8.45
  -1   1  10   49.52    8.59
  -1  -1  10   44.60    7.99
  -1  -1  10   43.86    8.19
  -1   1  10   52.31    8.24
  -1  -1  10   59.56    7.19
   0   1  10   10.85    5.88
   0  -1  10   10.24    5.28
   1  -1  10    2.40    5.64
   1   1  10    3.41    5.23
   2  -1  10    2.37    5.85
   2   1  10    6.78    6.50
   3   1  10   -3.26    5.87
   3  -1  10   16.82    7.57
  -8   2  10  215.87   18.59
  -8  -2  10  177.72   16.38
  -7  -2  10   32.39    8.68
  -7   2  10   44.41    9.72
  -6  -2  10    8.68    6.30
  -6   2  10    3.52    5.66
  -5   2  10   80.59   10.33
  -5  -2  10   71.01   10.66
  -4   2  10   30.23    7.68
  -4  -2  10   33.61    7.62
  -3   2  10   10.47    5.45
  -3  -2  10   12.11    5.81
  -3  -2  10   11.30    5.80
  -2  -2  10  158.97   12.74
  -2   2  10  157.55   12.07
  -2  -2  10  153.73   12.86
  -1  -2  10   54.91    7.44
   1   2 -10   39.73    7.25
  -1   2  10   43.03    8.31
   0   2  10   30.14    7.69
   0   2 -10   22.11    5.93
   0  -2  10   26.38    6.26
   1   2  10   26.37    7.15
   1  -2  10   18.77    7.02
   2  -2  10    8.48    6.02
   2   2  10   -1.12    5.68
   3   2  10   11.74    7.12
   3  -2  10    7.93    7.17
  -8  -3  10   75.83   12.49
  -8   3  10  105.37   15.74
  -7  -3  10   87.89   11.04
  -7   3  10   69.76   11.75
  -6  -3  10    2.20    5.06
  -6   3  10   11.45    6.45
  -5  -3  10   42.34    8.89
  -5   3  10   38.00    8.47
  -4   3  10  294.96   17.50
  -4  -3  10  228.35   16.38
  -4  -3  10  260.43   17.08
  -3   3  10  238.09   15.48
  -3  -3  10  212.95   15.06
  -3  -3  10  250.81   16.15
  -2  -3  10   49.59    8.81
  -2   3  10   53.70    8.22
  -2   3  10   38.10    7.91
  -2  -3  10   52.59    7.01
  -2  -3  10   52.96    8.89
   1   3 -10    5.66    4.14
  -1   3  10    4.82    5.29
  -1  -3  10    5.08    4.50
   0   3  10    7.54    5.56
   0  -3  10    6.15    4.95
   0   3 -10    3.89    4.05
   1  -3  10   80.69    9.58
   1   3  10   69.60   10.27
   2  -3  10  317.41   20.08
   2   3  10  311.58   19.61
   3  -3  10  243.43   18.44
  -8   4  10    2.69    7.70
  -7   4  10    2.67    6.69
  -7  -4  10   11.50    6.56
  -6  -4  10   36.08    8.52
  -6   4  10   36.07    9.00
  -5  -4  10    0.60    5.14
  -5   4  10   -5.75    4.84
  -4  -4  10   97.62   10.69
  -4   4  10   94.61   10.74
  -4  -4  10   85.55   10.66
  -3  -4  10  136.93   12.67
  -3  -4  10  147.92   12.71
  -3   4  10  140.80   11.84
  -2   4  10  144.02   12.89
   2   4 -10  155.77   11.96
  -2  -4  10  155.26   10.40
  -1   4  10   50.96    9.19
  -1  -4  10   55.30    7.82
   1   4 -10   64.09    8.12
   0   4 -10   88.87    9.15
   0   4  10   60.76    9.58
   0  -4  10   79.21    9.08
   1  -4  10  152.75   12.60
  -1   4 -10  158.72   12.39
   2  -4  10  139.89   12.70
   2   4  10  144.51   13.37
  -8   5  10  113.40   15.05
  -7  -5  10   21.76    7.39
  -7   5  10   31.27    9.36
  -6   5  10    3.98    6.15
  -6  -5  10    8.01    6.20
  -5  -5  10    9.90    5.25
  -5  -5  10   17.78    6.98
  -5   5  10    9.84    6.16
  -4  -5  10   17.62    6.66
  -4   5  10   18.39    6.86
  -4  -5  10   12.32    6.24
  -3  -5  10    6.86    5.81
  -3   5  10   11.29    5.41
  -3  -5  10   11.38    5.91
  -3   5  10    6.94    5.43
  -2   5  10  153.11   13.40
  -2  -5  10  156.55   10.89
   2   5 -10  174.01   12.73
  -1  -5  10   68.06    8.61
   1   5 -10   60.15    8.22
  -1   5  10   64.11   10.06
   0   5 -10   15.50    5.56
   0  -5  10   20.19    6.42
   0   5  10    7.77    5.77
   1   5  10    4.42    5.44
   1  -5  10   -0.65    4.75
  -1   5 -10    2.41    5.23
   2   5  10   83.10   10.73
   2  -5  10   73.47   10.70
  -7  -6  10    5.71    5.94
  -7   6  10    5.96    7.84
  -6   6  10   35.55    9.41
  -6  -6  10   21.28    6.84
  -5  -6  10  166.50   14.08
  -5   6  10  168.44   14.77
  -5  -6  10  156.11   14.15
  -4   6  10  483.33   23.84
  -4  -6  10  426.30   23.26
  -4  -6  10  417.96   23.23
  -4   6  10  439.61   24.26
  -3  -6  10  404.27   22.20
  -3  -6  10  390.63   17.92
  -3  -6  10  403.38   22.28
  -3   6  10  390.45   22.40
   2   6 -10  202.99   14.50
  -2   6  10  200.44   15.42
  -2  -6  10  260.59   13.92
  -1  -6  10   39.16    7.10
   1   6 -10   40.19    7.76
  -1   6  10   37.59    8.13
   0   6 -10   -3.56    4.21
   0   6  10    3.99    5.34
   0  -6  10   -1.03    4.45
   1   6  10    3.79    5.91
   1  -6  10    3.56    5.22
  -1   6 -10    2.86    4.92
   2  -6  10   19.25    6.58
   2   6  10   14.94    6.71
  -2   6 -10   31.04    7.25
  -7  -7  10    1.71    5.99
  -7   7  10    5.70    7.25
  -6  -7  10    3.38    4.75
  -6   7  10   -1.03    6.50
  -5  -7  10    9.87    5.90
  -5  -7  10   24.02    7.54
  -5   7  10   27.19    8.10
  -5   7  10   16.88    6.55
  -4  -7  10  165.25   13.86
  -4  -7  10  164.35   13.91
  -4   7  10  155.41   14.36
   3   7 -10   -1.94    4.42
  -3   7  10    6.79    5.63
  -3  -7  10    8.33    4.56
  -2   7  10   65.34   10.66
  -2  -7  10   63.24    8.63
   2   7 -10   60.15    9.17
  -1  -7  10   32.73    6.65
   1   7 -10   28.47    6.82
  -1   7  10   21.16    7.00
   0  -7  10   69.46    9.47
   0   7  10   81.53   10.57
   0   7 -10   62.50    9.65
   1  -7  10   45.62    8.54
  -1   7 -10   75.68   10.14
   1   7  10   56.47    9.93
  -2   7 -10   21.37    7.46
   2  -7  10   19.14    6.92
  -7   8  10   32.04    8.49
  -7   8  10   11.14    8.45
  -7  -8  10   16.73    7.04
  -6  -8  10   20.74    7.06
  -6   8  10   11.99    6.98
  -6   8  10   37.79    9.44
  -5   8  10   17.29    6.91
  -5  -8  10   24.21    7.16
  -5   8  10   12.17    7.38
  -5  -8  10   29.49    7.64
  -4  -8  10   65.55   10.48
  -4  -8  10   76.79   10.26
  -4   8  10   64.96   10.61
  -3   8  10  268.88   18.83
  -3  -8  10  283.42   15.22
   3   8 -10  243.20   16.63
  -2  -8  10  252.37   15.02
  -2   8  10  305.92   19.33
   2   8 -10  271.59   17.18
  -1  -8  10  140.69   11.64
  -1   8  10  165.29   14.12
   1   8 -10  150.38   12.70
   0   8 -10  101.81   11.08
   0  -8  10   82.47   10.83
   0   8  10  105.28   11.92
   1  -8  10   92.17   10.86
   1   8  10   93.13   11.69
  -1   8 -10  106.44   11.43
  -2   8 -10   85.48   11.11
  -7   9  10   25.18    9.77
  -6   9  10   24.10    7.85
  -6  -9  10   20.67    7.15
  -6   9  10   30.31    8.97
  -5   9  10   -0.41    5.35
  -5  -9  10    0.37    4.96
  -5  -9  10   -0.71    4.84
  -4  -9  10    5.47    5.43
  -4  -9  10    9.20    5.75
  -4   9  10   -3.78    5.91
  -3   9  10   20.61    7.38
   3   9 -10   14.91    6.29
  -3  -9  10   31.56    6.73
  -2  -9  10  167.30   12.36
   2   9 -10  155.68   13.26
  -2   9  10  154.78   14.37
   1   9 -10   70.82   10.31
  -1   9  10   82.22   12.32
  -1  -9  10   77.74    9.46
   0  -9  10   36.27    7.53
   0   9  10   34.21    8.66
   0   9 -10   25.16    6.83
   1  -9  10  108.32   11.78
   1   9  10  107.65   12.36
  -1   9 -10  120.06   12.24
  -6 -10  10  134.12   13.27
  -6 -10  10  150.17   14.29
  -6  10  10  134.14   14.24
  -5  10  10   17.72    7.60
  -5 -10  10   26.67    7.04
  -5 -10  10    7.16    6.19
  -4 -10  10    8.45    5.89
  -4 -10  10    2.66    4.69
  -4  10  10    1.38    5.81
  -3 -10  10   75.88    9.13
  -3  10  10   56.38   10.26
   3  10 -10   67.39   10.18
  -2 -10  10  163.67   12.58
  -2  10  10  159.08   14.66
   2  10 -10  150.71   13.12
  -1 -10  10   98.98   10.72
   1  10 -10  107.78   11.22
  -1  10  10  116.31   12.57
   0  10  10   26.89    7.80
   0  10 -10   12.13    5.98
   0 -10  10   16.33    6.42
   1  10  10   23.76    8.64
  -5 -11  10   20.24    7.18
  -5  11  10   10.77    6.89
  -5 -11  10   11.51    5.87
  -4 -11  10   11.61    5.87
  -4  11  10   19.02    7.40
  -4 -11  10   12.30    5.92
   4  11 -10   11.02    6.10
  -3 -11  10    9.64    5.36
  -3  11  10    6.17    5.76
   3  11 -10    4.32    5.42
  -2  11  10    7.84    6.10
  -2 -11  10   12.24    5.79
   2  11 -10   10.76    5.82
  -1 -11  10   16.68    6.28
   1  11 -10    4.13    5.29
  -1  11  10   12.84    6.81
   0 -11  10   85.99   11.47
   0  11  10   81.52   12.58
   3  12 -10   15.79    7.04
  -3 -12  10    4.46    6.04
  -3  12  10    1.94    6.06
  -2 -12  10    0.49    5.79
   2  12 -10    0.26    5.24
  -2  12  10    2.63    5.73
  -1 -12  10   -6.41    5.18
  -7   0  11    6.91    5.81
  -6   0  11    4.57    5.33
  -5   0  11   -1.51    5.85
  -4   0  11    0.89    5.56
  -3   0  11   -0.83    5.06
  -2   0  11   -5.75    5.14
  -2   0  11    1.71    5.09
  -1   0  11   15.11    6.58
   0   0  11   -3.34    5.35
   1   0  11   -2.01    5.73
   2   0  11    0.10    6.90
  -7  -1  11   33.35    9.31
  -7   1  11   20.01    8.36
  -6  -1  11   11.09    6.52
  -6   1  11    5.35    6.71
  -5  -1  11   21.73    7.39
  -5   1  11   15.21    7.02
  -4  -1  11   29.23    8.18
  -4   1  11   30.98    8.11
  -3  -1  11  142.38   13.44
  -3  -1  11  151.29   13.52
  -3   1  11  144.74   13.57
  -2  -1  11  395.11   21.99
  -2  -1  11  418.22   22.18
  -2   1  11  371.10   20.83
  -1  -1  11  164.42   13.17
  -1   1  11  117.49   12.50
  -1  -1  11  142.20   13.03
  -1  -1  11  154.08   13.91
   0  -1  11    6.79    5.59
   0   1  11   28.68    7.25
   1   1  11   44.62    9.09
   2  -1  11  297.63   19.84
   2   1  11  218.01   17.63
  -7   2  11   39.82    9.45
  -7  -2  11   37.73    9.73
  -6  -2  11   24.85    8.73
  -6   2  11   24.97    7.94
  -5  -2  11    3.78    5.81
  -5   2  11   -4.55    4.95
  -4   2  11    6.34    6.23
  -4  -2  11    5.88    5.67
  -3   2  11  182.02   14.22
  -3  -2  11  165.17   14.50
  -3  -2  11  158.95   14.01
  -2   2  11  281.31   18.67
  -2  -2  11  293.63   18.67
  -2  -2  11  277.41   18.40
  -1   2  11   62.03   10.49
  -1  -2  11   73.35   11.30
  -1  -2  11   68.03   10.67
   0   2  11    3.21    5.63
   0  -2  11    0.06    4.80
   1  -2  11   14.20    6.13
   1   2  11   11.39    7.06
  -7   3  11   22.73    8.49
  -7  -3  11    6.35    6.46
  -6   3  11   29.84    8.39
  -6  -3  11   18.52    7.27
  -5  -3  11   22.01    7.78
  -5   3  11   24.78    7.85
  -4   3  11   37.43    8.65
  -4  -3  11   28.19    8.17
  -4  -3  11   23.25    7.36
  -3   3  11   99.86   11.49
  -3  -3  11   95.19   11.30
  -3  -3  11  100.76   11.85
  -2  -3  11  124.19   12.51
  -2  -3  11  149.23   13.91
  -2   3  11  133.38   13.22
   1   3 -11  119.26   11.47
  -1   3  11  118.68   12.53
   0  -3  11   -0.01    5.02
   1  -3  11    5.92    5.73
   1   3  11    3.16    6.07
  -7   4  11  155.59   16.29
  -6  -4  11  115.17   13.20
  -6   4  11  158.53   15.05
  -5  -4  11    5.45    5.81
  -5   4  11   11.33    6.88
  -4  -4  11    1.23    5.20
  -4   4  11   13.40    6.55
  -4  -4  11    5.01    5.50
  -3  -4  11  122.23   12.23
  -3   4  11  100.59   12.01
  -3  -4  11  117.94   12.46
  -2   4  11  163.32   14.40
  -2  -4  11  133.53   13.46
  -2  -4  11  158.00   14.02
  -1   4  11   44.58    9.75
   1   4 -11   29.11    7.18
  -1  -4  11   44.16    7.66
   0   4  11   34.71    8.19
   0   4 -11   49.63    8.63
   0  -4  11   40.79    8.24
   1  -4  11   49.38    9.03
   1   4  11   49.17    9.46
  -7   5  11   89.10   14.50
  -6   5  11   62.61   11.36
  -6  -5  11   44.71   10.11
  -5  -5  11    5.08    5.52
  -5   5  11   -3.70    5.81
  -4  -5  11   10.74    6.28
  -4  -5  11   14.32    6.78
  -4   5  11    7.26    6.06
  -3   5  11   15.05    6.44
  -3  -5  11   15.77    6.96
  -3  -5  11   23.70    7.49
  -2   5  11    6.82    5.95
  -2  -5  11    2.80    5.98
   2   5 -11    2.02    4.78
   1   5 -11   20.86    6.85
  -1  -5  11   29.88    7.04
  -1   5  11   22.56    7.75
   0   5 -11    9.34    5.62
   0   5  11    2.96    5.93
   0  -5  11   -6.92    5.26
   1  -5  11   -1.83    5.50
   1   5  11    2.88    5.95
  -7   6  11   35.86   10.48
  -6   6  11   54.21   11.18
  -6  -6  11   66.79   11.85
  -5   6  11    2.10    6.37
  -5   6  11    3.49    5.18
  -5  -6  11    5.02    6.57
  -5  -6  11    3.43    5.59
  -4   6  11    0.79    5.71
  -4  -6  11    5.56    5.92
  -4  -6  11   -0.84    5.27
  -3   6  11   14.57    6.64
  -3  -6  11   30.47    7.94
  -3  -6  11   21.17    7.74
   2   6 -11  221.37   16.00
  -2   6  11  244.37   18.09
  -2  -6  11  245.20   15.04
   1   6 -11   60.51    9.75
  -1   6  11   62.58   10.69
  -1  -6  11   49.36    8.59
   0   6  11    9.38    6.05
   0  -6  11    2.56    5.46
   0   6 -11    1.29    4.95
  -1   6 -11    9.96    6.26
   1  -6  11    5.94    6.44
  -6   7  11  150.19   16.79
  -5   7  11   45.22   10.05
  -5  -7  11   40.62    9.65
  -5  -7  11   48.58   10.45
  -4   7  11    8.52    6.70
  -4  -7  11    2.43    5.56
  -4  -7  11    0.65    5.79
  -3   7  11   23.33    7.88
  -3  -7  11   22.97    7.78
  -3  -7  11   26.39    7.82
  -2  -7  11    3.94    5.66
  -2   7  11   15.39    7.34
   2   7 -11   12.64    5.86
  -1   7  11    3.25    6.10
   1   7 -11   10.74    5.59
  -1  -7  11   11.00    6.00
   0   7 -11    8.69    6.17
   0  -7  11   25.93    7.25
   0   7  11   16.41    6.71
  -6   8  11  106.44   15.35
  -5  -8  11    4.38    6.38
  -5  -8  11    3.22    5.68
  -5   8  11    2.57    5.90
  -4   8  11   34.94    9.19
  -4  -8  11   34.76    9.05
  -4  -8  11   29.61    8.31
  -3   8  11   30.51    8.76
   3   8 -11   23.61    6.99
  -3  -8  11   22.57    7.86
  -3  -8  11   38.94    9.28
   2   8 -11   28.01    7.25
  -2   8  11   25.62    8.06
  -2  -8  11   33.53    6.91
  -1  -8  11   64.89   10.06
   1   8 -11   61.49   10.11
  -1   8  11   61.26   11.25
   0   8 -11   75.13   11.04
   0   8  11   81.15   12.25
   0  -8  11   54.43   10.00
  -4  -9  11    1.84    6.04
  -4   9  11   -8.94    5.21
  -4  -9  11   -7.33    5.31
  -3   9  11    2.28    6.34
   3   9 -11    9.02    5.79
  -2   9  11   26.85    8.18
  -2  -9  11   17.66    6.66
   2   9 -11   22.76    6.98
  -1  -9  11   24.96    7.08
   1   9 -11   12.08    6.39
  -1   9  11   31.25    8.97
  -3 -10  11   21.86    7.08
  -2 -10  11    9.29    6.00
  -1 -10  11   -3.01    5.65
  -3 -11  11  119.87   11.99
  -6   0  12  441.34   26.62
  -5   0  12   33.89    9.17
  -4   0  12    4.31    6.20
  -3   0  12   23.72    7.76
  -2   0  12   71.97   11.21
  -6  -1  12   15.40    7.85
  -6   1  12   21.16    8.59
  -5  -1  12   22.76    8.58
  -5   1  12   12.90    7.35
  -4   1  12   27.98    8.67
  -4  -1  12   42.11    9.53
  -3  -1  12   82.09   11.99
  -2   1  12   38.39    9.44
  -2  -1  12   63.96   11.13
  -6   2  12  103.17   13.67
  -5  -2  12    2.79    6.30
  -5   2  12   11.53    7.93
  -4  -2  12    4.90    6.25
  -4   2  12   13.97    7.06
  -3  -2  12  109.43   12.73
  -3  -2  12   95.13   11.86
  -2  -2  12  304.35   19.62
  -2  -2  12  241.80   18.08
  -2   2  12  234.73   18.13
   0   2  12    8.22    7.11
  -6   3  12   26.32    9.23
  -5   3  12   12.61    7.65
  -5  -3  12    9.75    7.15
  -4  -3  12    3.77    5.60
  -3   3  12   30.66    9.00
  -3  -3  12   40.45    9.67
  -3  -3  12   30.42    9.21
  -2  -3  12   93.45   12.02
  -2   3  12   61.14   11.44
  -2  -3  12   86.54   11.30
  -1   3  12   83.41   12.60
  -6   4  12   65.81   11.80
  -5   4  12   10.62    6.99
  -5  -4  12   -1.55    5.98
  -4  -4  12    1.75    5.90
  -4   4  12    7.67    6.70
  -4  -4  12   -2.30    6.07
  -3   4  12   34.18    8.74
  -3  -4  12   13.48    7.10
  -3  -4  12   14.69    7.79
  -2   4  12   66.94   11.81
  -2  -4  12   58.12   11.25
  -2  -4  12   46.90   10.49
  -1   4  12    1.69    6.74
  -1  -4  12    7.05    7.51
  -1  -4  12   15.04    7.82
  -4   5  12   75.51   12.72
  -4  -5  12   66.43   11.33
  -4  -5  12   49.57   10.81
  -3   5  12   38.70    9.95
  -3  -5  12   50.91   10.18
  -3  -5  12   48.92   10.38
  -2  -5  12  121.29   14.33
  -2  -5  12  168.45   15.95
  -2   5  12  112.53   13.88
   1   5 -12   84.74   10.90
  -1   5  12   52.82   10.83
  -3   6  12   35.79    9.39
  -3  -6  12   15.60    8.34
  -3  -6  12   35.72   10.06
  -2  -6  12   29.20    8.88
  -2  -6  12   29.03    8.97
  -2   6  12   14.23    7.80
   0   0   0    0.00    0.00
;
_shelx_hkl_checksum              76181
loop_
_space_group_symop_operation_xyz
'x, y, z'
'-x, y+1/2, -z+1/2'
'-x, -y, -z'
'x, -y-1/2, z-1/2'
loop_
_atom_site_label
_atom_site_type_symbol
_atom_site_fract_x
_atom_site_fract_y
_atom_site_fract_z
_atom_site_U_iso_or_equiv
_atom_site_adp_type
_atom_site_occupancy
_atom_site_site_symmetry_order
_atom_site_calc_flag
_atom_site_refinement_flags_posn
_atom_site_refinement_flags_adp
_atom_site_refinement_flags_occupancy
Br1 Br 0.06827(6) 0.77356(2) 0.29834(5) 0.04423(13) Uani 1 1 d . . .
C2 C 0.2636(5) 0.7285(2) 0.4712(4) 0.0298(7) Uani 1 1 d . . .
C3 C 0.4045(5) 0.7839(2) 0.5586(4) 0.0372(8) Uani 1 1 d . . .
H3 H 0.4070 0.8423 0.5310 0.045 Uiso 1 1 calc R U .
C4 C 0.5406(5) 0.7507(3) 0.6871(5) 0.0432(9) Uani 1 1 d . . .
H4 H 0.6356 0.7867 0.7505 0.052 Uiso 1 1 calc R U .
C5 C 0.5350(5) 0.6631(2) 0.7212(4) 0.0407(9) Uani 1 1 d . . .
H5 H 0.6268 0.6392 0.8079 0.049 Uiso 1 1 calc R U .
C6 C 0.3933(5) 0.6112(2) 0.6268(4) 0.0339(8) Uani 1 1 d . . .
H6 H 0.3920 0.5520 0.6498 0.041 Uiso 1 1 calc R U .
Cl1 Cl -0.14783(12) 0.58837(5) 0.49804(9) 0.03073(18) Uani 1 1 d . . .
Cl2 Cl 0.24061(12) 0.54377(6) 0.20976(9) 0.0351(2) Uani 1 1 d . . .
Cl3 Cl -0.19805(12) 0.53151(7) 0.13411(9) 0.0403(2) Uani 1 1 d . . .
Cu1 Cu 0.05034(6) 0.56824(3) 0.36107(4) 0.02766(11) Uani 1 1 d . . .
Cu2 Cu 0.0000 0.5000 0.0000 0.02919(14) Uani 1 2 d S . P
N1 N 0.2556(4) 0.64345(17) 0.5016(3) 0.0265(6) Uani 1 1 d . . .
loop_
_atom_site_aniso_label
_atom_site_aniso_U_11
_atom_site_aniso_U_22
_atom_site_aniso_U_33
_atom_site_aniso_U_23
_atom_site_aniso_U_13
_atom_site_aniso_U_12
Br1 0.0436(2) 0.0409(2) 0.0431(2) 0.01289(16) 0.00749(17) 0.00360(16)
C2 0.0309(18) 0.0311(18) 0.0289(16) 0.0013(13) 0.0119(14) 0.0019(14)
C3 0.041(2) 0.0282(18) 0.045(2) -0.0098(15) 0.0182(17) -0.0080(15)
C4 0.031(2) 0.044(2) 0.049(2) -0.0179(17) 0.0059(18) -0.0107(16)
C5 0.031(2) 0.047(2) 0.0361(19) -0.0043(16) 0.0009(16) 0.0045(16)
C6 0.0322(18) 0.0314(18) 0.0330(17) 0.0002(14) 0.0042(15) 0.0007(14)
Cl1 0.0337(4) 0.0319(4) 0.0288(4) -0.0038(3) 0.0134(3) -0.0008(3)
Cl2 0.0327(4) 0.0473(5) 0.0259(4) -0.0065(3) 0.0106(3) -0.0036(4)
Cl3 0.0308(4) 0.0625(6) 0.0268(4) -0.0115(4) 0.0084(3) -0.0007(4)
Cu1 0.0287(2) 0.0316(2) 0.0224(2) -0.00475(15) 0.00815(16) -0.00330(16)
Cu2 0.0325(3) 0.0335(3) 0.0212(3) -0.0027(2) 0.0084(2) 0.0010(2)
N1 0.0271(14) 0.0270(14) 0.0262(13) -0.0031(10) 0.0099(12) -0.0011(11)
loop_
_atom_type_symbol
_atom_type_description
_atom_type_scat_dispersion_real
_atom_type_scat_dispersion_imag
_atom_type_scat_source
C C 0.0033 0.0016 'International Tables Vol C Tables 4.2.6.8 and 6.1.1.4'
H H 0.0000 0.0000 'International Tables Vol C Tables 4.2.6.8 and 6.1.1.4'
N N 0.0061 0.0033 'International Tables Vol C Tables 4.2.6.8 and 6.1.1.4'
Cl Cl 0.1484 0.1585 'International Tables Vol C Tables 4.2.6.8 and 6.1.1.4'
Cu Cu 0.3201 1.2651 'International Tables Vol C Tables 4.2.6.8 and 6.1.1.4'
Br Br -0.2901 2.4595 'International Tables Vol C Tables 4.2.6.8 and 6.1.1.4'
loop_
_geom_angle_atom_site_label_1
_geom_angle_atom_site_label_2
_geom_angle_atom_site_label_3
_geom_angle
_geom_angle_site_symmetry_1
_geom_angle_site_symmetry_3
N1 C2 C3 123.8(3) . .
N1 C2 Br1 117.0(2) . .
C3 C2 Br1 119.2(3) . .
C4 C3 C2 118.3(3) . .
C4 C3 H3 120.8 . .
C2 C3 H3 120.8 . .
C3 C4 C5 119.0(3) . .
C3 C4 H4 120.5 . .
C5 C4 H4 120.5 . .
C6 C5 C4 119.6(3) . .
C6 C5 H5 120.2 . .
C4 C5 H5 120.2 . .
N1 C6 C5 122.1(3) . .
N1 C6 H6 119.0 . .
C5 C6 H6 119.0 . .
Cu1 Cl1 Cu1 91.16(3) . 3_566
Cu2 Cl2 Cu1 94.69(4) . .
Cu2 Cl3 Cu1 93.59(4) . .
N1 Cu1 Cl1 93.97(8) . .
N1 Cu1 Cl2 89.14(8) . .
Cl1 Cu1 Cl2 176.85(3) . .
N1 Cu1 Cl3 156.36(8) . .
Cl1 Cu1 Cl3 92.94(4) . .
Cl2 Cu1 Cl3 84.00(3) . .
N1 Cu1 Cl1 100.19(8) . 3_566
Cl1 Cu1 Cl1 88.84(3) . 3_566
Cl2 Cu1 Cl1 91.09(3) . 3_566
Cl3 Cu1 Cl1 102.53(4) . 3_566
Cl2 Cu2 Cl2 180.0 3_565 .
Cl2 Cu2 Cl3 87.48(3) 3_565 3_565
Cl2 Cu2 Cl3 92.52(3) . 3_565
Cl2 Cu2 Cl3 92.52(3) 3_565 .
Cl2 Cu2 Cl3 87.48(3) . .
Cl3 Cu2 Cl3 180.0 3_565 .
C2 N1 C6 117.2(3) . .
C2 N1 Cu1 120.3(2) . .
C6 N1 Cu1 122.5(2) . .
loop_
_geom_bond_atom_site_label_1
_geom_bond_atom_site_label_2
_geom_bond_distance
_geom_bond_site_symmetry_2
Br1 C2 1.884(3) .
C2 N1 1.334(4) .
C2 C3 1.376(5) .
C3 C4 1.366(5) .
C3 H3 0.9300 .
C4 C5 1.378(5) .
C4 H4 0.9300 .
C5 C6 1.370(5) .
C5 H5 0.9300 .
C6 N1 1.348(4) .
C6 H6 0.9300 .
Cl1 Cu1 2.2477(10) .
Cl1 Cu1 2.6977(10) 3_566
Cl2 Cu2 2.2442(11) .
Cl2 Cu1 2.3119(10) .
Cl3 Cu2 2.2575(10) .
Cl3 Cu1 2.3394(12) .
Cu1 N1 1.999(3) .
Cu1 Cl1 2.6976(10) 3_566
Cu2 Cl2 2.2442(11) 3_565
Cu2 Cl3 2.2575(10) 3_565
loop_
_geom_torsion_atom_site_label_1
_geom_torsion_atom_site_label_2
_geom_torsion_atom_site_label_3
_geom_torsion_atom_site_label_4
_geom_torsion
N1 C2 C3 C4 -2.3(5)
Br1 C2 C3 C4 177.4(3)
C2 C3 C4 C5 2.0(6)
C3 C4 C5 C6 -0.3(6)
C4 C5 C6 N1 -1.1(6)
C3 C2 N1 C6 0.9(5)
Br1 C2 N1 C6 -178.9(2)
C3 C2 N1 Cu1 -177.4(3)
Br1 C2 N1 Cu1 2.9(3)
C5 C6 N1 C2 0.9(5)
C5 C6 N1 Cu1 179.1(3)
